MODEL 1
REMARK VINA RESULT:      -2.8      0.000      0.000
REMARK  4 active torsions:
REMARK  status: ('A' for Active; 'I' for Inactive)
REMARK    1  A    between atoms: C_14  and  N_1 
REMARK    2  A    between atoms: S_12  and  C_2 
REMARK    3  A    between atoms: C_9  and  C_17 
REMARK    4  A    between atoms: C_17  and  S_12 
ROOT
ATOM      1  S   UNL d   1      32.561  17.534 -23.657  0.00  0.00    -0.045 SA
ENDROOT
BRANCH   1   2
ATOM      2  C   UNL d   1      32.584  16.768 -23.947  0.00  0.00     0.219 A 
ATOM      3  N   UNL d   1      31.953  16.361 -24.263  0.00  0.00    -0.186 N 
ATOM      4  N   UNL d   1      32.213  15.622 -24.483  0.00  0.00    -0.038 NA
ATOM      5  N   UNL d   1      33.010  15.568 -24.303  0.00  0.00    -0.022 NA
ATOM      6  N   UNL d   1      33.240  16.288 -23.967  0.00  0.00    -0.101 NA
BRANCH   3   7
ATOM      7  C   UNL d   1      31.186  16.647 -24.345  0.00  0.00     0.087 A 
ATOM      8  C   UNL d   1      30.995  17.140 -24.975  0.00  0.00     0.019 A 
ATOM      9  C   UNL d   1      30.232  17.424 -25.058  0.00  0.00     0.002 A 
ATOM     10  C   UNL d   1      29.651  17.217 -24.510  0.00  0.00     0.000 A 
ATOM     11  C   UNL d   1      29.842  16.724 -23.881  0.00  0.00     0.002 A 
ATOM     12  C   UNL d   1      30.610  16.438 -23.798  0.00  0.00     0.019 A 
ENDBRANCH   3   7
ENDBRANCH   1   2
BRANCH   1  13
ATOM     13  C   UNL d   1      33.208  17.836 -23.292  0.00  0.00     0.059 C 
BRANCH  13  14
ATOM     14  C   UNL d   1      33.215  18.621 -23.076  0.00  0.00     0.107 A 
ATOM     15  N   UNL d   1      33.225  19.265 -23.609  0.00  0.00    -0.226 NA
ATOM     16  C   UNL d   1      33.229  19.979 -23.134  0.00  0.00     0.148 A 
ATOM     17  C   UNL d   1      33.239  20.790 -23.353  0.00  0.00     0.037 A 
ATOM     18  N   UNL d   1      33.222  19.756 -22.326  0.00  0.00    -0.289 N 
ATOM     19  C   UNL d   1      33.241  21.370 -22.750  0.00  0.00     0.005 A 
ATOM     20  C   UNL d   1      33.234  21.147 -21.943  0.00  0.00     0.018 A 
ATOM     21  C   UNL d   1      33.225  20.344 -21.731  0.00  0.00     0.066 A 
ATOM     22  C   UNL d   1      33.218  20.124 -20.932  0.00  0.00     0.019 C 
ATOM     23  C   UNL d   1      33.213  18.903 -22.292  0.00  0.00     0.101 A 
ENDBRANCH  13  14
ENDBRANCH   1  13
TORSDOF 4
ENDMDL
MODEL 2
REMARK VINA RESULT:      -0.3      1.974      5.081
REMARK  4 active torsions:
REMARK  status: ('A' for Active; 'I' for Inactive)
REMARK    1  A    between atoms: C_14  and  N_1 
REMARK    2  A    between atoms: S_12  and  C_2 
REMARK    3  A    between atoms: C_9  and  C_17 
REMARK    4  A    between atoms: C_17  and  S_12 
ROOT
ATOM      1  S   UNL d   1      33.044  21.216 -22.972  0.00  0.00    -0.045 SA
ENDROOT
BRANCH   1   2
ATOM      2  C   UNL d   1      33.030  22.036 -22.986  0.00  0.00     0.219 A 
ATOM      3  N   UNL d   1      32.862  22.518 -22.352  0.00  0.00    -0.186 N 
ATOM      4  N   UNL d   1      32.908  23.291 -22.603  0.00  0.00    -0.038 NA
ATOM      5  N   UNL d   1      33.107  23.291 -23.397  0.00  0.00    -0.022 NA
ATOM      6  N   UNL d   1      33.183  22.502 -23.635  0.00  0.00    -0.101 NA
BRANCH   3   7
ATOM      7  C   UNL d   1      32.676  22.269 -21.590  0.00  0.00     0.087 A 
ATOM      8  C   UNL d   1      31.927  21.972 -21.425  0.00  0.00     0.019 A 
ATOM      9  C   UNL d   1      31.743  21.724 -20.667  0.00  0.00     0.002 A 
ATOM     10  C   UNL d   1      32.306  21.771 -20.066  0.00  0.00     0.000 A 
ATOM     11  C   UNL d   1      33.055  22.068 -20.233  0.00  0.00     0.002 A 
ATOM     12  C   UNL d   1      33.240  22.317 -20.995  0.00  0.00     0.019 A 
ENDBRANCH   3   7
ENDBRANCH   1   2
BRANCH   1  13
ATOM     13  C   UNL d   1      33.189  20.814 -23.651  0.00  0.00     0.059 C 
BRANCH  13  14
ATOM     14  C   UNL d   1      33.008  20.022 -23.691  0.00  0.00     0.107 A 
ATOM     15  N   UNL d   1      32.622  19.650 -24.333  0.00  0.00    -0.226 NA
ATOM     16  C   UNL d   1      32.551  18.820 -24.131  0.00  0.00     0.148 A 
ATOM     17  C   UNL d   1      32.215  18.174 -24.552  0.00  0.00     0.037 A 
ATOM     18  N   UNL d   1      32.892  18.703 -23.375  0.00  0.00    -0.289 N 
ATOM     19  C   UNL d   1      32.230  17.415 -24.203  0.00  0.00     0.005 A 
ATOM     20  C   UNL d   1      32.572  17.298 -23.447  0.00  0.00     0.018 A 
ATOM     21  C   UNL d   1      32.902  17.940 -23.035  0.00  0.00     0.066 A 
ATOM     22  C   UNL d   1      33.240  17.825 -22.286  0.00  0.00     0.019 C 
ATOM     23  C   UNL d   1      33.179  19.460 -23.101  0.00  0.00     0.101 A 
ENDBRANCH  13  14
ENDBRANCH   1  13
TORSDOF 4
ENDMDL
MODEL 3
REMARK VINA RESULT:      -0.0      1.424      4.824
REMARK  4 active torsions:
REMARK  status: ('A' for Active; 'I' for Inactive)
REMARK    1  A    between atoms: C_14  and  N_1 
REMARK    2  A    between atoms: S_12  and  C_2 
REMARK    3  A    between atoms: C_9  and  C_17 
REMARK    4  A    between atoms: C_17  and  S_12 
ROOT
ATOM      1  S   UNL d   1      32.803  20.158 -23.070  0.00  0.00    -0.045 SA
ENDROOT
BRANCH   1   2
ATOM      2  C   UNL d   1      32.954  20.956 -23.184  0.00  0.00     0.219 A 
ATOM      3  N   UNL d   1      32.949  21.527 -22.605  0.00  0.00    -0.186 N 
ATOM      4  N   UNL d   1      33.126  22.241 -22.952  0.00  0.00    -0.038 NA
ATOM      5  N   UNL d   1      33.241  22.114 -23.753  0.00  0.00    -0.022 NA
ATOM      6  N   UNL d   1      33.132  21.307 -23.896  0.00  0.00    -0.101 NA
BRANCH   3   7
ATOM      7  C   UNL d   1      32.793  21.405 -21.806  0.00  0.00     0.087 A 
ATOM      8  C   UNL d   1      33.241  20.866 -21.376  0.00  0.00     0.019 A 
ATOM      9  C   UNL d   1      33.086  20.745 -20.582  0.00  0.00     0.002 A 
ATOM     10  C   UNL d   1      32.481  21.163 -20.209  0.00  0.00     0.000 A 
ATOM     11  C   UNL d   1      32.034  21.702 -20.639  0.00  0.00     0.002 A 
ATOM     12  C   UNL d   1      32.190  21.824 -21.438  0.00  0.00     0.019 A 
ENDBRANCH   3   7
ENDBRANCH   1   2
BRANCH   1  13
ATOM     13  C   UNL d   1      33.182  19.617 -23.524  0.00  0.00     0.059 C 
BRANCH  13  14
ATOM     14  C   UNL d   1      32.891  18.858 -23.567  0.00  0.00     0.107 A 
ATOM     15  N   UNL d   1      33.213  18.197 -23.168  0.00  0.00    -0.226 NA
ATOM     16  C   UNL d   1      32.728  17.522 -23.378  0.00  0.00     0.148 A 
ATOM     17  C   UNL d   1      32.777  16.714 -23.152  0.00  0.00     0.037 A 
ATOM     18  N   UNL d   1      32.124  17.783 -23.897  0.00  0.00    -0.289 N 
ATOM     19  C   UNL d   1      32.212  16.176 -23.454  0.00  0.00     0.005 A 
ATOM     20  C   UNL d   1      31.609  16.437 -23.973  0.00  0.00     0.018 A 
ATOM     21  C   UNL d   1      31.565  17.237 -24.194  0.00  0.00     0.066 A 
ATOM     22  C   UNL d   1      30.968  17.496 -24.708  0.00  0.00     0.019 C 
ATOM     23  C   UNL d   1      32.229  18.622 -24.015  0.00  0.00     0.101 A 
ENDBRANCH  13  14
ENDBRANCH   1  13
TORSDOF 4
ENDMDL
