MODEL 1
REMARK VINA RESULT:      46.8      0.000      0.000
REMARK  3 active torsions:
REMARK  status: ('A' for Active; 'I' for Inactive)
REMARK    1  A    between atoms: C_10  and  N_2 
REMARK    2  A    between atoms: C_15  and  C_3 
REMARK    3  A    between atoms: C_6  and  C_4 
ROOT
ATOM      1  N   UNL d   1      14.103  14.361  -3.352  0.00  0.00    -0.165 NA
ATOM      2  N   UNL d   1      13.550  14.488  -4.660  0.00  0.00    -0.228 N 
ATOM      3  C   UNL d   1      13.420  13.261  -3.950  0.00  0.00     0.081 A 
ATOM      4  C   UNL d   1      13.832  13.583  -3.313  0.00  0.00     0.106 A 
ATOM      5  C   UNL d   1      13.279  13.710  -4.621  0.00  0.00     0.105 A 
ENDROOT
BRANCH   4   6
ATOM      6  C   UNL d   1      13.976  13.133  -2.635  0.00  0.00     0.022 A 
ATOM      7  C   UNL d   1      14.479  13.422  -2.051  0.00  0.00     0.028 A 
ATOM      8  C   UNL d   1      14.624  12.973  -1.373  0.00  0.00     0.123 A 
ATOM      9  O   UNL d   1      15.129  13.264  -0.787  0.00  0.00    -0.301 OA
ATOM     10  C   UNL d   1      14.256  12.225  -1.285  0.00  0.00     0.123 A 
ATOM     11  C   UNL d   1      15.272  12.803  -0.101  0.00  0.00     0.149 A 
ATOM     12  C   UNL d   1      14.908  12.064  -0.014  0.00  0.00     0.149 A 
ATOM     13  O   UNL d   1      14.402  11.779  -0.607  0.00  0.00    -0.301 OA
ATOM     14  C   UNL d   1      13.756  11.948  -1.875  0.00  0.00     0.027 A 
ATOM     15  C   UNL d   1      13.612  12.394  -2.548  0.00  0.00     0.004 A 
ENDBRANCH   4   6
BRANCH   3  16
ATOM     16  C   UNL d   1      13.137  12.448  -3.909  0.00  0.00     0.237 C 
ATOM     17  O   UNL d   1      13.121  11.974  -4.616  0.00  0.00    -0.283 OA
ENDBRANCH   3  16
BRANCH   2  18
ATOM     18  C   UNL d   1      13.518  15.093  -5.219  0.00  0.00     0.083 A 
ATOM     19  C   UNL d   1      12.898  15.635  -5.212  0.00  0.00     0.019 A 
ATOM     20  C   UNL d   1      12.874  16.238  -5.776  0.00  0.00     0.002 A 
ATOM     21  C   UNL d   1      13.469  16.298  -6.343  0.00  0.00     0.000 A 
ATOM     22  C   UNL d   1      14.092  15.753  -6.349  0.00  0.00     0.002 A 
ATOM     23  C   UNL d   1      14.113  15.152  -5.786  0.00  0.00     0.019 A 
ENDBRANCH   2  18
TORSDOF 3
ENDMDL
MODEL 2
REMARK VINA RESULT:      47.9      1.429      4.749
REMARK  3 active torsions:
REMARK  status: ('A' for Active; 'I' for Inactive)
REMARK    1  A    between atoms: C_10  and  N_2 
REMARK    2  A    between atoms: C_15  and  C_3 
REMARK    3  A    between atoms: C_6  and  C_4 
ROOT
ATOM      1  N   UNL d   1      14.156  13.998  -2.787  0.00  0.00    -0.165 NA
ATOM      2  N   UNL d   1      14.087  12.712  -2.173  0.00  0.00    -0.228 N 
ATOM      3  C   UNL d   1      13.536  12.911  -3.471  0.00  0.00     0.081 A 
ATOM      4  C   UNL d   1      13.765  13.702  -3.450  0.00  0.00     0.106 A 
ATOM      5  C   UNL d   1      13.695  12.417  -2.836  0.00  0.00     0.105 A 
ENDROOT
BRANCH   4   6
ATOM      6  C   UNL d   1      13.605  14.202  -4.088  0.00  0.00     0.022 A 
ATOM      7  C   UNL d   1      14.122  14.818  -4.264  0.00  0.00     0.028 A 
ATOM      8  C   UNL d   1      13.964  15.319  -4.902  0.00  0.00     0.123 A 
ATOM      9  O   UNL d   1      14.483  15.937  -5.078  0.00  0.00    -0.301 OA
ATOM     10  C   UNL d   1      13.277  15.195  -5.365  0.00  0.00     0.123 A 
ATOM     11  C   UNL d   1      14.317  16.442  -5.726  0.00  0.00     0.149 A 
ATOM     12  C   UNL d   1      13.637  16.319  -6.184  0.00  0.00     0.149 A 
ATOM     13  O   UNL d   1      13.121  15.696  -6.001  0.00  0.00    -0.301 OA
ATOM     14  C   UNL d   1      12.769  14.577  -5.178  0.00  0.00     0.027 A 
ATOM     15  C   UNL d   1      12.926  14.080  -4.545  0.00  0.00     0.004 A 
ENDBRANCH   4   6
BRANCH   3  16
ATOM     16  C   UNL d   1      13.127  12.602  -4.164  0.00  0.00     0.237 C 
ATOM     17  O   UNL d   1      13.269  11.800  -4.410  0.00  0.00    -0.283 OA
ENDBRANCH   3  16
BRANCH   2  18
ATOM     18  C   UNL d   1      14.337  12.401  -1.451  0.00  0.00     0.083 A 
ATOM     19  C   UNL d   1      13.790  12.214  -0.865  0.00  0.00     0.019 A 
ATOM     20  C   UNL d   1      14.050  11.903  -0.146  0.00  0.00     0.002 A 
ATOM     21  C   UNL d   1      14.854  11.779  -0.015  0.00  0.00     0.000 A 
ATOM     22  C   UNL d   1      15.403  11.968  -0.605  0.00  0.00     0.002 A 
ATOM     23  C   UNL d   1      15.142  12.278  -1.321  0.00  0.00     0.019 A 
ENDBRANCH   2  18
TORSDOF 3
ENDMDL
