MODEL 1
REMARK VINA RESULT:      77.5      0.000      0.000
REMARK  4 active torsions:
REMARK  status: ('A' for Active; 'I' for Inactive)
REMARK    1  A    between atoms: C_10  and  N_3 
REMARK    2  A    between atoms: C_11  and  C_6 
REMARK    3  A    between atoms: C_16  and  C_10 
REMARK    4  A    between atoms: N_17  and  C_16 
ROOT
ATOM      1  C   UNL d   1      59.138  49.640  51.406  0.00  0.00     0.083 A 
ATOM      2  C   UNL d   1      58.810  49.662  52.149  0.00  0.00     0.161 A 
ATOM      3  N   UNL d   1      60.115  49.656  52.281  0.00  0.00    -0.270 N 
ATOM      4  C   UNL d   1      59.415  49.672  52.693  0.00  0.00     0.288 A 
ATOM      5  C   UNL d   1      58.663  49.627  50.737  0.00  0.00     0.201 A 
ATOM      6  C   UNL d   1      59.946  49.637  51.490  0.00  0.00     0.072 A 
ATOM      7  O   UNL d   1      57.989  49.670  52.232  0.00  0.00    -0.302 OA
ATOM      8  C   UNL d   1      57.847  49.635  50.831  0.00  0.00     0.062 A 
ATOM      9  C   UNL d   1      57.517  49.657  51.579  0.00  0.00     0.103 A 
ATOM     10  O   UNL d   1      59.327  49.694  53.518  0.00  0.00    -0.264 OA
ATOM     11  O   UNL d   1      58.997  49.605  49.981  0.00  0.00    -0.286 OA
ATOM     12  C   UNL d   1      57.361  49.621  50.163  0.00  0.00     0.005 A 
ATOM     13  C   UNL d   1      56.699  49.665  51.663  0.00  0.00     0.025 A 
ATOM     14  C   UNL d   1      56.558  49.630  50.262  0.00  0.00     0.000 A 
ATOM     15  C   UNL d   1      56.227  49.652  51.010  0.00  0.00     0.002 A 
ENDROOT
BRANCH   6  16
ATOM     16  C   UNL d   1      60.502  49.617  50.868  0.00  0.00     0.017 A 
ATOM     17  C   UNL d   1      61.303  49.518  51.037  0.00  0.00     0.004 A 
ATOM     18  C   UNL d   1      61.851  49.498  50.418  0.00  0.00     0.030 A 
ATOM     19  C   UNL d   1      61.595  49.578  49.622  0.00  0.00     0.140 A 
ATOM     20  C   UNL d   1      60.790  49.677  49.464  0.00  0.00     0.030 A 
ATOM     21  F   UNL d   1      62.146  49.558  49.000  0.00  0.00    -0.204 F 
ATOM     22  C   UNL d   1      60.238  49.697  50.086  0.00  0.00     0.004 A 
ENDBRANCH   6  16
BRANCH   3  23
ATOM     23  C   UNL d   1      60.880  49.659  52.619  0.00  0.00     0.102 C 
BRANCH  23  24
ATOM     24  C   UNL d   1      61.398  49.022  52.468  0.00  0.00     0.100 C 
BRANCH  24  25
ATOM     25  N   UNL d   1      62.168  49.032  52.792  0.00  0.00    -0.299 N 
ATOM     26  C   UNL d   1      62.730  49.573  52.503  0.00  0.00     0.100 C 
ATOM     27  C   UNL d   1      62.366  48.504  53.400  0.00  0.00     0.100 C 
ENDBRANCH  24  25
ENDBRANCH  23  24
ENDBRANCH   3  23
TORSDOF 4
ENDMDL
