MODEL 1
REMARK VINA RESULT:      -6.9      0.000      0.000
REMARK  3 active torsions:
REMARK  status: ('A' for Active; 'I' for Inactive)
REMARK    1  A    between atoms: C_9  and  C_4 
REMARK    2  A    between atoms: C_10  and  C_7 
REMARK    3  A    between atoms: C_13  and  C_10 
ROOT
ATOM      1  C   UNL d   1     -41.476-123.343 -52.193  0.00  0.00     0.179 A 
ATOM      2  N   UNL d   1     -41.508-122.550 -51.946  0.00  0.00    -0.282 N 
ATOM      3  N   UNL d   1     -41.602-123.367 -53.004  0.00  0.00    -0.221 NA
ATOM      4  C   UNL d   1     -41.714-122.583 -53.267  0.00  0.00     0.101 A 
ATOM      5  S   UNL d   1     -41.330-123.811 -51.530  0.00  0.00    -0.048 SA
ATOM      6  C   UNL d   1     -41.654-122.089 -52.615  0.00  0.00     0.101 A 
ATOM      7  C   UNL d   1     -41.271-123.307 -50.875  0.00  0.00     0.050 A 
ATOM      8  C   UNL d   1     -41.380-122.542 -51.135  0.00  0.00     0.089 A 
ENDROOT
BRANCH   7   9
ATOM      9  C   UNL d   1     -41.126-123.553 -50.097  0.00  0.00     0.008 C 
BRANCH   9  10
ATOM     10  C   UNL d   1     -41.690-123.445 -49.514  0.00  0.00     0.001 A 
ATOM     11  C   UNL d   1     -41.521-122.960 -48.859  0.00  0.00     0.002 A 
ATOM     12  C   UNL d   1     -42.094-122.852 -48.269  0.00  0.00     0.030 A 
ATOM     13  C   UNL d   1     -42.827-123.223 -48.330  0.00  0.00     0.140 A 
ATOM     14  C   UNL d   1     -42.996-123.704 -48.980  0.00  0.00     0.030 A 
ATOM     15  F   UNL d   1     -43.404-123.125 -47.754  0.00  0.00    -0.204 F 
ATOM     16  C   UNL d   1     -42.426-123.814 -49.570  0.00  0.00     0.002 A 
ENDBRANCH   9  10
ENDBRANCH   7   9
BRANCH   4  17
ATOM     17  C   UNL d   1     -41.856-122.356 -54.042  0.00  0.00     0.019 A 
ATOM     18  C   UNL d   1     -41.420-122.696 -54.647  0.00  0.00     0.004 A 
ATOM     19  C   UNL d   1     -41.554-122.474 -55.434  0.00  0.00     0.030 A 
ATOM     20  C   UNL d   1     -42.133-121.906 -55.603  0.00  0.00     0.140 A 
ATOM     21  C   UNL d   1     -42.570-121.566 -54.998  0.00  0.00     0.030 A 
ATOM     22  F   UNL d   1     -42.390-121.578 -56.312  0.00  0.00    -0.204 F 
ATOM     23  C   UNL d   1     -42.435-121.788 -54.217  0.00  0.00     0.004 A 
ENDBRANCH   4  17
TORSDOF 3
ENDMDL
MODEL 2
REMARK VINA RESULT:      -6.3      0.852      5.365
REMARK  3 active torsions:
REMARK  status: ('A' for Active; 'I' for Inactive)
REMARK    1  A    between atoms: C_9  and  C_4 
REMARK    2  A    between atoms: C_10  and  C_7 
REMARK    3  A    between atoms: C_13  and  C_10 
ROOT
ATOM      1  C   UNL d   1     -41.873-122.200 -51.267  0.00  0.00     0.179 A 
ATOM      2  N   UNL d   1     -41.482-122.923 -51.383  0.00  0.00    -0.282 N 
ATOM      3  N   UNL d   1     -42.203-122.201 -50.516  0.00  0.00    -0.221 NA
ATOM      4  C   UNL d   1     -42.016-122.931 -50.158  0.00  0.00     0.101 A 
ATOM      5  S   UNL d   1     -41.785-121.748 -51.952  0.00  0.00    -0.048 SA
ATOM      6  C   UNL d   1     -41.575-123.367 -50.694  0.00  0.00     0.101 A 
ATOM      7  C   UNL d   1     -41.339-122.194 -52.490  0.00  0.00     0.050 A 
ATOM      8  C   UNL d   1     -41.158-122.907 -52.138  0.00  0.00     0.089 A 
ENDROOT
BRANCH   7   9
ATOM      9  C   UNL d   1     -41.123-121.943 -53.250  0.00  0.00     0.008 C 
BRANCH   9  10
ATOM     10  C   UNL d   1     -41.593-122.119 -53.896  0.00  0.00     0.001 A 
ATOM     11  C   UNL d   1     -42.173-121.576 -54.147  0.00  0.00     0.002 A 
ATOM     12  C   UNL d   1     -42.648-121.757 -54.802  0.00  0.00     0.030 A 
ATOM     13  C   UNL d   1     -42.549-122.470 -55.203  0.00  0.00     0.140 A 
ATOM     14  C   UNL d   1     -41.974-123.009 -54.955  0.00  0.00     0.030 A 
ATOM     15  F   UNL d   1     -43.012-122.662 -55.853  0.00  0.00    -0.204 F 
ATOM     16  C   UNL d   1     -41.498-122.831 -54.302  0.00  0.00     0.002 A 
ENDBRANCH   9  10
ENDBRANCH   7   9
BRANCH   4  17
ATOM     17  C   UNL d   1     -42.238-123.164 -49.404  0.00  0.00     0.019 A 
ATOM     18  C   UNL d   1     -42.969-123.517 -49.291  0.00  0.00     0.004 A 
ATOM     19  C   UNL d   1     -43.205-123.757 -48.534  0.00  0.00     0.030 A 
ATOM     20  C   UNL d   1     -42.695-123.637 -47.892  0.00  0.00     0.140 A 
ATOM     21  C   UNL d   1     -41.964-123.285 -48.004  0.00  0.00     0.030 A 
ATOM     22  F   UNL d   1     -42.769-123.811 -47.092  0.00  0.00    -0.204 F 
ATOM     23  C   UNL d   1     -41.731-123.047 -48.757  0.00  0.00     0.004 A 
ENDBRANCH   4  17
TORSDOF 3
ENDMDL
