MODEL 1
REMARK VINA RESULT:     113.6      0.000      0.000
REMARK  5 active torsions:
REMARK  status: ('A' for Active; 'I' for Inactive)
REMARK    1  A    between atoms: N_9  and  S_1 
REMARK    2  A    between atoms: C_12  and  S_1 
REMARK    3  A    between atoms: C_6  and  C_15 
REMARK    4  A    between atoms: C_18  and  N_9 
REMARK       I    between atoms: C_16  and  N_17 
REMARK    5  A    between atoms: N_17  and  C_23 
ROOT
ATOM      1  C   UNL d   1      61.888  44.308  49.873  0.00  0.00     0.021 A 
ATOM      2  C   UNL d   1      61.946  45.724  49.622  0.00  0.00     0.094 A 
ATOM      3  C   UNL d   1      62.193  45.063  50.050  0.00  0.00     0.021 A 
ATOM      4  C   UNL d   1      61.339  44.227  49.267  0.00  0.00     0.002 A 
ATOM      5  C   UNL d   1      61.087  44.876  48.836  0.00  0.00     0.002 A 
ATOM      6  C   UNL d   1      61.392  45.630  49.013  0.00  0.00     0.020 A 
ENDROOT
BRANCH   2   7
ATOM      7  N   UNL d   1      62.247  46.467  49.797  0.00  0.00    -0.158 NA
BRANCH   7   8
ATOM      8  S   UNL d   1      61.752  47.045  50.102  0.00  0.00     0.285 S 
ATOM      9  O   UNL d   1      62.227  47.624  49.758  0.00  0.00    -0.198 OA
ATOM     10  O   UNL d   1      61.269  46.472  50.450  0.00  0.00    -0.198 OA
BRANCH   8  11
ATOM     11  C   UNL d   1      61.250  47.630  50.412  0.00  0.00     0.105 A 
ATOM     12  C   UNL d   1      60.522  47.404  50.727  0.00  0.00     0.015 A 
ATOM     13  C   UNL d   1      60.003  47.974  51.043  0.00  0.00     0.020 A 
ATOM     14  C   UNL d   1      60.227  48.775  51.038  0.00  0.00     0.085 A 
ATOM     15  C   UNL d   1      60.955  49.001  50.722  0.00  0.00     0.020 A 
ATOM     16  C   UNL d   1      61.467  48.420  50.408  0.00  0.00     0.015 A 
BRANCH  14  17
ATOM     17  N   UNL d   1      59.730  49.335  51.342  0.00  0.00    -0.208 NA
ATOM     18  C   UNL d   1      58.953  49.145  51.511  0.00  0.00     0.279 C 
ATOM     19  O   UNL d   1      58.675  48.382  51.372  0.00  0.00    -0.265 OA
ATOM     20  C   UNL d   1      58.453  49.707  51.817  0.00  0.00     0.068 C 
ENDBRANCH  14  17
ENDBRANCH   8  11
ENDBRANCH   7   8
ENDBRANCH   2   7
BRANCH   1  21
ATOM     21  C   UNL d   1      62.145  43.656  50.310  0.00  0.00     0.102 A 
ATOM     22  N   UNL d   1      61.833  43.545  51.075  0.00  0.00    -0.162 NA
ATOM     23  N   UNL d   1      62.088  42.887  51.524  0.00  0.00    -0.189 N 
ATOM     24  C   UNL d   1      61.886  42.637  52.274  0.00  0.00     0.224 A 
ATOM     25  C   UNL d   1      62.644  42.352  51.212  0.00  0.00     0.187 A 
ATOM     26  N   UNL d   1      62.304  41.958  52.437  0.00  0.00    -0.124 NA
ATOM     27  N   UNL d   1      62.768  41.789  51.778  0.00  0.00    -0.127 NA
ATOM     28  C   UNL d   1      62.943  42.484  50.441  0.00  0.00     0.042 A 
ATOM     29  C   UNL d   1      62.690  43.137  49.996  0.00  0.00     0.024 A 
ENDBRANCH   1  21
TORSDOF 5
ENDMDL
MODEL 2
REMARK VINA RESULT:     115.4      1.554      5.553
REMARK  5 active torsions:
REMARK  status: ('A' for Active; 'I' for Inactive)
REMARK    1  A    between atoms: N_9  and  S_1 
REMARK    2  A    between atoms: C_12  and  S_1 
REMARK    3  A    between atoms: C_6  and  C_15 
REMARK    4  A    between atoms: C_18  and  N_9 
REMARK       I    between atoms: C_16  and  N_17 
REMARK    5  A    between atoms: N_17  and  C_23 
ROOT
ATOM      1  C   UNL d   1      61.618  47.492  49.946  0.00  0.00     0.021 A 
ATOM      2  C   UNL d   1      61.653  46.152  49.423  0.00  0.00     0.094 A 
ATOM      3  C   UNL d   1      61.269  46.742  49.854  0.00  0.00     0.021 A 
ATOM      4  C   UNL d   1      62.351  47.641  49.603  0.00  0.00     0.002 A 
ATOM      5  C   UNL d   1      62.741  47.063  49.174  0.00  0.00     0.002 A 
ATOM      6  C   UNL d   1      62.391  46.313  49.082  0.00  0.00     0.020 A 
ENDROOT
BRANCH   2   7
ATOM      7  N   UNL d   1      61.309  45.413  49.333  0.00  0.00    -0.158 NA
BRANCH   7   8
ATOM      8  S   UNL d   1      61.591  44.776  49.765  0.00  0.00     0.285 S 
ATOM      9  O   UNL d   1      60.895  44.777  50.208  0.00  0.00    -0.198 OA
ATOM     10  O   UNL d   1      62.291  44.768  49.328  0.00  0.00    -0.198 OA
BRANCH   8  11
ATOM     11  C   UNL d   1      61.878  44.131  50.203  0.00  0.00     0.105 A 
ATOM     12  C   UNL d   1      61.466  43.892  50.877  0.00  0.00     0.015 A 
ATOM     13  C   UNL d   1      61.736  43.248  51.330  0.00  0.00     0.020 A 
ATOM     14  C   UNL d   1      62.426  42.846  51.096  0.00  0.00     0.085 A 
ATOM     15  C   UNL d   1      62.837  43.085  50.422  0.00  0.00     0.020 A 
ATOM     16  C   UNL d   1      62.557  43.733  49.975  0.00  0.00     0.015 A 
BRANCH  14  17
ATOM     17  N   UNL d   1      62.695  42.219  51.530  0.00  0.00    -0.208 NA
ATOM     18  C   UNL d   1      62.887  41.517  51.159  0.00  0.00     0.279 C 
ATOM     19  O   UNL d   1      62.807  41.445  50.342  0.00  0.00    -0.265 OA
ATOM     20  C   UNL d   1      63.158  40.887  51.594  0.00  0.00     0.068 C 
ENDBRANCH  14  17
ENDBRANCH   8  11
ENDBRANCH   7   8
ENDBRANCH   2   7
BRANCH   1  21
ATOM     21  C   UNL d   1      61.221  48.072  50.380  0.00  0.00     0.102 A 
ATOM     22  N   UNL d   1      61.325  48.089  51.206  0.00  0.00    -0.162 NA
ATOM     23  N   UNL d   1      60.926  48.673  51.652  0.00  0.00    -0.189 N 
ATOM     24  C   UNL d   1      60.918  48.826  52.454  0.00  0.00     0.224 A 
ATOM     25  C   UNL d   1      60.434  49.230  51.276  0.00  0.00     0.187 A 
ATOM     26  N   UNL d   1      60.432  49.465  52.586  0.00  0.00    -0.124 NA
ATOM     27  N   UNL d   1      60.139  49.707  51.857  0.00  0.00    -0.127 NA
ATOM     28  C   UNL d   1      60.346  49.194  50.444  0.00  0.00     0.042 A 
ATOM     29  C   UNL d   1      60.741  48.614  50.002  0.00  0.00     0.024 A 
ENDBRANCH   1  21
TORSDOF 5
ENDMDL
