MODEL 1
REMARK VINA RESULT:      -8.7      0.000      0.000
REMARK  3 active torsions:
REMARK  status: ('A' for Active; 'I' for Inactive)
REMARK    1  A    between atoms: N_10  and  C_3 
REMARK    2  A    between atoms: C_11  and  C_5 
REMARK    3  A    between atoms: C_12  and  C_9 
ROOT
ATOM      1  N   UNL d   1      52.008  34.177  53.329  0.00  0.00    -0.196 N 
ATOM      2  C   UNL d   1      52.677  33.858  53.715  0.00  0.00     0.167 A 
ATOM      3  C   UNL d   1      51.538  33.683  52.868  0.00  0.00     0.152 A 
ATOM      4  N   UNL d   1      52.304  35.466  53.879  0.00  0.00    -0.163 NA
ATOM      5  C   UNL d   1      53.148  34.339  54.173  0.00  0.00     0.055 A 
ATOM      6  N   UNL d   1      52.853  33.057  53.626  0.00  0.00    -0.227 NA
ATOM      7  C   UNL d   1      51.727  32.858  52.782  0.00  0.00     0.057 A 
ATOM      8  C   UNL d   1      52.974  35.147  54.265  0.00  0.00     0.104 A 
ATOM      9  C   UNL d   1      52.382  32.573  53.166  0.00  0.00     0.086 A 
ATOM     10  C   UNL d   1      53.443  35.625  54.721  0.00  0.00     0.023 C 
ENDROOT
BRANCH   5  11
ATOM     11  C   UNL d   1      53.824  34.017  54.563  0.00  0.00     0.004 A 
ATOM     12  C   UNL d   1      54.559  34.036  54.192  0.00  0.00     0.000 A 
ATOM     13  C   UNL d   1      55.226  33.719  54.577  0.00  0.00     0.000 A 
ATOM     14  C   UNL d   1      55.143  33.389  55.324  0.00  0.00     0.000 A 
ATOM     15  C   UNL d   1      54.399  33.371  55.694  0.00  0.00     0.000 A 
ATOM     16  C   UNL d   1      53.748  33.686  55.309  0.00  0.00     0.000 A 
ENDBRANCH   5  11
BRANCH   3  17
ATOM     17  N   UNL d   1      50.850  34.006  52.470  0.00  0.00    -0.289 N 
ATOM     18  C   UNL d   1      50.231  34.155  52.870  0.00  0.00     0.082 A 
ATOM     19  C   UNL d   1      49.628  34.440  52.510  0.00  0.00     0.021 A 
ATOM     20  C   UNL d   1      50.272  34.416  51.389  0.00  0.00     0.021 A 
ATOM     21  C   UNL d   1      50.876  34.131  51.748  0.00  0.00     0.082 A 
ENDBRANCH   3  17
BRANCH   9  22
ATOM     22  C   UNL d   1      52.571  31.730  53.076  0.00  0.00     0.018 C 
ATOM     23  C   UNL d   1      52.122  31.141  53.536  0.00  0.00     0.002 C 
ATOM     24  C   UNL d   1      53.199  31.480  52.537  0.00  0.00     0.002 C 
ENDBRANCH   9  22
TORSDOF 3
ENDMDL
MODEL 2
REMARK VINA RESULT:      -8.7      0.934      2.928
REMARK  3 active torsions:
REMARK  status: ('A' for Active; 'I' for Inactive)
REMARK    1  A    between atoms: N_10  and  C_3 
REMARK    2  A    between atoms: C_11  and  C_5 
REMARK    3  A    between atoms: C_12  and  C_9 
ROOT
ATOM      1  N   UNL d   1      53.212  32.313  53.718  0.00  0.00    -0.196 N 
ATOM      2  C   UNL d   1      53.082  33.128  53.853  0.00  0.00     0.167 A 
ATOM      3  C   UNL d   1      52.669  31.890  53.267  0.00  0.00     0.152 A 
ATOM      4  N   UNL d   1      54.419  32.377  54.487  0.00  0.00    -0.163 NA
ATOM      5  C   UNL d   1      53.614  33.554  54.298  0.00  0.00     0.055 A 
ATOM      6  N   UNL d   1      52.414  33.490  53.533  0.00  0.00    -0.227 NA
ATOM      7  C   UNL d   1      51.983  32.273  52.941  0.00  0.00     0.057 A 
ATOM      8  C   UNL d   1      54.289  33.192  54.622  0.00  0.00     0.104 A 
ATOM      9  C   UNL d   1      51.879  33.064  53.086  0.00  0.00     0.086 A 
ATOM     10  C   UNL d   1      54.818  33.618  55.065  0.00  0.00     0.023 C 
ENDROOT
BRANCH   5  11
ATOM     11  C   UNL d   1      53.483  34.377  54.434  0.00  0.00     0.004 A 
ATOM     12  C   UNL d   1      53.097  34.623  55.119  0.00  0.00     0.000 A 
ATOM     13  C   UNL d   1      52.968  35.434  55.254  0.00  0.00     0.000 A 
ATOM     14  C   UNL d   1      53.228  35.982  54.701  0.00  0.00     0.000 A 
ATOM     15  C   UNL d   1      53.617  35.730  54.011  0.00  0.00     0.000 A 
ATOM     16  C   UNL d   1      53.740  34.930  53.886  0.00  0.00     0.000 A 
ENDBRANCH   5  11
BRANCH   3  17
ATOM     17  N   UNL d   1      52.798  31.053  53.125  0.00  0.00    -0.289 N 
ATOM     18  C   UNL d   1      52.539  30.554  53.624  0.00  0.00     0.082 A 
ATOM     19  C   UNL d   1      52.657  29.817  53.491  0.00  0.00     0.021 A 
ATOM     20  C   UNL d   1      53.274  30.104  52.391  0.00  0.00     0.021 A 
ATOM     21  C   UNL d   1      53.156  30.841  52.523  0.00  0.00     0.082 A 
ENDBRANCH   3  17
BRANCH   9  22
ATOM     22  C   UNL d   1      51.177  33.451  52.751  0.00  0.00     0.018 C 
ATOM     23  C   UNL d   1      50.430  33.437  53.198  0.00  0.00     0.002 C 
ATOM     24  C   UNL d   1      51.222  33.845  51.983  0.00  0.00     0.002 C 
ENDBRANCH   9  22
TORSDOF 3
ENDMDL
MODEL 3
REMARK VINA RESULT:      -7.6      1.350      3.451
REMARK  3 active torsions:
REMARK  status: ('A' for Active; 'I' for Inactive)
REMARK    1  A    between atoms: N_10  and  C_3 
REMARK    2  A    between atoms: C_11  and  C_5 
REMARK    3  A    between atoms: C_12  and  C_9 
ROOT
ATOM      1  N   UNL d   1      52.688  31.992  53.472  0.00  0.00    -0.196 N 
ATOM      2  C   UNL d   1      52.810  32.813  53.568  0.00  0.00     0.167 A 
ATOM      3  C   UNL d   1      53.330  31.481  53.535  0.00  0.00     0.152 A 
ATOM      4  N   UNL d   1      51.291  32.224  53.255  0.00  0.00    -0.163 NA
ATOM      5  C   UNL d   1      52.181  33.326  53.507  0.00  0.00     0.055 A 
ATOM      6  N   UNL d   1      53.569  33.095  53.723  0.00  0.00    -0.227 NA
ATOM      7  C   UNL d   1      54.110  31.782  53.695  0.00  0.00     0.057 A 
ATOM      8  C   UNL d   1      51.413  33.046  53.351  0.00  0.00     0.104 A 
ATOM      9  C   UNL d   1      54.203  32.582  53.784  0.00  0.00     0.086 A 
ATOM     10  C   UNL d   1      50.787  33.558  53.291  0.00  0.00     0.023 C 
ENDROOT
BRANCH   5  11
ATOM     11  C   UNL d   1      52.304  34.156  53.604  0.00  0.00     0.004 A 
ATOM     12  C   UNL d   1      52.246  34.495  54.353  0.00  0.00     0.000 A 
ATOM     13  C   UNL d   1      52.367  35.312  54.448  0.00  0.00     0.000 A 
ATOM     14  C   UNL d   1      52.544  35.775  53.793  0.00  0.00     0.000 A 
ATOM     15  C   UNL d   1      52.601  35.429  53.039  0.00  0.00     0.000 A 
ATOM     16  C   UNL d   1      52.480  34.623  52.954  0.00  0.00     0.000 A 
ENDBRANCH   5  11
BRANCH   3  17
ATOM     17  N   UNL d   1      53.210  30.637  53.437  0.00  0.00    -0.289 N 
ATOM     18  C   UNL d   1      53.282  30.186  54.034  0.00  0.00     0.082 A 
ATOM     19  C   UNL d   1      53.174  29.442  53.939  0.00  0.00     0.021 A 
ATOM     20  C   UNL d   1      52.932  29.627  52.681  0.00  0.00     0.021 A 
ATOM     21  C   UNL d   1      53.040  30.371  52.776  0.00  0.00     0.082 A 
ENDBRANCH   3  17
BRANCH   9  22
ATOM     22  C   UNL d   1      55.001  32.884  53.947  0.00  0.00     0.018 C 
ATOM     23  C   UNL d   1      55.210  33.114  54.761  0.00  0.00     0.002 C 
ATOM     24  C   UNL d   1      55.579  32.955  53.308  0.00  0.00     0.002 C 
ENDBRANCH   9  22
TORSDOF 3
ENDMDL
MODEL 4
REMARK VINA RESULT:      -7.5      0.897      2.441
REMARK  3 active torsions:
REMARK  status: ('A' for Active; 'I' for Inactive)
REMARK    1  A    between atoms: N_10  and  C_3 
REMARK    2  A    between atoms: C_11  and  C_5 
REMARK    3  A    between atoms: C_12  and  C_9 
ROOT
ATOM      1  N   UNL d   1      51.884  33.521  52.947  0.00  0.00    -0.196 N 
ATOM      2  C   UNL d   1      52.587  33.479  53.398  0.00  0.00     0.167 A 
ATOM      3  C   UNL d   1      51.482  34.236  52.895  0.00  0.00     0.152 A 
ATOM      4  N   UNL d   1      52.013  32.132  52.618  0.00  0.00    -0.163 NA
ATOM      5  C   UNL d   1      52.991  32.775  53.454  0.00  0.00     0.055 A 
ATOM      6  N   UNL d   1      52.863  34.155  53.781  0.00  0.00    -0.227 NA
ATOM      7  C   UNL d   1      51.775  34.928  53.294  0.00  0.00     0.057 A 
ATOM      8  C   UNL d   1      52.716  32.090  53.069  0.00  0.00     0.104 A 
ATOM      9  C   UNL d   1      52.458  34.863  53.725  0.00  0.00     0.086 A 
ATOM     10  C   UNL d   1      53.120  31.390  53.126  0.00  0.00     0.023 C 
ENDROOT
BRANCH   5  11
ATOM     11  C   UNL d   1      53.701  32.733  53.910  0.00  0.00     0.004 A 
ATOM     12  C   UNL d   1      53.662  32.569  54.716  0.00  0.00     0.000 A 
ATOM     13  C   UNL d   1      54.362  32.528  55.164  0.00  0.00     0.000 A 
ATOM     14  C   UNL d   1      55.086  32.652  54.798  0.00  0.00     0.000 A 
ATOM     15  C   UNL d   1      55.121  32.817  53.984  0.00  0.00     0.000 A 
ATOM     16  C   UNL d   1      54.428  32.856  53.549  0.00  0.00     0.000 A 
ENDBRANCH   5  11
BRANCH   3  17
ATOM     17  N   UNL d   1      50.761  34.283  52.433  0.00  0.00    -0.289 N 
ATOM     18  C   UNL d   1      50.099  34.308  52.789  0.00  0.00     0.082 A 
ATOM     19  C   UNL d   1      49.466  34.350  52.374  0.00  0.00     0.021 A 
ATOM     20  C   UNL d   1      50.168  34.341  51.287  0.00  0.00     0.021 A 
ATOM     21  C   UNL d   1      50.801  34.299  51.702  0.00  0.00     0.082 A 
ENDBRANCH   3  17
BRANCH   9  22
ATOM     22  C   UNL d   1      52.753  35.573  54.131  0.00  0.00     0.018 C 
ATOM     23  C   UNL d   1      53.373  36.053  53.752  0.00  0.00     0.002 C 
ATOM     24  C   UNL d   1      52.433  35.797  54.902  0.00  0.00     0.002 C 
ENDBRANCH   9  22
TORSDOF 3
ENDMDL
MODEL 5
REMARK VINA RESULT:      -7.3      0.888      3.650
REMARK  3 active torsions:
REMARK  status: ('A' for Active; 'I' for Inactive)
REMARK    1  A    between atoms: N_10  and  C_3 
REMARK    2  A    between atoms: C_11  and  C_5 
REMARK    3  A    between atoms: C_12  and  C_9 
ROOT
ATOM      1  N   UNL d   1      53.293  33.810  54.133  0.00  0.00    -0.196 N 
ATOM      2  C   UNL d   1      52.643  33.675  53.625  0.00  0.00     0.167 A 
ATOM      3  C   UNL d   1      53.797  33.186  54.313  0.00  0.00     0.152 A 
ATOM      4  N   UNL d   1      52.909  35.184  54.259  0.00  0.00    -0.163 NA
ATOM      5  C   UNL d   1      52.138  34.287  53.441  0.00  0.00     0.055 A 
ATOM      6  N   UNL d   1      52.520  32.920  53.316  0.00  0.00    -0.227 NA
ATOM      7  C   UNL d   1      53.663  32.411  53.989  0.00  0.00     0.057 A 
ATOM      8  C   UNL d   1      52.258  35.049  53.751  0.00  0.00     0.104 A 
ATOM      9  C   UNL d   1      53.026  32.305  53.499  0.00  0.00     0.086 A 
ATOM     10  C   UNL d   1      51.755  35.657  53.567  0.00  0.00     0.023 C 
ENDROOT
BRANCH   5  11
ATOM     11  C   UNL d   1      51.481  34.150  52.928  0.00  0.00     0.004 A 
ATOM     12  C   UNL d   1      50.758  33.914  53.242  0.00  0.00     0.000 A 
ATOM     13  C   UNL d   1      50.111  33.779  52.736  0.00  0.00     0.000 A 
ATOM     14  C   UNL d   1      50.201  33.884  51.927  0.00  0.00     0.000 A 
ATOM     15  C   UNL d   1      50.933  34.123  51.614  0.00  0.00     0.000 A 
ATOM     16  C   UNL d   1      51.565  34.253  52.119  0.00  0.00     0.000 A 
ENDBRANCH   5  11
BRANCH   3  17
ATOM     17  N   UNL d   1      54.466  33.320  54.834  0.00  0.00    -0.289 N 
ATOM     18  C   UNL d   1      55.115  33.560  54.542  0.00  0.00     0.082 A 
ATOM     19  C   UNL d   1      55.701  33.676  55.009  0.00  0.00     0.021 A 
ATOM     20  C   UNL d   1      54.979  33.313  56.020  0.00  0.00     0.021 A 
ATOM     21  C   UNL d   1      54.393  33.197  55.553  0.00  0.00     0.082 A 
ENDBRANCH   3  17
BRANCH   9  22
ATOM     22  C   UNL d   1      52.892  31.512  53.170  0.00  0.00     0.018 C 
ATOM     23  C   UNL d   1      52.340  30.972  53.573  0.00  0.00     0.002 C 
ATOM     24  C   UNL d   1      53.304  31.264  52.451  0.00  0.00     0.002 C 
ENDBRANCH   9  22
TORSDOF 3
ENDMDL
MODEL 6
REMARK VINA RESULT:      -6.3      1.119      3.243
REMARK  3 active torsions:
REMARK  status: ('A' for Active; 'I' for Inactive)
REMARK    1  A    between atoms: N_10  and  C_3 
REMARK    2  A    between atoms: C_11  and  C_5 
REMARK    3  A    between atoms: C_12  and  C_9 
ROOT
ATOM      1  N   UNL d   1      53.135  33.846  54.061  0.00  0.00    -0.196 N 
ATOM      2  C   UNL d   1      52.895  33.131  53.700  0.00  0.00     0.167 A 
ATOM      3  C   UNL d   1      52.720  34.537  53.898  0.00  0.00     0.152 A 
ATOM      4  N   UNL d   1      54.194  33.151  54.732  0.00  0.00    -0.163 NA
ATOM      5  C   UNL d   1      53.301  32.443  53.855  0.00  0.00     0.055 A 
ATOM      6  N   UNL d   1      52.249  33.133  53.189  0.00  0.00    -0.227 NA
ATOM      7  C   UNL d   1      52.054  34.528  53.369  0.00  0.00     0.057 A 
ATOM      8  C   UNL d   1      53.954  32.437  54.371  0.00  0.00     0.104 A 
ATOM      9  C   UNL d   1      51.840  33.823  53.031  0.00  0.00     0.086 A 
ATOM     10  C   UNL d   1      54.357  31.750  54.524  0.00  0.00     0.023 C 
ENDROOT
BRANCH   5  11
ATOM     11  C   UNL d   1      53.058  31.720  53.490  0.00  0.00     0.004 A 
ATOM     12  C   UNL d   1      52.492  31.247  53.854  0.00  0.00     0.000 A 
ATOM     13  C   UNL d   1      52.253  30.536  53.495  0.00  0.00     0.000 A 
ATOM     14  C   UNL d   1      52.585  30.312  52.778  0.00  0.00     0.000 A 
ATOM     15  C   UNL d   1      53.157  30.794  52.414  0.00  0.00     0.000 A 
ATOM     16  C   UNL d   1      53.387  31.492  52.774  0.00  0.00     0.000 A 
ENDBRANCH   5  11
BRANCH   3  17
ATOM     17  N   UNL d   1      52.963  35.273  54.267  0.00  0.00    -0.289 N 
ATOM     18  C   UNL d   1      52.622  35.496  54.898  0.00  0.00     0.082 A 
ATOM     19  C   UNL d   1      52.842  36.147  55.217  0.00  0.00     0.021 A 
ATOM     20  C   UNL d   1      53.717  36.322  54.280  0.00  0.00     0.021 A 
ATOM     21  C   UNL d   1      53.496  35.670  53.961  0.00  0.00     0.082 A 
ENDBRANCH   3  17
BRANCH   9  22
ATOM     22  C   UNL d   1      51.159  33.820  52.492  0.00  0.00     0.018 C 
ATOM     23  C   UNL d   1      51.281  34.013  51.651  0.00  0.00     0.002 C 
ATOM     24  C   UNL d   1      50.370  33.626  52.788  0.00  0.00     0.002 C 
ENDBRANCH   9  22
TORSDOF 3
ENDMDL
MODEL 7
REMARK VINA RESULT:      -6.1      1.457      3.337
REMARK  3 active torsions:
REMARK  status: ('A' for Active; 'I' for Inactive)
REMARK    1  A    between atoms: N_10  and  C_3 
REMARK    2  A    between atoms: C_11  and  C_5 
REMARK    3  A    between atoms: C_12  and  C_9 
ROOT
ATOM      1  N   UNL d   1      52.463  32.315  53.230  0.00  0.00    -0.196 N 
ATOM      2  C   UNL d   1      52.943  31.720  53.569  0.00  0.00     0.167 A 
ATOM      3  C   UNL d   1      52.628  33.104  53.392  0.00  0.00     0.152 A 
ATOM      4  N   UNL d   1      51.676  31.310  52.580  0.00  0.00    -0.163 NA
ATOM      5  C   UNL d   1      52.787  30.937  53.413  0.00  0.00     0.055 A 
ATOM      6  N   UNL d   1      53.570  31.936  54.059  0.00  0.00    -0.227 NA
ATOM      7  C   UNL d   1      53.278  33.317  53.899  0.00  0.00     0.057 A 
ATOM      8  C   UNL d   1      52.155  30.715  52.919  0.00  0.00     0.104 A 
ATOM      9  C   UNL d   1      53.728  32.722  54.216  0.00  0.00     0.086 A 
ATOM     10  C   UNL d   1      52.001  29.934  52.766  0.00  0.00     0.023 C 
ENDROOT
BRANCH   5  11
ATOM     11  C   UNL d   1      53.271  30.335  53.757  0.00  0.00     0.004 A 
ATOM     12  C   UNL d   1      53.043  29.978  54.463  0.00  0.00     0.000 A 
ATOM     13  C   UNL d   1      53.520  29.386  54.801  0.00  0.00     0.000 A 
ATOM     14  C   UNL d   1      54.215  29.163  54.426  0.00  0.00     0.000 A 
ATOM     15  C   UNL d   1      54.442  29.526  53.712  0.00  0.00     0.000 A 
ATOM     16  C   UNL d   1      53.967  30.108  53.387  0.00  0.00     0.000 A 
ENDBRANCH   5  11
BRANCH   3  17
ATOM     17  N   UNL d   1      52.139  33.718  53.046  0.00  0.00    -0.289 N 
ATOM     18  C   UNL d   1      51.540  33.966  53.425  0.00  0.00     0.082 A 
ATOM     19  C   UNL d   1      51.113  34.509  53.113  0.00  0.00     0.021 A 
ATOM     20  C   UNL d   1      51.886  34.533  52.075  0.00  0.00     0.021 A 
ATOM     21  C   UNL d   1      52.313  33.990  52.388  0.00  0.00     0.082 A 
ENDBRANCH   3  17
BRANCH   9  22
ATOM     22  C   UNL d   1      54.390  32.944  54.734  0.00  0.00     0.018 C 
ATOM     23  C   UNL d   1      55.151  33.170  54.376  0.00  0.00     0.002 C 
ATOM     24  C   UNL d   1      54.292  32.939  55.593  0.00  0.00     0.002 C 
ENDBRANCH   9  22
TORSDOF 3
ENDMDL
