MODEL 1
REMARK VINA RESULT:      74.6      0.000      0.000
REMARK  6 active torsions:
REMARK  status: ('A' for Active; 'I' for Inactive)
REMARK    1  A    between atoms: C_4  and  N_1 
REMARK    2  A    between atoms: N_6  and  C_2 
REMARK    3  A    between atoms: S_10  and  C_7 
REMARK    4  A    between atoms: C_12  and  C_9 
REMARK    5  A    between atoms: C_11  and  S_10 
REMARK    6  A    between atoms: O_24  and  C_20 
ROOT
ATOM      1  N   UNL d   1     -48.659  29.280  34.522  0.00  0.00    -0.240 N 
ATOM      2  C   UNL d   1     -48.245  28.640  34.817  0.00  0.00     0.268 A 
ATOM      3  C   UNL d   1     -49.385  29.035  34.204  0.00  0.00     0.273 A 
ATOM      4  C   UNL d   1     -49.413  28.206  34.310  0.00  0.00     0.091 A 
ATOM      5  C   UNL d   1     -48.714  27.975  34.685  0.00  0.00     0.072 A 
ATOM      6  O   UNL d   1     -47.663  28.414  35.134  0.00  0.00    -0.267 OA
ATOM      7  O   UNL d   1     -49.973  29.489  33.850  0.00  0.00    -0.266 OA
ENDROOT
BRANCH   1   8
ATOM      8  C   UNL d   1     -48.383  30.065  34.542  0.00  0.00     0.092 A 
ATOM      9  C   UNL d   1     -47.859  30.263  35.138  0.00  0.00     0.145 A 
ATOM     10  C   UNL d   1     -47.569  31.042  35.178  0.00  0.00     0.049 A 
ATOM     11  C   UNL d   1     -47.812  31.600  34.622  0.00  0.00     0.096 A 
ATOM     12  C   UNL d   1     -48.357  31.386  34.007  0.00  0.00     0.026 A 
ATOM     13  C   UNL d   1     -48.635  30.611  33.979  0.00  0.00     0.021 A 
BRANCH   9  14
ATOM     14  N   UNL d   1     -47.623  29.695  35.689  0.00  0.00    -0.112 N 
ATOM     15  O   UNL d   1     -47.364  29.274  35.565  0.00  0.00    -0.532 OA
ATOM     16  O   UNL d   1     -47.780  29.745  36.499  0.00  0.00    -0.532 OA
ENDBRANCH   9  14
BRANCH  11  17
ATOM     17  O   UNL d   1     -47.511  32.369  34.682  0.00  0.00    -0.328 OA
ATOM     18  C   UNL d   1     -47.611  32.912  34.079  0.00  0.00     0.181 C 
ENDBRANCH  11  17
ENDBRANCH   1   8
BRANCH   4  19
ATOM     19  S   UNL d   1     -50.068  27.787  34.052  0.00  0.00    -0.082 SA
BRANCH  19  20
ATOM     20  C   UNL d   1     -49.977  26.990  33.799  0.00  0.00     0.035 A 
ATOM     21  C   UNL d   1     -50.628  26.522  33.675  0.00  0.00     0.070 A 
ATOM     22  C   UNL d   1     -50.546  25.748  33.429  0.00  0.00     0.007 A 
ATOM     23  C   UNL d   1     -49.779  25.442  33.306  0.00  0.00     0.000 A 
ATOM     24  C   UNL d   1     -49.110  25.914  33.430  0.00  0.00     0.001 A 
ATOM     25  C   UNL d   1     -49.234  26.697  33.681  0.00  0.00     0.007 A 
BRANCH  21  26
ATOM     26  C   UNL d   1     -51.392  26.809  33.792  0.00  0.00     0.211 C 
ATOM     27  O   UNL d   1     -51.716  27.382  33.306  0.00  0.00    -0.644 OA
ATOM     28  O   UNL d   1     -51.861  26.515  34.423  0.00  0.00    -0.644 OA
ENDBRANCH  21  26
ENDBRANCH  19  20
ENDBRANCH   4  19
TORSDOF 6
ENDMDL
MODEL 2
REMARK VINA RESULT:      75.9      0.992      1.240
REMARK  6 active torsions:
REMARK  status: ('A' for Active; 'I' for Inactive)
REMARK    1  A    between atoms: C_4  and  N_1 
REMARK    2  A    between atoms: N_6  and  C_2 
REMARK    3  A    between atoms: S_10  and  C_7 
REMARK    4  A    between atoms: C_12  and  C_9 
REMARK    5  A    between atoms: C_11  and  S_10 
REMARK    6  A    between atoms: O_24  and  C_20 
ROOT
ATOM      1  N   UNL d   1     -48.621  28.290  34.405  0.00  0.00    -0.240 N 
ATOM      2  C   UNL d   1     -48.281  27.548  34.374  0.00  0.00     0.268 A 
ATOM      3  C   UNL d   1     -49.403  28.264  34.129  0.00  0.00     0.273 A 
ATOM      4  C   UNL d   1     -49.544  27.468  33.918  0.00  0.00     0.091 A 
ATOM      5  C   UNL d   1     -48.855  27.038  34.071  0.00  0.00     0.072 A 
ATOM      6  O   UNL d   1     -47.711  27.158  34.493  0.00  0.00    -0.267 OA
ATOM      7  O   UNL d   1     -49.947  28.877  34.063  0.00  0.00    -0.266 OA
ENDROOT
BRANCH   1   8
ATOM      8  C   UNL d   1     -48.229  28.972  34.680  0.00  0.00     0.092 A 
ATOM      9  C   UNL d   1     -48.110  29.037  35.485  0.00  0.00     0.145 A 
ATOM     10  C   UNL d   1     -47.720  29.710  35.783  0.00  0.00     0.049 A 
ATOM     11  C   UNL d   1     -47.464  30.298  35.265  0.00  0.00     0.096 A 
ATOM     12  C   UNL d   1     -47.593  30.222  34.429  0.00  0.00     0.026 A 
ATOM     13  C   UNL d   1     -47.979  29.551  34.149  0.00  0.00     0.021 A 
BRANCH   9  14
ATOM     14  N   UNL d   1     -48.372  28.441  35.994  0.00  0.00    -0.112 N 
ATOM     15  O   UNL d   1     -48.317  27.944  35.896  0.00  0.00    -0.532 OA
ATOM     16  O   UNL d   1     -48.751  28.583  36.714  0.00  0.00    -0.532 OA
ENDBRANCH   9  14
BRANCH  11  17
ATOM     17  O   UNL d   1     -47.079  30.958  35.583  0.00  0.00    -0.328 OA
ATOM     18  C   UNL d   1     -47.364  31.715  35.461  0.00  0.00     0.181 C 
ENDBRANCH  11  17
ENDBRANCH   1   8
BRANCH   4  19
ATOM     19  S   UNL d   1     -50.276  27.251  33.620  0.00  0.00    -0.082 SA
BRANCH  19  20
ATOM     20  C   UNL d   1     -50.465  26.436  33.534  0.00  0.00     0.035 A 
ATOM     21  C   UNL d   1     -51.239  26.199  33.475  0.00  0.00     0.070 A 
ATOM     22  C   UNL d   1     -51.428  25.410  33.392  0.00  0.00     0.007 A 
ATOM     23  C   UNL d   1     -50.813  24.846  33.368  0.00  0.00     0.000 A 
ATOM     24  C   UNL d   1     -50.021  25.081  33.428  0.00  0.00     0.001 A 
ATOM     25  C   UNL d   1     -49.868  25.895  33.512  0.00  0.00     0.007 A 
BRANCH  21  26
ATOM     26  C   UNL d   1     -51.858  26.743  33.497  0.00  0.00     0.211 C 
ATOM     27  O   UNL d   1     -52.621  26.518  33.687  0.00  0.00    -0.644 OA
ATOM     28  O   UNL d   1     -51.716  27.551  33.322  0.00  0.00    -0.644 OA
ENDBRANCH  21  26
ENDBRANCH  19  20
ENDBRANCH   4  19
TORSDOF 6
ENDMDL
MODEL 3
REMARK VINA RESULT:      77.0      1.148      1.473
REMARK  6 active torsions:
REMARK  status: ('A' for Active; 'I' for Inactive)
REMARK    1  A    between atoms: C_4  and  N_1 
REMARK    2  A    between atoms: N_6  and  C_2 
REMARK    3  A    between atoms: S_10  and  C_7 
REMARK    4  A    between atoms: C_12  and  C_9 
REMARK    5  A    between atoms: C_11  and  S_10 
REMARK    6  A    between atoms: O_24  and  C_20 
ROOT
ATOM      1  N   UNL d   1     -48.794  28.691  34.874  0.00  0.00    -0.240 N 
ATOM      2  C   UNL d   1     -49.050  28.210  35.483  0.00  0.00     0.268 A 
ATOM      3  C   UNL d   1     -48.924  28.326  34.140  0.00  0.00     0.273 A 
ATOM      4  C   UNL d   1     -49.275  27.587  34.312  0.00  0.00     0.091 A 
ATOM      5  C   UNL d   1     -49.348  27.525  35.132  0.00  0.00     0.072 A 
ATOM      6  O   UNL d   1     -49.124  28.130  36.174  0.00  0.00    -0.267 OA
ATOM      7  O   UNL d   1     -48.753  28.607  33.386  0.00  0.00    -0.266 OA
ENDROOT
BRANCH   1   8
ATOM      8  C   UNL d   1     -48.452  29.443  34.983  0.00  0.00     0.092 A 
ATOM      9  C   UNL d   1     -47.663  29.468  35.194  0.00  0.00     0.145 A 
ATOM     10  C   UNL d   1     -47.299  30.208  35.309  0.00  0.00     0.049 A 
ATOM     11  C   UNL d   1     -47.736  30.900  35.210  0.00  0.00     0.096 A 
ATOM     12  C   UNL d   1     -48.556  30.864  34.991  0.00  0.00     0.026 A 
ATOM     13  C   UNL d   1     -48.902  30.125  34.880  0.00  0.00     0.021 A 
BRANCH   9  14
ATOM     14  N   UNL d   1     -47.236  28.767  35.291  0.00  0.00    -0.112 N 
ATOM     15  O   UNL d   1     -46.851  28.629  34.988  0.00  0.00    -0.532 OA
ATOM     16  O   UNL d   1     -47.385  28.215  35.887  0.00  0.00    -0.532 OA
ENDBRANCH   9  14
BRANCH  11  17
ATOM     17  O   UNL d   1     -47.354  31.624  35.330  0.00  0.00    -0.328 OA
ATOM     18  C   UNL d   1     -47.112  32.086  34.699  0.00  0.00     0.181 C 
ENDBRANCH  11  17
ENDBRANCH   1   8
BRANCH   4  19
ATOM     19  S   UNL d   1     -49.476  27.082  33.699  0.00  0.00    -0.082 SA
BRANCH  19  20
ATOM     20  C   UNL d   1     -50.284  26.892  33.566  0.00  0.00     0.035 A 
ATOM     21  C   UNL d   1     -50.515  26.119  33.482  0.00  0.00     0.070 A 
ATOM     22  C   UNL d   1     -51.298  25.928  33.352  0.00  0.00     0.007 A 
ATOM     23  C   UNL d   1     -51.862  26.542  33.307  0.00  0.00     0.000 A 
ATOM     24  C   UNL d   1     -51.633  27.334  33.391  0.00  0.00     0.001 A 
ATOM     25  C   UNL d   1     -50.826  27.488  33.522  0.00  0.00     0.007 A 
BRANCH  21  26
ATOM     26  C   UNL d   1     -49.971  25.501  33.524  0.00  0.00     0.211 C 
ATOM     27  O   UNL d   1     -49.189  25.600  33.306  0.00  0.00    -0.644 OA
ATOM     28  O   UNL d   1     -50.213  24.744  33.797  0.00  0.00    -0.644 OA
ENDBRANCH  21  26
ENDBRANCH  19  20
ENDBRANCH   4  19
TORSDOF 6
ENDMDL
