MODEL 1
REMARK VINA RESULT:     136.3      0.000      0.000
REMARK  5 active torsions:
REMARK  status: ('A' for Active; 'I' for Inactive)
REMARK    1  A    between atoms: N_5  and  S_1 
REMARK    2  A    between atoms: C_10  and  S_1 
REMARK    3  A    between atoms: C_2  and  N_6 
REMARK    4  A    between atoms: C_20  and  N_5 
REMARK    5  A    between atoms: C_7  and  C_14 
REMARK       I    between atoms: N_8  and  C_7 
ROOT
ATOM      1  C   UNL d   1      59.871  48.636  50.634  0.00  0.00     0.104 A 
ATOM      2  C   UNL d   1      61.200  47.904  50.036  0.00  0.00     0.057 A 
ATOM      3  C   UNL d   1      60.639  48.913  50.803  0.00  0.00     0.013 A 
ATOM      4  C   UNL d   1      59.781  47.985  50.159  0.00  0.00     0.013 A 
ATOM      5  C   UNL d   1      61.295  48.534  50.495  0.00  0.00     0.005 A 
ATOM      6  C   UNL d   1      60.442  47.613  49.856  0.00  0.00     0.005 A 
ENDROOT
BRANCH   2   7
ATOM      7  C   UNL d   1      61.870  47.531  49.731  0.00  0.00     0.265 C 
ATOM      8  N   UNL d   1      61.999  46.725  49.862  0.00  0.00    -0.269 N 
ATOM      9  C   UNL d   1      62.671  46.296  49.570  0.00  0.00     0.102 A 
ATOM     10  C   UNL d   1      61.458  46.292  50.297  0.00  0.00     0.102 A 
ATOM     11  C   UNL d   1      62.800  45.516  49.694  0.00  0.00     0.101 A 
ATOM     12  N   UNL d   1      62.242  45.100  50.135  0.00  0.00    -0.281 N 
ATOM     13  C   UNL d   1      61.588  45.439  50.439  0.00  0.00     0.101 A 
ATOM     14  O   UNL d   1      62.412  47.981  49.291  0.00  0.00    -0.267 OA
BRANCH  12  15
ATOM     15  C   UNL d   1      62.349  44.309  50.275  0.00  0.00     0.179 A 
ATOM     16  N   UNL d   1      62.707  43.738  49.754  0.00  0.00    -0.222 NA
ATOM     17  C   UNL d   1      62.672  43.024  50.169  0.00  0.00     0.089 A 
ATOM     18  C   UNL d   1      62.922  42.264  49.978  0.00  0.00     0.020 A 
ATOM     19  C   UNL d   1      62.312  43.191  50.887  0.00  0.00     0.050 A 
ATOM     20  C   UNL d   1      62.817  41.610  50.521  0.00  0.00     0.002 A 
ATOM     21  C   UNL d   1      62.443  41.798  51.258  0.00  0.00     0.001 A 
ATOM     22  C   UNL d   1      62.192  42.575  51.443  0.00  0.00     0.008 A 
ATOM     23  S   UNL d   1      62.123  43.987  50.925  0.00  0.00    -0.048 SA
ENDBRANCH  12  15
ENDBRANCH   2   7
BRANCH   1  24
ATOM     24  S   UNL d   1      59.217  49.035  50.957  0.00  0.00     0.271 S 
ATOM     25  O   UNL d   1      59.064  48.368  51.444  0.00  0.00    -0.200 OA
ATOM     26  O   UNL d   1      59.364  49.702  50.475  0.00  0.00    -0.200 OA
BRANCH  24  27
ATOM     27  N   UNL d   1      58.561  49.419  51.290  0.00  0.00    -0.229 N 
ATOM     28  C   UNL d   1      58.601  49.708  52.073  0.00  0.00     0.111 C 
BRANCH  27  29
ATOM     29  C   UNL d   1      57.872  49.514  50.849  0.00  0.00     0.075 A 
ATOM     30  C   UNL d   1      57.914  49.612  50.029  0.00  0.00     0.018 A 
ATOM     31  C   UNL d   1      57.226  49.707  49.588  0.00  0.00     0.002 A 
ATOM     32  C   UNL d   1      56.483  49.705  49.958  0.00  0.00     0.000 A 
ATOM     33  C   UNL d   1      56.454  49.605  50.783  0.00  0.00     0.002 A 
ATOM     34  C   UNL d   1      57.143  49.510  51.224  0.00  0.00     0.018 A 
ENDBRANCH  27  29
ENDBRANCH  24  27
ENDBRANCH   1  24
TORSDOF 5
ENDMDL
