MODEL 1
REMARK VINA RESULT:      81.4      0.000      0.000
REMARK  4 active torsions:
REMARK  status: ('A' for Active; 'I' for Inactive)
REMARK    1  A    between atoms: C_4  and  N_1 
REMARK    2  A    between atoms: C_8  and  C_2 
REMARK    3  A    between atoms: C_17  and  C_6 
REMARK    4  A    between atoms: C_7  and  C_8 
ROOT
ATOM      1  N   UNL d   1      14.123  14.983  -3.826  0.00  0.00    -0.255 N 
ATOM      2  C   UNL d   1      13.871  14.194  -2.783  0.00  0.00     0.101 A 
ATOM      3  C   UNL d   1      14.329  15.401  -3.134  0.00  0.00     0.305 A 
ATOM      4  C   UNL d   1      14.174  14.914  -2.491  0.00  0.00     0.256 A 
ATOM      5  C   UNL d   1      13.845  14.249  -3.601  0.00  0.00     0.075 A 
ATOM      6  O   UNL d   1      14.634  16.166  -3.099  0.00  0.00    -0.263 OA
ATOM      7  O   UNL d   1      14.296  15.106  -1.698  0.00  0.00    -0.281 OA
ENDROOT
BRANCH   2   8
ATOM      8  C   UNL d   1      13.641  13.545  -2.327  0.00  0.00     0.223 C 
ATOM      9  O   UNL d   1      12.876  13.261  -2.368  0.00  0.00    -0.284 OA
BRANCH   8  10
ATOM     10  C   UNL d   1      14.185  13.179  -1.826  0.00  0.00     0.139 A 
ATOM     11  O   UNL d   1      15.002  13.306  -1.823  0.00  0.00    -0.304 OA
ATOM     12  C   UNL d   1      15.325  12.829  -1.238  0.00  0.00     0.100 A 
ATOM     13  C   UNL d   1      16.103  12.723  -0.983  0.00  0.00     0.025 A 
ATOM     14  C   UNL d   1      14.721  12.408  -0.877  0.00  0.00     0.025 A 
ATOM     15  C   UNL d   1      16.269  12.205  -0.380  0.00  0.00     0.002 A 
ATOM     16  C   UNL d   1      15.655  11.781  -0.017  0.00  0.00     0.000 A 
ATOM     17  C   UNL d   1      14.886  11.884  -0.267  0.00  0.00     0.002 A 
ATOM     18  C   UNL d   1      14.015  12.624  -1.240  0.00  0.00     0.030 A 
ENDBRANCH   8  10
ENDBRANCH   2   8
BRANCH   5  19
ATOM     19  C   UNL d   1      13.578  13.649  -4.108  0.00  0.00     0.017 A 
ATOM     20  C   UNL d   1      13.036  13.824  -4.702  0.00  0.00     0.001 A 
ATOM     21  C   UNL d   1      12.770  13.227  -5.206  0.00  0.00     0.000 A 
ATOM     22  C   UNL d   1      13.050  12.456  -5.112  0.00  0.00     0.000 A 
ATOM     23  C   UNL d   1      13.597  12.281  -4.513  0.00  0.00     0.000 A 
ATOM     24  C   UNL d   1      12.786  11.854  -5.616  0.00  0.00     0.000 C 
ATOM     25  C   UNL d   1      13.859  12.887  -4.010  0.00  0.00     0.001 A 
ENDBRANCH   5  19
BRANCH   1  26
ATOM     26  C   UNL d   1      14.190  15.267  -4.603  0.00  0.00     0.179 A 
ATOM     27  N   UNL d   1      14.622  14.916  -5.202  0.00  0.00    -0.108 NA
ATOM     28  O   UNL d   1      14.535  15.384  -5.881  0.00  0.00    -0.210 OA
ATOM     29  C   UNL d   1      14.050  16.019  -5.693  0.00  0.00     0.128 A 
ATOM     30  C   UNL d   1      13.831  15.950  -4.891  0.00  0.00     0.067 A 
ATOM     31  C   UNL d   1      13.812  16.626  -6.197  0.00  0.00     0.029 C 
ENDBRANCH   1  26
TORSDOF 4
ENDMDL
