MODEL 1
REMARK VINA RESULT:      51.7      0.000      0.000
REMARK  6 active torsions:
REMARK  status: ('A' for Active; 'I' for Inactive)
REMARK    1  A    between atoms: C_3  and  C_1 
REMARK    2  A    between atoms: C_2  and  C_3 
REMARK    3  A    between atoms: C_4  and  C_2 
REMARK    4  A    between atoms: C_7  and  C_4 
REMARK    5  A    between atoms: O_17  and  C_5 
REMARK    6  A    between atoms: O_20  and  C_13 
ROOT
ATOM      1  C   UNL d   1     -50.916  26.024  33.849  0.00  0.00     0.042 C 
ENDROOT
BRANCH   1   2
ATOM      2  C   UNL d   1     -50.230  26.468  33.963  0.00  0.00     0.199 C 
ATOM      3  O   UNL d   1     -49.722  26.620  33.333  0.00  0.00    -0.286 OA
BRANCH   2   4
ATOM      4  C   UNL d   1     -50.053  26.762  34.716  0.00  0.00     0.079 A 
ATOM      5  C   UNL d   1     -49.281  27.001  34.896  0.00  0.00     0.199 A 
ATOM      6  C   UNL d   1     -49.105  27.295  35.651  0.00  0.00     0.043 A 
ATOM      7  O   UNL d   1     -48.682  26.949  34.328  0.00  0.00    -0.286 OA
ATOM      8  C   UNL d   1     -49.697  27.349  36.221  0.00  0.00     0.015 A 
ATOM      9  C   UNL d   1     -50.469  27.110  36.042  0.00  0.00     0.058 A 
ATOM     10  C   UNL d   1     -50.648  26.818  35.293  0.00  0.00     0.018 A 
ATOM     11 CL   UNL d   1     -51.061  27.164  36.612  0.00  0.00    -0.082 Cl
ENDBRANCH   2   4
ENDBRANCH   1   2
BRANCH   1  12
ATOM     12  C   UNL d   1     -50.878  25.320  33.424  0.00  0.00     0.005 C 
BRANCH  12  13
ATOM     13  C   UNL d   1     -51.531  24.820  33.399  0.00  0.00     0.022 A 
ATOM     14  C   UNL d   1     -51.426  23.999  33.344  0.00  0.00     0.096 A 
ATOM     15  C   UNL d   1     -52.079  23.499  33.319  0.00  0.00     0.048 A 
ATOM     16  C   UNL d   1     -52.840  23.812  33.349  0.00  0.00     0.096 A 
ATOM     17  C   UNL d   1     -52.946  24.635  33.404  0.00  0.00     0.024 A 
ATOM     18  C   UNL d   1     -52.289  25.133  33.429  0.00  0.00     0.004 A 
BRANCH  14  19
ATOM     19  O   UNL d   1     -50.671  23.688  33.314  0.00  0.00    -0.328 OA
ATOM     20  C   UNL d   1     -50.372  23.269  33.957  0.00  0.00     0.181 C 
ENDBRANCH  14  19
BRANCH  16  21
ATOM     21  O   UNL d   1     -53.498  23.324  33.325  0.00  0.00    -0.328 OA
ATOM     22  C   UNL d   1     -53.953  23.193  34.000  0.00  0.00     0.181 C 
ENDBRANCH  16  21
ENDBRANCH  12  13
ENDBRANCH   1  12
TORSDOF 6
ENDMDL
