MODEL 1
REMARK VINA RESULT:      -6.0      0.000      0.000
REMARK  3 active torsions:
REMARK  status: ('A' for Active; 'I' for Inactive)
REMARK       I    between atoms: C_2  and  N_1 
REMARK    1  A    between atoms: C_4  and  C_2 
REMARK    2  A    between atoms: C_6  and  C_4 
REMARK    3  A    between atoms: C_10  and  C_6 
ROOT
ATOM      1  N   UNL d   1      57.854  -0.293  30.454  0.00  0.00    -0.273 N 
ATOM      2  C   UNL d   1      57.422  -0.692  31.021  0.00  0.00     0.265 C 
ATOM      3  C   UNL d   1      58.251  -0.636  29.827  0.00  0.00     0.067 A 
ATOM      4  C   UNL d   1      57.964   0.521  30.416  0.00  0.00     0.083 A 
ATOM      5  C   UNL d   1      58.612  -0.036  29.393  0.00  0.00     0.018 A 
ATOM      6  O   UNL d   1      57.358  -1.512  30.992  0.00  0.00    -0.267 OA
ATOM      7  C   UNL d   1      58.437   0.682  29.754  0.00  0.00     0.021 A 
ATOM      8  C   UNL d   1      58.335  -1.425  29.588  0.00  0.00     0.018 A 
ATOM      9  C   UNL d   1      59.057  -0.220  28.720  0.00  0.00     0.002 A 
ATOM     10  C   UNL d   1      58.778  -1.604  28.918  0.00  0.00     0.002 A 
ATOM     11  C   UNL d   1      59.142  -1.003  28.481  0.00  0.00     0.000 A 
ENDROOT
BRANCH   2  12
ATOM     12  C   UNL d   1      57.048  -0.275  31.625  0.00  0.00     0.061 C 
BRANCH  12  13
ATOM     13  C   UNL d   1      56.627  -0.674  32.209  0.00  0.00     0.005 C 
BRANCH  13  14
ATOM     14  C   UNL d   1      56.297  -0.254  32.831  0.00  0.00     0.002 A 
ATOM     15  C   UNL d   1      55.486  -0.300  32.977  0.00  0.00     0.030 A 
ATOM     16  C   UNL d   1      55.149   0.123  33.604  0.00  0.00     0.140 A 
ATOM     17  F   UNL d   1      54.342   0.076  33.748  0.00  0.00    -0.204 F 
ATOM     18  C   UNL d   1      55.629   0.595  34.086  0.00  0.00     0.030 A 
ATOM     19  C   UNL d   1      56.443   0.640  33.938  0.00  0.00     0.002 A 
ATOM     20  C   UNL d   1      56.777   0.218  33.314  0.00  0.00     0.000 A 
ENDBRANCH  13  14
ENDBRANCH  12  13
ENDBRANCH   2  12
TORSDOF 3
ENDMDL
MODEL 2
REMARK VINA RESULT:      -5.6      1.962      4.599
REMARK  3 active torsions:
REMARK  status: ('A' for Active; 'I' for Inactive)
REMARK       I    between atoms: C_2  and  N_1 
REMARK    1  A    between atoms: C_4  and  C_2 
REMARK    2  A    between atoms: C_6  and  C_4 
REMARK    3  A    between atoms: C_10  and  C_6 
ROOT
ATOM      1  N   UNL d   1      57.031  -0.278  31.756  0.00  0.00    -0.273 N 
ATOM      2  C   UNL d   1      57.414  -0.671  31.150  0.00  0.00     0.265 C 
ATOM      3  C   UNL d   1      56.509  -0.613  32.286  0.00  0.00     0.067 A 
ATOM      4  C   UNL d   1      57.107   0.522  31.934  0.00  0.00     0.083 A 
ATOM      5  C   UNL d   1      56.253  -0.022  32.801  0.00  0.00     0.018 A 
ATOM      6  O   UNL d   1      57.288  -1.476  31.033  0.00  0.00    -0.267 OA
ATOM      7  C   UNL d   1      56.620   0.681  32.587  0.00  0.00     0.021 A 
ATOM      8  C   UNL d   1      56.225  -1.386  32.373  0.00  0.00     0.018 A 
ATOM      9  C   UNL d   1      55.714  -0.201  33.404  0.00  0.00     0.002 A 
ATOM     10  C   UNL d   1      55.690  -1.560  32.974  0.00  0.00     0.002 A 
ATOM     11  C   UNL d   1      55.432  -0.970  33.492  0.00  0.00     0.000 A 
ENDROOT
BRANCH   2  12
ATOM     12  C   UNL d   1      57.930  -0.263  30.653  0.00  0.00     0.061 C 
BRANCH  12  13
ATOM     13  C   UNL d   1      58.200  -0.610  29.957  0.00  0.00     0.005 C 
BRANCH  13  14
ATOM     14  C   UNL d   1      58.768  -0.226  29.506  0.00  0.00     0.002 A 
ATOM     15  C   UNL d   1      59.569  -0.360  29.650  0.00  0.00     0.030 A 
ATOM     16  C   UNL d   1      60.146   0.025  29.197  0.00  0.00     0.140 A 
ATOM     17  F   UNL d   1      60.943  -0.109  29.341  0.00  0.00    -0.204 F 
ATOM     18  C   UNL d   1      59.915   0.548  28.597  0.00  0.00     0.030 A 
ATOM     19  C   UNL d   1      59.111   0.682  28.455  0.00  0.00     0.002 A 
ATOM     20  C   UNL d   1      58.538   0.297  28.907  0.00  0.00     0.000 A 
ENDBRANCH  13  14
ENDBRANCH  12  13
ENDBRANCH   2  12
TORSDOF 3
ENDMDL
MODEL 3
REMARK VINA RESULT:      -5.3      1.350      1.681
REMARK  3 active torsions:
REMARK  status: ('A' for Active; 'I' for Inactive)
REMARK       I    between atoms: C_2  and  N_1 
REMARK    1  A    between atoms: C_4  and  C_2 
REMARK    2  A    between atoms: C_6  and  C_4 
REMARK    3  A    between atoms: C_10  and  C_6 
ROOT
ATOM      1  N   UNL d   1      58.969   0.412  30.474  0.00  0.00    -0.273 N 
ATOM      2  C   UNL d   1      58.165   0.267  30.481  0.00  0.00     0.265 C 
ATOM      3  C   UNL d   1      59.445   0.421  29.810  0.00  0.00     0.067 A 
ATOM      4  C   UNL d   1      59.435   0.572  31.132  0.00  0.00     0.083 A 
ATOM      5  C   UNL d   1      60.216   0.588  30.052  0.00  0.00     0.018 A 
ATOM      6  O   UNL d   1      57.764   0.114  29.778  0.00  0.00    -0.267 OA
ATOM      7  C   UNL d   1      60.214   0.682  30.868  0.00  0.00     0.021 A 
ATOM      8  C   UNL d   1      59.282   0.300  29.007  0.00  0.00     0.018 A 
ATOM      9  C   UNL d   1      60.825   0.634  29.493  0.00  0.00     0.002 A 
ATOM     10  C   UNL d   1      59.891   0.346  28.455  0.00  0.00     0.002 A 
ATOM     11  C   UNL d   1      60.665   0.513  28.694  0.00  0.00     0.000 A 
ENDROOT
BRANCH   2  12
ATOM     12  C   UNL d   1      57.749   0.274  31.193  0.00  0.00     0.061 C 
BRANCH  12  13
ATOM     13  C   UNL d   1      56.960   0.044  31.218  0.00  0.00     0.005 C 
BRANCH  13  14
ATOM     14  C   UNL d   1      56.594  -0.077  31.942  0.00  0.00     0.002 A 
ATOM     15  C   UNL d   1      56.433  -0.844  32.201  0.00  0.00     0.030 A 
ATOM     16  C   UNL d   1      56.065  -0.970  32.932  0.00  0.00     0.140 A 
ATOM     17  F   UNL d   1      55.905  -1.734  33.187  0.00  0.00    -0.204 F 
ATOM     18  C   UNL d   1      55.858  -0.323  33.405  0.00  0.00     0.030 A 
ATOM     19  C   UNL d   1      56.020   0.446  33.143  0.00  0.00     0.002 A 
ATOM     20  C   UNL d   1      56.387   0.570  32.415  0.00  0.00     0.000 A 
ENDBRANCH  13  14
ENDBRANCH  12  13
ENDBRANCH   2  12
TORSDOF 3
ENDMDL
MODEL 4
REMARK VINA RESULT:      -4.6      1.834      4.669
REMARK  3 active torsions:
REMARK  status: ('A' for Active; 'I' for Inactive)
REMARK       I    between atoms: C_2  and  N_1 
REMARK    1  A    between atoms: C_4  and  C_2 
REMARK    2  A    between atoms: C_6  and  C_4 
REMARK    3  A    between atoms: C_10  and  C_6 
ROOT
ATOM      1  N   UNL d   1      56.981   0.255  32.589  0.00  0.00    -0.273 N 
ATOM      2  C   UNL d   1      56.967   0.042  31.801  0.00  0.00     0.265 C 
ATOM      3  C   UNL d   1      56.345   0.233  33.101  0.00  0.00     0.067 A 
ATOM      4  C   UNL d   1      57.638   0.528  33.002  0.00  0.00     0.083 A 
ATOM      5  C   UNL d   1      56.602   0.493  33.840  0.00  0.00     0.018 A 
ATOM      6  O   UNL d   1      56.268  -0.224  31.456  0.00  0.00    -0.267 OA
ATOM      7  C   UNL d   1      57.401   0.677  33.783  0.00  0.00     0.021 A 
ATOM      8  C   UNL d   1      55.555   0.008  32.995  0.00  0.00     0.018 A 
ATOM      9  C   UNL d   1      56.071   0.530  34.475  0.00  0.00     0.002 A 
ATOM     10  C   UNL d   1      55.030   0.047  33.629  0.00  0.00     0.002 A 
ATOM     11  C   UNL d   1      55.285   0.307  34.371  0.00  0.00     0.000 A 
ENDROOT
BRANCH   2  12
ATOM     12  C   UNL d   1      57.653   0.091  31.346  0.00  0.00     0.061 C 
BRANCH  12  13
ATOM     13  C   UNL d   1      57.612   0.061  30.525  0.00  0.00     0.005 C 
BRANCH  13  14
ATOM     14  C   UNL d   1      58.303   0.018  30.085  0.00  0.00     0.002 A 
ATOM     15  C   UNL d   1      58.509  -0.685  29.706  0.00  0.00     0.030 A 
ATOM     16  C   UNL d   1      59.206  -0.732  29.262  0.00  0.00     0.140 A 
ATOM     17  F   UNL d   1      59.409  -1.433  28.885  0.00  0.00    -0.204 F 
ATOM     18  C   UNL d   1      59.698  -0.070  29.197  0.00  0.00     0.030 A 
ATOM     19  C   UNL d   1      59.490   0.636  29.578  0.00  0.00     0.002 A 
ATOM     20  C   UNL d   1      58.795   0.681  30.021  0.00  0.00     0.000 A 
ENDBRANCH  13  14
ENDBRANCH  12  13
ENDBRANCH   2  12
TORSDOF 3
ENDMDL
