MODEL 1
REMARK VINA RESULT:      -4.8      0.000      0.000
REMARK  4 active torsions:
REMARK  status: ('A' for Active; 'I' for Inactive)
REMARK    1  A    between atoms: N_2  and  C_1 
REMARK       I    between atoms: C_3  and  N_2 
REMARK    2  A    between atoms: C_6  and  C_3 
REMARK    3  A    between atoms: C_11  and  C_7 
REMARK    4  A    between atoms: C_8  and  C_11 
ROOT
ATOM      1  C   UNL d   1      57.677   0.209  30.928  0.00  0.00     0.197 A 
ATOM      2  N   UNL d   1      58.295   0.682  31.136  0.00  0.00    -0.219 NA
ATOM      3  S   UNL d   1      57.833  -0.103  30.172  0.00  0.00    -0.047 SA
ATOM      4  C   UNL d   1      58.554   0.190  29.930  0.00  0.00     0.051 A 
ATOM      5  C   UNL d   1      58.855   0.682  30.523  0.00  0.00     0.108 A 
ENDROOT
BRANCH   4   6
ATOM      6  C   UNL d   1      59.006   0.096  29.258  0.00  0.00     0.009 C 
BRANCH   6   7
ATOM      7  C   UNL d   1      59.369  -0.652  29.115  0.00  0.00     0.012 A 
ATOM      8  C   UNL d   1      60.155  -0.689  28.884  0.00  0.00     0.058 A 
ATOM      9  C   UNL d   1      60.521  -1.438  28.740  0.00  0.00     0.012 A 
ATOM     10 CL   UNL d   1      60.601   0.006  28.788  0.00  0.00    -0.082 Cl
ATOM     11  C   UNL d   1      60.100  -2.122  28.829  0.00  0.00     0.012 A 
ATOM     12  C   UNL d   1      59.301  -2.100  29.063  0.00  0.00     0.058 A 
ATOM     13  C   UNL d   1      58.943  -1.353  29.205  0.00  0.00     0.012 A 
ATOM     14 CL   UNL d   1      58.889  -2.833  29.147  0.00  0.00    -0.082 Cl
ENDBRANCH   6   7
ENDBRANCH   4   6
BRANCH   1  15
ATOM     15  N   UNL d   1      56.995   0.061  31.397  0.00  0.00    -0.182 NA
ATOM     16  C   UNL d   1      57.021   0.111  32.213  0.00  0.00     0.287 C 
ATOM     17  O   UNL d   1      57.724   0.309  32.570  0.00  0.00    -0.265 OA
BRANCH  16  18
ATOM     18  C   UNL d   1      56.363  -0.033  32.653  0.00  0.00     0.087 A 
ATOM     19  S   UNL d   1      55.983  -0.734  32.865  0.00  0.00    -0.082 SA
ATOM     20  C   UNL d   1      55.328  -0.522  33.328  0.00  0.00     0.036 A 
ATOM     21  C   UNL d   1      55.310   0.251  33.394  0.00  0.00     0.008 A 
ATOM     22  C   UNL d   1      55.956   0.578  32.975  0.00  0.00     0.012 A 
ENDBRANCH  16  18
ENDBRANCH   1  15
TORSDOF 4
ENDMDL
MODEL 2
REMARK VINA RESULT:      -4.2      2.412      5.210
REMARK  4 active torsions:
REMARK  status: ('A' for Active; 'I' for Inactive)
REMARK    1  A    between atoms: N_2  and  C_1 
REMARK       I    between atoms: C_3  and  N_2 
REMARK    2  A    between atoms: C_6  and  C_3 
REMARK    3  A    between atoms: C_11  and  C_7 
REMARK    4  A    between atoms: C_8  and  C_11 
ROOT
ATOM      1  C   UNL d   1      57.345  -0.410  31.387  0.00  0.00     0.197 A 
ATOM      2  N   UNL d   1      56.948  -1.063  31.641  0.00  0.00    -0.219 NA
ATOM      3  S   UNL d   1      56.977   0.261  31.717  0.00  0.00    -0.047 SA
ATOM      4  C   UNL d   1      56.353  -0.001  32.172  0.00  0.00     0.051 A 
ATOM      5  C   UNL d   1      56.323  -0.827  32.134  0.00  0.00     0.108 A 
ENDROOT
BRANCH   4   6
ATOM      6  C   UNL d   1      55.790   0.373  32.628  0.00  0.00     0.009 C 
BRANCH   6   7
ATOM      7  C   UNL d   1      55.939   0.477  33.451  0.00  0.00     0.012 A 
ATOM      8  C   UNL d   1      55.312   0.530  33.977  0.00  0.00     0.058 A 
ATOM      9  C   UNL d   1      55.458   0.634  34.804  0.00  0.00     0.012 A 
ATOM     10 CL   UNL d   1      54.527   0.483  33.707  0.00  0.00    -0.082 Cl
ATOM     11  C   UNL d   1      56.216   0.682  35.082  0.00  0.00     0.012 A 
ATOM     12  C   UNL d   1      56.863   0.629  34.559  0.00  0.00     0.058 A 
ATOM     13  C   UNL d   1      56.710   0.525  33.739  0.00  0.00     0.012 A 
ATOM     14 CL   UNL d   1      57.642   0.682  34.881  0.00  0.00    -0.082 Cl
ENDBRANCH   6   7
ENDBRANCH   4   6
BRANCH   1  15
ATOM     15  N   UNL d   1      58.014  -0.411  30.878  0.00  0.00    -0.182 NA
ATOM     16  C   UNL d   1      58.006  -0.012  30.164  0.00  0.00     0.287 C 
ATOM     17  O   UNL d   1      57.333   0.391  29.950  0.00  0.00    -0.265 OA
BRANCH  16  18
ATOM     18  C   UNL d   1      58.651  -0.018  29.684  0.00  0.00     0.087 A 
ATOM     19  S   UNL d   1      59.333   0.446  29.669  0.00  0.00    -0.082 SA
ATOM     20  C   UNL d   1      59.798   0.170  29.040  0.00  0.00     0.036 A 
ATOM     21  C   UNL d   1      59.426  -0.418  28.696  0.00  0.00     0.008 A 
ATOM     22  C   UNL d   1      58.700  -0.553  29.088  0.00  0.00     0.012 A 
ENDBRANCH  16  18
ENDBRANCH   1  15
TORSDOF 4
ENDMDL
