MODEL 1
REMARK VINA RESULT:      28.6      0.000      0.000
REMARK  3 active torsions:
REMARK  status: ('A' for Active; 'I' for Inactive)
REMARK    1  A    between atoms: N_5  and  C_1 
REMARK    2  A    between atoms: C_7  and  N_2 
REMARK    3  A    between atoms: C_9  and  C_7 
ROOT
ATOM      1  C   UNL d   1      46.077 -17.631  44.270  0.00  0.00     0.720 A 
ATOM      2  N   UNL d   1      46.348 -18.045  43.606  0.00  0.00    -0.139 N 
ATOM      3  N   UNL d   1      45.970 -18.177  44.880  0.00  0.00    -0.060 NA
ATOM      4  C   UNL d   1      46.406 -18.845  43.811  0.00  0.00     0.100 A 
ATOM      5  C   UNL d   1      46.173 -18.926  44.597  0.00  0.00     0.116 A 
ATOM      6  C   UNL d   1      46.644 -19.505  43.373  0.00  0.00     0.020 A 
ATOM      7  C   UNL d   1      46.175 -19.668  44.953  0.00  0.00     0.021 A 
ATOM      8  C   UNL d   1      46.646 -20.246  43.729  0.00  0.00     0.002 A 
ATOM      9  C   UNL d   1      46.412 -20.327  44.515  0.00  0.00     0.002 A 
ENDROOT
BRANCH   2  10
ATOM     10  C   UNL d   1      46.527 -17.713  42.868  0.00  0.00     0.098 C 
BRANCH  10  11
ATOM     11  C   UNL d   1      46.178 -18.026  42.186  0.00  0.00     0.018 A 
ATOM     12  C   UNL d   1      46.647 -18.320  41.584  0.00  0.00     0.002 A 
ATOM     13  C   UNL d   1      46.296 -18.631  40.905  0.00  0.00     0.000 A 
ATOM     14  C   UNL d   1      45.473 -18.644  40.835  0.00  0.00     0.000 A 
ATOM     15  C   UNL d   1      45.006 -18.343  41.451  0.00  0.00     0.000 A 
ATOM     16  C   UNL d   1      45.359 -18.034  42.126  0.00  0.00     0.002 A 
ENDBRANCH  10  11
ENDBRANCH   2  10
BRANCH   1  17
ATOM     17  N   UNL d   1      45.942 -16.819  44.306  0.00  0.00    -0.136 N 
ATOM     18  C   UNL d   1      46.490 -16.289  43.989  0.00  0.00     0.119 A 
ATOM     19  C   UNL d   1      46.349 -15.482  44.028  0.00  0.00     0.119 A 
ATOM     20  N   UNL d   1      45.661 -15.197  44.382  0.00  0.00    -0.239 NA
ATOM     21  C   UNL d   1      45.113 -15.727  44.698  0.00  0.00     0.119 A 
ATOM     22  C   UNL d   1      45.248 -16.544  44.663  0.00  0.00     0.119 A 
ENDBRANCH   1  17
TORSDOF 3
ENDMDL
