MODEL 1
REMARK VINA RESULT:      -3.4      0.000      0.000
REMARK  6 active torsions:
REMARK  status: ('A' for Active; 'I' for Inactive)
REMARK    1  A    between atoms: C_3  and  N_1 
REMARK    2  A    between atoms: C_2  and  N_5 
REMARK    3  A    between atoms: N_6  and  C_2 
REMARK    4  A    between atoms: N_5  and  N_9 
REMARK    5  A    between atoms: C_13  and  N_6 
REMARK    6  A    between atoms: N_9  and  C_12 
ROOT
ATOM      1  N   UNL d   1      32.624  19.081 -22.715  0.00  0.00    -0.276 N 
ATOM      2  H   UNL d   1      31.873  19.390 -22.858  0.00  0.00     0.189 HD
ENDROOT
BRANCH   1   3
ATOM      3  C   UNL d   1      32.831  18.347 -23.057  0.00  0.00     0.191 C 
ATOM      4  S   UNL d   1      33.240  17.791 -22.596  0.00  0.00    -0.039 SA
BRANCH   3   5
ATOM      5  N   UNL d   1      32.639  18.161 -23.837  0.00  0.00    -0.331 N 
ATOM      6  H   UNL d   1      33.153  18.406 -24.434  0.00  0.00     0.168 HD
BRANCH   5   7
ATOM      7  C   UNL d   1      31.952  17.742 -24.023  0.00  0.00     0.058 A 
ATOM      8  C   UNL d   1      31.402  18.076 -24.548  0.00  0.00     0.017 A 
ATOM      9  C   UNL d   1      30.722  17.667 -24.734  0.00  0.00     0.002 A 
ATOM     10  C   UNL d   1      30.571  16.923 -24.409  0.00  0.00     0.000 A 
ATOM     11  C   UNL d   1      31.120  16.590 -23.884  0.00  0.00     0.002 A 
ATOM     12  C   UNL d   1      31.807  17.009 -23.699  0.00  0.00     0.017 A 
ENDBRANCH   5   7
ENDBRANCH   3   5
ENDBRANCH   1   3
BRANCH   1  13
ATOM     13  N   UNL d   1      33.148  19.495 -22.248  0.00  0.00    -0.297 N 
ATOM     14  H   UNL d   1      33.869  19.132 -22.008  0.00  0.00     0.187 HD
BRANCH  13  15
ATOM     15  C   UNL d   1      32.988  20.280 -21.995  0.00  0.00     0.072 A 
ATOM     16  C   UNL d   1      32.564  20.394 -21.297  0.00  0.00     0.020 A 
ATOM     17  C   UNL d   1      32.393  21.147 -21.026  0.00  0.00     0.025 A 
ATOM     18  C   UNL d   1      32.655  21.796 -21.470  0.00  0.00     0.127 A 
ATOM     19  C   UNL d   1      33.079  21.683 -22.168  0.00  0.00     0.025 A 
ATOM     20  C   UNL d   1      33.241  20.920 -22.423  0.00  0.00     0.020 A 
BRANCH  18  21
ATOM     21  N   UNL d   1      32.478  22.593 -21.189  0.00  0.00    -0.114 N 
ATOM     22  O   UNL d   1      33.098  23.098 -20.988  0.00  0.00    -0.532 OA
ATOM     23  O   UNL d   1      31.693  22.820 -21.131  0.00  0.00    -0.532 OA
ENDBRANCH  18  21
ENDBRANCH  13  15
ENDBRANCH   1  13
TORSDOF 6
ENDMDL
MODEL 2
REMARK VINA RESULT:      -2.8      2.703      5.054
REMARK  6 active torsions:
REMARK  status: ('A' for Active; 'I' for Inactive)
REMARK    1  A    between atoms: C_3  and  N_1 
REMARK    2  A    between atoms: C_2  and  N_5 
REMARK    3  A    between atoms: N_6  and  C_2 
REMARK    4  A    between atoms: N_5  and  N_9 
REMARK    5  A    between atoms: C_13  and  N_6 
REMARK    6  A    between atoms: N_9  and  C_12 
ROOT
ATOM      1  N   UNL d   1      32.592  19.348 -22.799  0.00  0.00    -0.276 N 
ATOM      2  H   UNL d   1      32.005  19.126 -22.264  0.00  0.00     0.189 HD
ENDROOT
BRANCH   1   3
ATOM      3  C   UNL d   1      33.016  20.056 -22.663  0.00  0.00     0.191 C 
ATOM      4  S   UNL d   1      33.241  20.519 -23.314  0.00  0.00    -0.039 SA
BRANCH   3   5
ATOM      5  N   UNL d   1      33.214  20.305 -21.902  0.00  0.00    -0.331 N 
ATOM      6  H   UNL d   1      33.758  19.855 -21.475  0.00  0.00     0.168 HD
BRANCH   5   7
ATOM      7  C   UNL d   1      32.880  20.984 -21.572  0.00  0.00     0.058 A 
ATOM      8  C   UNL d   1      32.279  20.906 -21.005  0.00  0.00     0.017 A 
ATOM      9  C   UNL d   1      31.946  21.573 -20.675  0.00  0.00     0.002 A 
ATOM     10  C   UNL d   1      32.198  22.328 -20.896  0.00  0.00     0.000 A 
ATOM     11  C   UNL d   1      32.799  22.405 -21.463  0.00  0.00     0.002 A 
ATOM     12  C   UNL d   1      33.133  21.726 -21.794  0.00  0.00     0.017 A 
ENDBRANCH   5   7
ENDBRANCH   3   5
ENDBRANCH   1   3
BRANCH   1  13
ATOM     13  N   UNL d   1      32.749  18.876 -23.445  0.00  0.00    -0.297 N 
ATOM     14  H   UNL d   1      33.254  19.161 -24.056  0.00  0.00     0.187 HD
BRANCH  13  15
ATOM     15  C   UNL d   1      32.419  18.107 -23.519  0.00  0.00     0.072 A 
ATOM     16  C   UNL d   1      31.697  18.022 -23.909  0.00  0.00     0.020 A 
ATOM     17  C   UNL d   1      31.350  17.286 -23.997  0.00  0.00     0.025 A 
ATOM     18  C   UNL d   1      31.740  16.625 -23.685  0.00  0.00     0.127 A 
ATOM     19  C   UNL d   1      32.462  16.710 -23.295  0.00  0.00     0.025 A 
ATOM     20  C   UNL d   1      32.794  17.456 -23.217  0.00  0.00     0.020 A 
BRANCH  18  21
ATOM     21  N   UNL d   1      31.379  15.846 -23.775  0.00  0.00    -0.114 N 
ATOM     22  O   UNL d   1      30.960  15.520 -23.143  0.00  0.00    -0.532 OA
ATOM     23  O   UNL d   1      31.466  15.456 -24.489  0.00  0.00    -0.532 OA
ENDBRANCH  18  21
ENDBRANCH  13  15
ENDBRANCH   1  13
TORSDOF 6
ENDMDL
MODEL 3
REMARK VINA RESULT:      -2.8      3.088      5.168
REMARK  6 active torsions:
REMARK  status: ('A' for Active; 'I' for Inactive)
REMARK    1  A    between atoms: C_3  and  N_1 
REMARK    2  A    between atoms: C_2  and  N_5 
REMARK    3  A    between atoms: N_6  and  C_2 
REMARK    4  A    between atoms: N_5  and  N_9 
REMARK    5  A    between atoms: C_13  and  N_6 
REMARK    6  A    between atoms: N_9  and  C_12 
ROOT
ATOM      1  N   UNL d   1      31.786  18.142 -24.177  0.00  0.00    -0.276 N 
ATOM      2  H   UNL d   1      31.342  18.413 -23.536  0.00  0.00     0.189 HD
ENDROOT
BRANCH   1   3
ATOM      3  C   UNL d   1      32.532  18.489 -24.327  0.00  0.00     0.191 C 
ATOM      4  S   UNL d   1      32.678  18.819 -25.074  0.00  0.00    -0.039 SA
BRANCH   3   5
ATOM      5  N   UNL d   1      33.124  18.510 -23.753  0.00  0.00    -0.331 N 
ATOM      6  H   UNL d   1      33.696  17.915 -23.761  0.00  0.00     0.168 HD
BRANCH   5   7
ATOM      7  C   UNL d   1      33.149  19.107 -23.184  0.00  0.00     0.058 A 
ATOM      8  C   UNL d   1      33.108  18.904 -22.380  0.00  0.00     0.017 A 
ATOM      9  C   UNL d   1      33.133  19.490 -21.814  0.00  0.00     0.002 A 
ATOM     10  C   UNL d   1      33.198  20.285 -22.027  0.00  0.00     0.000 A 
ATOM     11  C   UNL d   1      33.239  20.488 -22.830  0.00  0.00     0.002 A 
ATOM     12  C   UNL d   1      33.214  19.891 -23.400  0.00  0.00     0.017 A 
ENDBRANCH   5   7
ENDBRANCH   3   5
ENDBRANCH   1   3
BRANCH   1  13
ATOM     13  N   UNL d   1      31.492  17.547 -24.650  0.00  0.00    -0.297 N 
ATOM     14  H   UNL d   1      31.880  17.357 -25.372  0.00  0.00     0.187 HD
BRANCH  13  15
ATOM     15  C   UNL d   1      30.805  17.113 -24.434  0.00  0.00     0.072 A 
ATOM     16  C   UNL d   1      30.065  17.455 -24.556  0.00  0.00     0.020 A 
ATOM     17  C   UNL d   1      29.378  17.056 -24.356  0.00  0.00     0.025 A 
ATOM     18  C   UNL d   1      29.442  16.299 -24.026  0.00  0.00     0.127 A 
ATOM     19  C   UNL d   1      30.183  15.956 -23.904  0.00  0.00     0.025 A 
ATOM     20  C   UNL d   1      30.859  16.372 -24.111  0.00  0.00     0.020 A 
BRANCH  18  21
ATOM     21  N   UNL d   1      28.722  15.874 -23.813  0.00  0.00    -0.114 N 
ATOM     22  O   UNL d   1      28.495  15.835 -23.021  0.00  0.00    -0.532 OA
ATOM     23  O   UNL d   1      28.286  15.522 -24.410  0.00  0.00    -0.532 OA
ENDBRANCH  18  21
ENDBRANCH  13  15
ENDBRANCH   1  13
TORSDOF 6
ENDMDL
MODEL 4
REMARK VINA RESULT:      -2.5      1.333      1.887
REMARK  6 active torsions:
REMARK  status: ('A' for Active; 'I' for Inactive)
REMARK    1  A    between atoms: C_3  and  N_1 
REMARK    2  A    between atoms: C_2  and  N_5 
REMARK    3  A    between atoms: N_6  and  C_2 
REMARK    4  A    between atoms: N_5  and  N_9 
REMARK    5  A    between atoms: C_13  and  N_6 
REMARK    6  A    between atoms: N_9  and  C_12 
ROOT
ATOM      1  N   UNL d   1      32.355  17.591 -23.466  0.00  0.00    -0.276 N 
ATOM      2  H   UNL d   1      31.751  17.746 -22.926  0.00  0.00     0.189 HD
ENDROOT
BRANCH   1   3
ATOM      3  C   UNL d   1      32.270  16.948 -23.993  0.00  0.00     0.191 C 
ATOM      4  S   UNL d   1      32.819  16.325 -23.958  0.00  0.00    -0.039 SA
BRANCH   3   5
ATOM      5  N   UNL d   1      31.658  16.916 -24.545  0.00  0.00    -0.331 N 
ATOM      6  H   UNL d   1      31.817  17.161 -25.317  0.00  0.00     0.168 HD
BRANCH   5   7
ATOM      7  C   UNL d   1      30.906  16.648 -24.337  0.00  0.00     0.058 A 
ATOM      8  C   UNL d   1      30.240  17.092 -24.559  0.00  0.00     0.017 A 
ATOM      9  C   UNL d   1      29.495  16.832 -24.356  0.00  0.00     0.002 A 
ATOM     10  C   UNL d   1      29.390  16.132 -23.932  0.00  0.00     0.000 A 
ATOM     11  C   UNL d   1      30.055  15.688 -23.709  0.00  0.00     0.002 A 
ATOM     12  C   UNL d   1      30.808  15.956 -23.918  0.00  0.00     0.017 A 
ENDBRANCH   5   7
ENDBRANCH   3   5
ENDBRANCH   1   3
BRANCH   1  13
ATOM     13  N   UNL d   1      33.019  18.064 -23.477  0.00  0.00    -0.297 N 
ATOM     14  H   UNL d   1      33.674  17.853 -23.962  0.00  0.00     0.187 HD
BRANCH  13  15
ATOM     15  C   UNL d   1      33.069  18.763 -23.013  0.00  0.00     0.072 A 
ATOM     16  C   UNL d   1      33.017  19.494 -23.391  0.00  0.00     0.020 A 
ATOM     17  C   UNL d   1      33.062  20.192 -22.965  0.00  0.00     0.025 A 
ATOM     18  C   UNL d   1      33.161  20.149 -22.143  0.00  0.00     0.127 A 
ATOM     19  C   UNL d   1      33.212  19.417 -21.765  0.00  0.00     0.025 A 
ATOM     20  C   UNL d   1      33.165  18.729 -22.209  0.00  0.00     0.020 A 
BRANCH  18  21
ATOM     21  N   UNL d   1      33.209  20.882 -21.690  0.00  0.00    -0.114 N 
ATOM     22  O   UNL d   1      33.241  21.603 -22.089  0.00  0.00    -0.532 OA
ATOM     23  O   UNL d   1      33.222  20.835 -20.873  0.00  0.00    -0.532 OA
ENDBRANCH  18  21
ENDBRANCH  13  15
ENDBRANCH   1  13
TORSDOF 6
ENDMDL
MODEL 5
REMARK VINA RESULT:      -0.7      1.278      1.823
REMARK  6 active torsions:
REMARK  status: ('A' for Active; 'I' for Inactive)
REMARK    1  A    between atoms: C_3  and  N_1 
REMARK    2  A    between atoms: C_2  and  N_5 
REMARK    3  A    between atoms: N_6  and  C_2 
REMARK    4  A    between atoms: N_5  and  N_9 
REMARK    5  A    between atoms: C_13  and  N_6 
REMARK    6  A    between atoms: N_9  and  C_12 
ROOT
ATOM      1  N   UNL d   1      32.578  20.172 -22.125  0.00  0.00    -0.276 N 
ATOM      2  H   UNL d   1      32.184  19.801 -21.503  0.00  0.00     0.189 HD
ENDROOT
BRANCH   1   3
ATOM      3  C   UNL d   1      32.970  19.700 -22.694  0.00  0.00     0.191 C 
ATOM      4  S   UNL d   1      33.241  20.057 -23.392  0.00  0.00    -0.039 SA
BRANCH   3   5
ATOM      5  N   UNL d   1      33.093  18.893 -22.578  0.00  0.00    -0.331 N 
ATOM      6  H   UNL d   1      33.495  18.654 -21.899  0.00  0.00     0.168 HD
BRANCH   5   7
ATOM      7  C   UNL d   1      32.822  18.335 -23.123  0.00  0.00     0.058 A 
ATOM      8  C   UNL d   1      32.126  17.914 -22.961  0.00  0.00     0.017 A 
ATOM      9  C   UNL d   1      31.854  17.361 -23.496  0.00  0.00     0.002 A 
ATOM     10  C   UNL d   1      32.262  17.213 -24.198  0.00  0.00     0.000 A 
ATOM     11  C   UNL d   1      32.959  17.634 -24.360  0.00  0.00     0.002 A 
ATOM     12  C   UNL d   1      33.229  18.192 -23.815  0.00  0.00     0.017 A 
ENDBRANCH   5   7
ENDBRANCH   3   5
ENDBRANCH   1   3
BRANCH   1  13
ATOM     13  N   UNL d   1      32.580  20.986 -22.174  0.00  0.00    -0.297 N 
ATOM     14  H   UNL d   1      32.601  21.358 -22.929  0.00  0.00     0.187 HD
BRANCH  13  15
ATOM     15  C   UNL d   1      32.561  21.468 -21.486  0.00  0.00     0.072 A 
ATOM     16  C   UNL d   1      32.775  22.262 -21.553  0.00  0.00     0.020 A 
ATOM     17  C   UNL d   1      32.766  22.757 -20.901  0.00  0.00     0.025 A 
ATOM     18  C   UNL d   1      32.538  22.442 -20.169  0.00  0.00     0.127 A 
ATOM     19  C   UNL d   1      32.325  21.648 -20.102  0.00  0.00     0.025 A 
ATOM     20  C   UNL d   1      32.339  21.168 -20.767  0.00  0.00     0.020 A 
BRANCH  18  21
ATOM     21  N   UNL d   1      32.527  22.959 -19.478  0.00  0.00    -0.114 N 
ATOM     22  O   UNL d   1      31.804  23.161 -19.136  0.00  0.00    -0.532 OA
ATOM     23  O   UNL d   1      33.241  23.233 -19.184  0.00  0.00    -0.532 OA
ENDBRANCH  18  21
ENDBRANCH  13  15
ENDBRANCH   1  13
TORSDOF 6
ENDMDL
