MODEL 1
REMARK VINA RESULT:      60.9      0.000      0.000
REMARK  9 active torsions:
REMARK  status: ('A' for Active; 'I' for Inactive)
REMARK    1  A    between atoms: C_9  and  S_1 
REMARK    2  A    between atoms: N_12  and  S_1 
REMARK    3  A    between atoms: S_2  and  C_8 
REMARK    4  A    between atoms: N_13  and  S_2 
REMARK    5  A    between atoms: N_20  and  C_5 
REMARK    6  A    between atoms: C_23  and  N_12 
REMARK    7  A    between atoms: C_24  and  N_13 
REMARK    8  A    between atoms: C_31  and  C_23 
REMARK    9  A    between atoms: C_30  and  C_24 
ROOT
ATOM      1  C   UNL d   1      13.820  15.278  -4.450  0.00  0.00     0.021 A 
ATOM      2  C   UNL d   1      13.928  16.521  -4.928  0.00  0.00     0.021 A 
ATOM      3  C   UNL d   1      14.214  15.996  -4.353  0.00  0.00     0.111 A 
ATOM      4  C   UNL d   1      13.360  16.122  -5.376  0.00  0.00     0.002 A 
ATOM      5  C   UNL d   1      13.301  15.355  -5.072  0.00  0.00     0.002 A 
ATOM      6  C   UNL d   1      13.737  17.687  -5.707  0.00  0.00     0.104 A 
ATOM      7  C   UNL d   1      13.435  13.941  -4.239  0.00  0.00     0.104 A 
ATOM      8  C   UNL d   1      14.121  17.306  -5.090  0.00  0.00     0.015 A 
ATOM      9  C   UNL d   1      13.903  14.605  -4.031  0.00  0.00     0.015 A 
ATOM     10  C   UNL d   1      12.836  14.704  -5.282  0.00  0.00     0.001 A 
ATOM     11  C   UNL d   1      12.994  16.512  -5.977  0.00  0.00     0.001 A 
ATOM     12  C   UNL d   1      12.915  14.018  -4.862  0.00  0.00     0.013 A 
ATOM     13  C   UNL d   1      13.167  17.265  -6.146  0.00  0.00     0.013 A 
ENDROOT
BRANCH   6  14
ATOM     14  S   UNL d   1      13.905  18.488  -5.904  0.00  0.00     0.272 S 
ATOM     15  O   UNL d   1      14.697  18.395  -5.630  0.00  0.00    -0.200 OA
ATOM     16  O   UNL d   1      13.121  18.601  -6.183  0.00  0.00    -0.200 OA
BRANCH  14  17
ATOM     17  N   UNL d   1      14.096  19.282  -6.093  0.00  0.00    -0.225 N 
ATOM     18  C   UNL d   1      13.503  19.805  -6.389  0.00  0.00     0.111 C 
BRANCH  17  19
ATOM     19  C   UNL d   1      14.870  19.586  -5.997  0.00  0.00     0.137 C 
BRANCH  19  20
ATOM     20  C   UNL d   1      15.008  20.305  -5.625  0.00  0.00     0.254 C 
ATOM     21  O   UNL d   1      15.686  20.744  -5.780  0.00  0.00    -0.281 OA
ENDBRANCH  19  20
ENDBRANCH  17  19
ENDBRANCH  14  17
ENDBRANCH   6  14
BRANCH   3  22
ATOM     22  N   UNL d   1      14.792  16.175  -3.788  0.00  0.00    -0.096 NA
ATOM     23  O   UNL d   1      14.622  16.093  -2.983  0.00  0.00    -0.061 OA
ENDBRANCH   3  22
BRANCH   7  24
ATOM     24  S   UNL d   1      13.484  13.207  -3.829  0.00  0.00     0.272 S 
ATOM     25  O   UNL d   1      14.034  12.942  -4.405  0.00  0.00    -0.200 OA
ATOM     26  O   UNL d   1      12.934  13.475  -3.255  0.00  0.00    -0.200 OA
BRANCH  24  27
ATOM     27  N   UNL d   1      13.558  12.459  -3.443  0.00  0.00    -0.225 N 
ATOM     28  C   UNL d   1      13.254  11.779  -3.779  0.00  0.00     0.111 C 
BRANCH  27  29
ATOM     29  C   UNL d   1      13.953  12.434  -2.703  0.00  0.00     0.137 C 
BRANCH  29  30
ATOM     30  C   UNL d   1      13.813  11.806  -2.201  0.00  0.00     0.254 C 
ATOM     31  O   UNL d   1      13.872  11.901  -1.375  0.00  0.00    -0.281 OA
ENDBRANCH  29  30
ENDBRANCH  27  29
ENDBRANCH  24  27
ENDBRANCH   7  24
TORSDOF 9
ENDMDL
MODEL 2
REMARK VINA RESULT:      63.7      1.146      1.522
REMARK  9 active torsions:
REMARK  status: ('A' for Active; 'I' for Inactive)
REMARK    1  A    between atoms: C_9  and  S_1 
REMARK    2  A    between atoms: N_12  and  S_1 
REMARK    3  A    between atoms: S_2  and  C_8 
REMARK    4  A    between atoms: N_13  and  S_2 
REMARK    5  A    between atoms: N_20  and  C_5 
REMARK    6  A    between atoms: C_23  and  N_12 
REMARK    7  A    between atoms: C_24  and  N_13 
REMARK    8  A    between atoms: C_31  and  C_23 
REMARK    9  A    between atoms: C_30  and  C_24 
ROOT
ATOM      1  C   UNL d   1      14.107  14.669  -3.467  0.00  0.00     0.021 A 
ATOM      2  C   UNL d   1      14.148  15.791  -4.192  0.00  0.00     0.021 A 
ATOM      3  C   UNL d   1      14.368  15.451  -3.468  0.00  0.00     0.111 A 
ATOM      4  C   UNL d   1      13.752  15.216  -4.633  0.00  0.00     0.002 A 
ATOM      5  C   UNL d   1      13.732  14.526  -4.176  0.00  0.00     0.002 A 
ATOM      6  C   UNL d   1      13.977  16.726  -5.241  0.00  0.00     0.104 A 
ATOM      7  C   UNL d   1      13.870  13.353  -3.028  0.00  0.00     0.104 A 
ATOM      8  C   UNL d   1      14.263  16.550  -4.492  0.00  0.00     0.015 A 
ATOM      9  C   UNL d   1      14.186  14.118  -2.897  0.00  0.00     0.015 A 
ATOM     10  C   UNL d   1      13.418  13.773  -4.312  0.00  0.00     0.001 A 
ATOM     11  C   UNL d   1      13.478  15.406  -5.365  0.00  0.00     0.001 A 
ATOM     12  C   UNL d   1      13.495  13.210  -3.737  0.00  0.00     0.013 A 
ATOM     13  C   UNL d   1      13.580  16.129  -5.668  0.00  0.00     0.013 A 
ENDROOT
BRANCH   6  14
ATOM     14  S   UNL d   1      14.073  17.488  -5.584  0.00  0.00     0.272 S 
ATOM     15  O   UNL d   1      14.717  17.646  -5.062  0.00  0.00    -0.200 OA
ATOM     16  O   UNL d   1      13.435  17.351  -6.111  0.00  0.00    -0.200 OA
BRANCH  14  17
ATOM     17  N   UNL d   1      14.189  18.252  -5.909  0.00  0.00    -0.225 N 
ATOM     18  C   UNL d   1      14.924  18.654  -5.803  0.00  0.00     0.111 C 
BRANCH  17  19
ATOM     19  C   UNL d   1      13.591  18.643  -6.345  0.00  0.00     0.137 C 
BRANCH  19  20
ATOM     20  C   UNL d   1      13.554  19.462  -6.388  0.00  0.00     0.254 C 
ATOM     21  O   UNL d   1      12.838  19.862  -6.331  0.00  0.00    -0.281 OA
ENDBRANCH  19  20
ENDBRANCH  17  19
ENDBRANCH  14  17
ENDBRANCH   6  14
BRANCH   3  22
ATOM     22  N   UNL d   1      14.778  15.840  -2.862  0.00  0.00    -0.096 NA
ATOM     23  O   UNL d   1      14.384  16.051  -2.167  0.00  0.00    -0.061 OA
ENDBRANCH   3  22
BRANCH   7  24
ATOM     24  S   UNL d   1      13.927  12.736  -2.458  0.00  0.00     0.272 S 
ATOM     25  O   UNL d   1      14.039  13.319  -1.864  0.00  0.00    -0.200 OA
ATOM     26  O   UNL d   1      13.814  12.156  -3.054  0.00  0.00    -0.200 OA
BRANCH  24  27
ATOM     27  N   UNL d   1      13.989  12.143  -1.859  0.00  0.00    -0.225 N 
ATOM     28  C   UNL d   1      13.323  11.779  -1.555  0.00  0.00     0.111 C 
BRANCH  27  29
ATOM     29  C   UNL d   1      14.755  11.938  -1.586  0.00  0.00     0.137 C 
BRANCH  29  30
ATOM     30  C   UNL d   1      14.861  11.779  -0.792  0.00  0.00     0.254 C 
ATOM     31  O   UNL d   1      14.259  11.947  -0.241  0.00  0.00    -0.281 OA
ENDBRANCH  29  30
ENDBRANCH  27  29
ENDBRANCH  24  27
ENDBRANCH   7  24
TORSDOF 9
ENDMDL
