MODEL 1
REMARK VINA RESULT:      -3.6      0.000      0.000
REMARK  2 active torsions:
REMARK  status: ('A' for Active; 'I' for Inactive)
REMARK    1  A    between atoms: C_8  and  C_1 
REMARK    2  A    between atoms: N_5  and  C_8 
ROOT
ATOM      1  C   UNL d   1      32.060  17.499 -24.005  0.00  0.00     0.059 A 
ATOM      2  C   UNL d   1      31.088  16.489 -23.773  0.00  0.00     0.121 A 
ATOM      3  C   UNL d   1      31.837  16.787 -23.665  0.00  0.00     0.214 A 
ATOM      4  C   UNL d   1      30.540  16.911 -24.234  0.00  0.00     0.032 A 
ATOM      5  C   UNL d   1      30.751  17.622 -24.578  0.00  0.00     0.059 A 
ATOM      6  C   UNL d   1      31.520  17.915 -24.459  0.00  0.00     0.016 A 
ATOM      7  N   UNL d   1      30.867  15.780 -23.433  0.00  0.00    -0.241 NA
ATOM      8 CL   UNL d   1      30.209  18.039 -25.035  0.00  0.00    -0.082 Cl
ATOM      9  O   UNL d   1      32.385  16.365 -23.203  0.00  0.00    -0.285 OA
ATOM     10  C   UNL d   1      29.790  16.608 -24.340  0.00  0.00     0.004 A 
ATOM     11  C   UNL d   1      30.112  15.476 -23.541  0.00  0.00     0.099 A 
ATOM     12  C   UNL d   1      29.572  15.891 -23.995  0.00  0.00     0.021 A 
ENDROOT
BRANCH   1  13
ATOM     13  C   UNL d   1      32.829  17.802 -23.892  0.00  0.00     0.084 C 
BRANCH  13  14
ATOM     14  N   UNL d   1      32.932  18.585 -23.633  0.00  0.00    -0.302 N 
ATOM     15  C   UNL d   1      32.901  18.753 -22.837  0.00  0.00     0.080 A 
ATOM     16  C   UNL d   1      33.004  19.537 -22.577  0.00  0.00     0.018 A 
ATOM     17  C   UNL d   1      32.973  19.710 -21.772  0.00  0.00     0.002 A 
ATOM     18  C   UNL d   1      33.138  20.139 -23.130  0.00  0.00     0.003 A 
ATOM     19  C   UNL d   1      33.077  20.498 -21.511  0.00  0.00     0.000 A 
ATOM     20  C   UNL d   1      33.210  21.099 -22.060  0.00  0.00     0.000 A 
ATOM     21  C   UNL d   1      33.241  20.923 -22.858  0.00  0.00     0.000 A 
ATOM     22  C   UNL d   1      33.168  19.960 -23.920  0.00  0.00     0.019 A 
ATOM     23  C   UNL d   1      33.066  19.180 -24.192  0.00  0.00     0.080 A 
ENDBRANCH  13  14
ENDBRANCH   1  13
TORSDOF 2
ENDMDL
MODEL 2
REMARK VINA RESULT:      -3.4      1.566      4.496
REMARK  2 active torsions:
REMARK  status: ('A' for Active; 'I' for Inactive)
REMARK    1  A    between atoms: C_8  and  C_1 
REMARK    2  A    between atoms: N_5  and  C_8 
ROOT
ATOM      1  C   UNL d   1      33.233  19.145 -23.416  0.00  0.00     0.059 A 
ATOM      2  C   UNL d   1      33.237  20.541 -23.152  0.00  0.00     0.121 A 
ATOM      3  C   UNL d   1      33.235  19.922 -23.679  0.00  0.00     0.214 A 
ATOM      4  C   UNL d   1      33.237  20.387 -22.335  0.00  0.00     0.032 A 
ATOM      5  C   UNL d   1      33.235  19.617 -22.061  0.00  0.00     0.059 A 
ATOM      6  C   UNL d   1      33.233  18.993 -22.611  0.00  0.00     0.016 A 
ATOM      7  N   UNL d   1      33.239  21.315 -23.416  0.00  0.00    -0.241 NA
ATOM      8 CL   UNL d   1      33.236  19.464 -21.253  0.00  0.00    -0.082 Cl
ATOM      9  O   UNL d   1      33.235  20.077 -24.496  0.00  0.00    -0.285 OA
ATOM     10  C   UNL d   1      33.239  21.011 -21.811  0.00  0.00     0.004 A 
ATOM     11  C   UNL d   1      33.241  21.942 -22.887  0.00  0.00     0.099 A 
ATOM     12  C   UNL d   1      33.241  21.790 -22.082  0.00  0.00     0.021 A 
ENDROOT
BRANCH   1  13
ATOM     13  C   UNL d   1      33.231  18.512 -23.959  0.00  0.00     0.084 C 
BRANCH  13  14
ATOM     14  N   UNL d   1      32.680  17.896 -23.875  0.00  0.00    -0.302 N 
ATOM     15  C   UNL d   1      31.943  17.966 -24.213  0.00  0.00     0.080 A 
ATOM     16  C   UNL d   1      31.391  17.349 -24.129  0.00  0.00     0.018 A 
ATOM     17  C   UNL d   1      30.643  17.417 -24.470  0.00  0.00     0.002 A 
ATOM     18  C   UNL d   1      31.596  16.669 -23.702  0.00  0.00     0.003 A 
ATOM     19  C   UNL d   1      30.089  16.797 -24.386  0.00  0.00     0.000 A 
ATOM     20  C   UNL d   1      30.291  16.119 -23.962  0.00  0.00     0.000 A 
ATOM     21  C   UNL d   1      31.033  16.055 -23.624  0.00  0.00     0.000 A 
ATOM     22  C   UNL d   1      32.332  16.610 -23.370  0.00  0.00     0.019 A 
ATOM     23  C   UNL d   1      32.893  17.220 -23.447  0.00  0.00     0.080 A 
ENDBRANCH  13  14
ENDBRANCH   1  13
TORSDOF 2
ENDMDL
MODEL 3
REMARK VINA RESULT:      -3.0      1.736      4.538
REMARK  2 active torsions:
REMARK  status: ('A' for Active; 'I' for Inactive)
REMARK    1  A    between atoms: C_8  and  C_1 
REMARK    2  A    between atoms: N_5  and  C_8 
ROOT
ATOM      1  C   UNL d   1      33.237  19.498 -23.393  0.00  0.00     0.059 A 
ATOM      2  C   UNL d   1      33.238  20.857 -22.979  0.00  0.00     0.121 A 
ATOM      3  C   UNL d   1      33.238  20.299 -23.570  0.00  0.00     0.214 A 
ATOM      4  C   UNL d   1      33.237  20.615 -22.184  0.00  0.00     0.032 A 
ATOM      5  C   UNL d   1      33.236  19.820 -21.996  0.00  0.00     0.059 A 
ATOM      6  C   UNL d   1      33.236  19.259 -22.610  0.00  0.00     0.016 A 
ATOM      7  N   UNL d   1      33.239  21.655 -23.158  0.00  0.00    -0.241 NA
ATOM      8 CL   UNL d   1      33.235  19.580 -21.209  0.00  0.00    -0.082 Cl
ATOM      9  O   UNL d   1      33.239  20.542 -24.366  0.00  0.00    -0.285 OA
ATOM     10  C   UNL d   1      33.237  21.179 -21.595  0.00  0.00     0.004 A 
ATOM     11  C   UNL d   1      33.238  22.221 -22.564  0.00  0.00     0.099 A 
ATOM     12  C   UNL d   1      33.238  21.983 -21.780  0.00  0.00     0.021 A 
ENDROOT
BRANCH   1  13
ATOM     13  C   UNL d   1      33.237  18.927 -24.002  0.00  0.00     0.084 C 
BRANCH  13  14
ATOM     14  N   UNL d   1      32.761  18.250 -23.935  0.00  0.00    -0.302 N 
ATOM     15  C   UNL d   1      33.084  17.556 -23.658  0.00  0.00     0.080 A 
ATOM     16  C   UNL d   1      32.607  16.878 -23.591  0.00  0.00     0.018 A 
ATOM     17  C   UNL d   1      32.932  16.173 -23.311  0.00  0.00     0.002 A 
ATOM     18  C   UNL d   1      31.808  16.914 -23.806  0.00  0.00     0.003 A 
ATOM     19  C   UNL d   1      32.453  15.491 -23.243  0.00  0.00     0.000 A 
ATOM     20  C   UNL d   1      31.657  15.525 -23.457  0.00  0.00     0.000 A 
ATOM     21  C   UNL d   1      31.339  16.226 -23.735  0.00  0.00     0.000 A 
ATOM     22  C   UNL d   1      31.497  17.609 -24.080  0.00  0.00     0.019 A 
ATOM     23  C   UNL d   1      31.964  18.295 -24.152  0.00  0.00     0.080 A 
ENDBRANCH  13  14
ENDBRANCH   1  13
TORSDOF 2
ENDMDL
MODEL 4
REMARK VINA RESULT:      -2.5      1.443      4.540
REMARK  2 active torsions:
REMARK  status: ('A' for Active; 'I' for Inactive)
REMARK    1  A    between atoms: C_8  and  C_1 
REMARK    2  A    between atoms: N_5  and  C_8 
ROOT
ATOM      1  C   UNL d   1      31.409  17.340 -24.535  0.00  0.00     0.059 A 
ATOM      2  C   UNL d   1      32.152  18.421 -23.987  0.00  0.00     0.121 A 
ATOM      3  C   UNL d   1      31.614  18.135 -24.525  0.00  0.00     0.214 A 
ATOM      4  C   UNL d   1      32.500  17.903 -23.438  0.00  0.00     0.032 A 
ATOM      5  C   UNL d   1      32.304  17.109 -23.439  0.00  0.00     0.059 A 
ATOM      6  C   UNL d   1      31.753  16.830 -23.995  0.00  0.00     0.016 A 
ATOM      7  N   UNL d   1      32.355  19.212 -23.978  0.00  0.00    -0.241 NA
ATOM      8 CL   UNL d   1      32.649  16.596 -22.896  0.00  0.00    -0.082 Cl
ATOM      9  O   UNL d   1      31.265  18.654 -25.074  0.00  0.00    -0.285 OA
ATOM     10  C   UNL d   1      33.039  18.194 -22.900  0.00  0.00     0.004 A 
ATOM     11  C   UNL d   1      32.897  19.505 -23.436  0.00  0.00     0.099 A 
ATOM     12  C   UNL d   1      33.241  18.994 -22.896  0.00  0.00     0.021 A 
ENDROOT
BRANCH   1  13
ATOM     13  C   UNL d   1      30.857  17.050 -25.089  0.00  0.00     0.084 C 
BRANCH  13  14
ATOM     14  N   UNL d   1      30.178  16.649 -24.826  0.00  0.00    -0.302 N 
ATOM     15  C   UNL d   1      29.618  17.048 -24.391  0.00  0.00     0.080 A 
ATOM     16  C   UNL d   1      28.938  16.647 -24.128  0.00  0.00     0.018 A 
ATOM     17  C   UNL d   1      28.369  17.049 -23.687  0.00  0.00     0.002 A 
ATOM     18  C   UNL d   1      28.838  15.846 -24.311  0.00  0.00     0.003 A 
ATOM     19  C   UNL d   1      27.686  16.646 -23.423  0.00  0.00     0.000 A 
ATOM     20  C   UNL d   1      27.584  15.848 -23.604  0.00  0.00     0.000 A 
ATOM     21  C   UNL d   1      28.151  15.453 -24.041  0.00  0.00     0.000 A 
ATOM     22  C   UNL d   1      29.402  15.458 -24.744  0.00  0.00     0.019 A 
ATOM     23  C   UNL d   1      30.086  15.848 -25.013  0.00  0.00     0.080 A 
ENDBRANCH  13  14
ENDBRANCH   1  13
TORSDOF 2
ENDMDL
MODEL 5
REMARK VINA RESULT:      -2.2      2.308      4.929
REMARK  2 active torsions:
REMARK  status: ('A' for Active; 'I' for Inactive)
REMARK    1  A    between atoms: C_8  and  C_1 
REMARK    2  A    between atoms: N_5  and  C_8 
ROOT
ATOM      1  C   UNL d   1      33.009  20.946 -21.849  0.00  0.00     0.059 A 
ATOM      2  C   UNL d   1      32.357  21.988 -21.137  0.00  0.00     0.121 A 
ATOM      3  C   UNL d   1      32.582  21.209 -21.200  0.00  0.00     0.214 A 
ATOM      4  C   UNL d   1      32.562  22.526 -21.736  0.00  0.00     0.032 A 
ATOM      5  C   UNL d   1      32.987  22.274 -22.387  0.00  0.00     0.059 A 
ATOM      6  C   UNL d   1      33.211  21.476 -22.440  0.00  0.00     0.016 A 
ATOM      7  N   UNL d   1      31.932  22.249 -20.490  0.00  0.00    -0.241 NA
ATOM      8 CL   UNL d   1      33.190  22.807 -22.981  0.00  0.00    -0.082 Cl
ATOM      9  O   UNL d   1      32.377  20.671 -20.599  0.00  0.00    -0.285 OA
ATOM     10  C   UNL d   1      32.334  23.306 -21.668  0.00  0.00     0.004 A 
ATOM     11  C   UNL d   1      31.703  23.034 -20.422  0.00  0.00     0.099 A 
ATOM     12  C   UNL d   1      31.904  23.564 -21.013  0.00  0.00     0.021 A 
ENDROOT
BRANCH   1  13
ATOM     13  C   UNL d   1      33.239  20.146 -21.911  0.00  0.00     0.084 C 
BRANCH  13  14
ATOM     14  N   UNL d   1      33.050  19.713 -22.594  0.00  0.00    -0.302 N 
ATOM     15  C   UNL d   1      32.702  18.981 -22.524  0.00  0.00     0.080 A 
ATOM     16  C   UNL d   1      32.513  18.547 -23.208  0.00  0.00     0.018 A 
ATOM     17  C   UNL d   1      32.160  17.804 -23.139  0.00  0.00     0.002 A 
ATOM     18  C   UNL d   1      32.680  18.863 -23.955  0.00  0.00     0.003 A 
ATOM     19  C   UNL d   1      31.970  17.368 -23.827  0.00  0.00     0.000 A 
ATOM     20  C   UNL d   1      32.136  17.682 -24.571  0.00  0.00     0.000 A 
ATOM     21  C   UNL d   1      32.486  18.418 -24.635  0.00  0.00     0.000 A 
ATOM     22  C   UNL d   1      33.027  19.593 -24.013  0.00  0.00     0.019 A 
ATOM     23  C   UNL d   1      33.221  20.036 -23.337  0.00  0.00     0.080 A 
ENDBRANCH  13  14
ENDBRANCH   1  13
TORSDOF 2
ENDMDL
MODEL 6
REMARK VINA RESULT:      -1.5      1.389      2.097
REMARK  2 active torsions:
REMARK  status: ('A' for Active; 'I' for Inactive)
REMARK    1  A    between atoms: C_8  and  C_1 
REMARK    2  A    between atoms: N_5  and  C_8 
ROOT
ATOM      1  C   UNL d   1      32.842  18.650 -23.674  0.00  0.00     0.059 A 
ATOM      2  C   UNL d   1      31.827  17.868 -24.288  0.00  0.00     0.121 A 
ATOM      3  C   UNL d   1      32.217  18.576 -24.201  0.00  0.00     0.214 A 
ATOM      4  C   UNL d   1      32.062  17.210 -23.839  0.00  0.00     0.032 A 
ATOM      5  C   UNL d   1      32.684  17.272 -23.312  0.00  0.00     0.059 A 
ATOM      6  C   UNL d   1      33.074  18.001 -23.232  0.00  0.00     0.016 A 
ATOM      7  N   UNL d   1      31.204  17.796 -24.813  0.00  0.00    -0.241 NA
ATOM      8 CL   UNL d   1      32.917  16.620 -22.867  0.00  0.00    -0.082 Cl
ATOM      9  O   UNL d   1      31.981  19.235 -24.650  0.00  0.00    -0.285 OA
ATOM     10  C   UNL d   1      31.667  16.503 -23.931  0.00  0.00     0.004 A 
ATOM     11  C   UNL d   1      30.808  17.084 -24.904  0.00  0.00     0.099 A 
ATOM     12  C   UNL d   1      31.040  16.435 -24.462  0.00  0.00     0.021 A 
ENDROOT
BRANCH   1  13
ATOM     13  C   UNL d   1      33.241  19.378 -23.587  0.00  0.00     0.084 C 
BRANCH  13  14
ATOM     14  N   UNL d   1      33.217  19.778 -22.859  0.00  0.00    -0.302 N 
ATOM     15  C   UNL d   1      33.173  20.591 -22.848  0.00  0.00     0.080 A 
ATOM     16  C   UNL d   1      33.149  20.992 -22.119  0.00  0.00     0.018 A 
ATOM     17  C   UNL d   1      33.104  21.815 -22.105  0.00  0.00     0.002 A 
ATOM     18  C   UNL d   1      33.171  20.562 -21.412  0.00  0.00     0.003 A 
ATOM     19  C   UNL d   1      33.080  22.219 -21.373  0.00  0.00     0.000 A 
ATOM     20  C   UNL d   1      33.102  21.792 -20.668  0.00  0.00     0.000 A 
ATOM     21  C   UNL d   1      33.146  20.975 -20.686  0.00  0.00     0.000 A 
ATOM     22  C   UNL d   1      33.215  19.753 -21.435  0.00  0.00     0.019 A 
ATOM     23  C   UNL d   1      33.240  19.341 -22.157  0.00  0.00     0.080 A 
ENDBRANCH  13  14
ENDBRANCH   1  13
TORSDOF 2
ENDMDL
