MODEL 1
REMARK VINA RESULT:      57.2      0.000      0.000
REMARK  6 active torsions:
REMARK  status: ('A' for Active; 'I' for Inactive)
REMARK       I    between atoms: C_2  and  N_1 
REMARK    1  A    between atoms: C_3  and  C_2 
REMARK    2  A    between atoms: C_12  and  C_4 
REMARK       I    between atoms: C_5  and  N_8 
REMARK    3  A    between atoms: C_6  and  C_5 
REMARK       I    between atoms: N_9  and  C_6 
REMARK    4  A    between atoms: N_8  and  C_12 
REMARK    5  A    between atoms: C_19  and  N_9 
REMARK    6  A    between atoms: C_21  and  C_19 
ROOT
ATOM      1  C   UNL d   1     -55.391-102.378 -40.082  0.00  0.00     0.337 C 
ATOM      2  N   UNL d   1     -55.393-102.132 -39.298  0.00  0.00    -0.199 NA
ATOM      3  O   UNL d   1     -54.711-102.733 -40.408  0.00  0.00    -0.260 OA
ENDROOT
BRANCH   2   4
ATOM      4  C   UNL d   1     -54.719-102.236 -38.834  0.00  0.00     0.146 C 
BRANCH   4   5
ATOM      5  C   UNL d   1     -54.782-102.204 -38.002  0.00  0.00     0.190 A 
ATOM      6  N   UNL d   1     -54.805-101.510 -37.557  0.00  0.00    -0.250 N 
ATOM      7  C   UNL d   1     -54.775-100.708 -37.773  0.00  0.00     0.272 C 
ATOM      8  C   UNL d   1     -54.869-101.738 -36.763  0.00  0.00     0.112 A 
ATOM      9  O   UNL d   1     -54.711-100.497 -38.572  0.00  0.00    -0.266 OA
ATOM     10  C   UNL d   1     -54.885-102.560 -36.726  0.00  0.00     0.144 A 
ATOM     11  O   UNL d   1     -54.830-102.844 -37.507  0.00  0.00    -0.285 OA
BRANCH   7  12
ATOM     12  C   UNL d   1     -54.810-100.120 -37.196  0.00  0.00     0.086 A 
ATOM     13  S   UNL d   1     -54.780-100.163 -36.366  0.00  0.00    -0.082 SA
ATOM     14  C   UNL d   1     -54.841 -99.380 -36.071  0.00  0.00     0.036 A 
ATOM     15  C   UNL d   1     -54.907 -98.873 -36.721  0.00  0.00     0.008 A 
ATOM     16  C   UNL d   1     -54.889 -99.321 -37.413  0.00  0.00     0.012 A 
ENDBRANCH   7  12
ENDBRANCH   4   5
ENDBRANCH   2   4
BRANCH   1  17
ATOM     17  C   UNL d   1     -56.054-102.276 -40.540  0.00  0.00     0.337 C 
ATOM     18  N   UNL d   1     -55.994-102.055 -41.324  0.00  0.00    -0.202 NA
ATOM     19  O   UNL d   1     -56.809-102.397 -40.206  0.00  0.00    -0.260 OA
BRANCH  18  20
ATOM     20  C   UNL d   1     -55.244-101.933 -41.661  0.00  0.00     0.102 C 
BRANCH  20  21
ATOM     21  C   UNL d   1     -55.190-101.708 -42.464  0.00  0.00     0.019 A 
ATOM     22  C   UNL d   1     -55.198-102.267 -43.065  0.00  0.00     0.004 A 
ATOM     23  C   UNL d   1     -55.144-102.029 -43.853  0.00  0.00     0.030 A 
ATOM     24  C   UNL d   1     -55.081-101.239 -44.050  0.00  0.00     0.140 A 
ATOM     25  C   UNL d   1     -55.072-100.672 -43.456  0.00  0.00     0.030 A 
ATOM     26  F   UNL d   1     -55.027-101.008 -44.848  0.00  0.00    -0.204 F 
ATOM     27  C   UNL d   1     -55.125-100.900 -42.667  0.00  0.00     0.004 A 
ENDBRANCH  20  21
ENDBRANCH  18  20
ENDBRANCH   1  17
TORSDOF 6
ENDMDL
