MODEL 1
REMARK VINA RESULT:      25.3      0.000      0.000
REMARK  6 active torsions:
REMARK  status: ('A' for Active; 'I' for Inactive)
REMARK    1  A    between atoms: C_2  and  C_1 
REMARK       I    between atoms: N_6  and  C_1 
REMARK    2  A    between atoms: O_15  and  C_3 
REMARK    3  A    between atoms: O_17  and  C_4 
REMARK    4  A    between atoms: O_16  and  C_5 
REMARK    5  A    between atoms: C_12  and  N_6 
REMARK    6  A    between atoms: N_11  and  C_9 
ROOT
ATOM      1  C   UNL d   1      45.527 -14.643  44.125  0.00  0.00     0.074 A 
ATOM      2  C   UNL d   1      44.419 -13.552  43.586  0.00  0.00     0.138 A 
ATOM      3  C   UNL d   1      45.213 -13.444  43.424  0.00  0.00     0.118 A 
ATOM      4  C   UNL d   1      44.183 -14.208  44.017  0.00  0.00     0.118 A 
ATOM      5  C   UNL d   1      45.774 -13.980  43.687  0.00  0.00     0.032 A 
ATOM      6  C   UNL d   1      44.728 -14.764  44.294  0.00  0.00     0.032 A 
ENDROOT
BRANCH   1   7
ATOM      7  C   UNL d   1      46.083 -15.190  44.395  0.00  0.00     0.328 C 
ATOM      8  N   UNL d   1      46.070 -15.955  44.104  0.00  0.00    -0.365 NA
ATOM      9  O   UNL d   1      46.647 -14.966  44.955  0.00  0.00    -0.251 OA
BRANCH   8  10
ATOM     10  C   UNL d   1      46.064 -16.726  43.816  0.00  0.00     0.135 A 
ATOM     11  C   UNL d   1      46.074 -16.873  43.000  0.00  0.00     0.034 A 
ATOM     12  C   UNL d   1      46.068 -17.644  42.712  0.00  0.00     0.020 A 
ATOM     13  C   UNL d   1      46.051 -18.273  43.235  0.00  0.00     0.064 A 
ATOM     14  C   UNL d   1      46.040 -18.135  44.048  0.00  0.00     0.020 A 
ATOM     15  C   UNL d   1      46.047 -17.355  44.339  0.00  0.00     0.034 A 
BRANCH  13  16
ATOM     16  N   UNL d   1      46.044 -19.050  42.947  0.00  0.00    -0.301 N 
ATOM     17  C   UNL d   1      45.839 -19.194  42.159  0.00  0.00     0.100 C 
ATOM     18  C   UNL d   1      46.245 -19.684  43.453  0.00  0.00     0.100 C 
ENDBRANCH  13  16
ENDBRANCH   8  10
ENDBRANCH   1   7
BRANCH   3  19
ATOM     19  O   UNL d   1      45.456 -12.784  42.990  0.00  0.00    -0.326 OA
ATOM     20  C   UNL d   1      45.945 -12.206  43.351  0.00  0.00     0.181 C 
ENDBRANCH   3  19
BRANCH   4  21
ATOM     21  O   UNL d   1      43.372 -14.319  44.181  0.00  0.00    -0.326 OA
ATOM     22  C   UNL d   1      43.129 -14.517  44.953  0.00  0.00     0.181 C 
ENDBRANCH   4  21
BRANCH   2  23
ATOM     23  O   UNL d   1      43.863 -13.006  43.316  0.00  0.00    -0.324 OA
ATOM     24  C   UNL d   1      44.098 -12.262  43.054  0.00  0.00     0.182 C 
ENDBRANCH   2  23
TORSDOF 6
ENDMDL
