MODEL 1
REMARK VINA RESULT:      39.1      0.000      0.000
REMARK  7 active torsions:
REMARK  status: ('A' for Active; 'I' for Inactive)
REMARK       I    between atoms: N_3  and  C_1 
REMARK    1  A    between atoms: C_10  and  C_1 
REMARK    2  A    between atoms: C_2  and  C_5 
REMARK    3  A    between atoms: O_15  and  C_2 
REMARK    4  A    between atoms: C_11  and  N_3 
REMARK    5  A    between atoms: C_4  and  C_11 
REMARK       I    between atoms: N_6  and  C_4 
REMARK    6  A    between atoms: C_14  and  N_6 
REMARK    7  A    between atoms: C_20  and  O_15 
ROOT
ATOM      1  C   UNL d   1      13.682  14.194  -3.847  0.00  0.00     0.299 C 
ATOM      2  N   UNL d   1      14.393  14.481  -4.148  0.00  0.00    -0.207 NA
ATOM      3  O   UNL d   1      13.030  14.697  -3.797  0.00  0.00    -0.263 OA
ENDROOT
BRANCH   1   4
ATOM      4  C   UNL d   1      13.618  13.418  -3.599  0.00  0.00     0.165 C 
BRANCH   4   5
ATOM      5  N   UNL d   1      13.820  13.206  -2.829  0.00  0.00    -0.201 NA
ATOM      6  C   UNL d   1      13.754  12.421  -2.590  0.00  0.00     0.279 C 
ATOM      7  O   UNL d   1      13.469  11.852  -3.179  0.00  0.00    -0.265 OA
BRANCH   6   8
ATOM      8  C   UNL d   1      13.956  12.205  -1.817  0.00  0.00     0.058 A 
ATOM      9  C   UNL d   1      14.748  12.204  -1.584  0.00  0.00     0.005 A 
ATOM     10  C   UNL d   1      14.947  11.991  -0.817  0.00  0.00     0.000 A 
ATOM     11  C   UNL d   1      14.364  11.779  -0.285  0.00  0.00     0.000 A 
ATOM     12  C   UNL d   1      13.573  11.781  -0.518  0.00  0.00     0.000 A 
ATOM     13  C   UNL d   1      13.364  11.993  -1.284  0.00  0.00     0.005 A 
ENDBRANCH   6   8
ENDBRANCH   4   5
ENDBRANCH   1   4
BRANCH   2  14
ATOM     14  C   UNL d   1      14.455  15.268  -4.399  0.00  0.00     0.085 A 
ATOM     15  C   UNL d   1      14.441  15.440  -5.201  0.00  0.00     0.019 A 
ATOM     16  C   UNL d   1      14.503  16.215  -5.452  0.00  0.00     0.007 A 
ATOM     17  C   UNL d   1      14.579  16.831  -4.894  0.00  0.00     0.064 A 
ATOM     18  C   UNL d   1      14.592  16.650  -4.089  0.00  0.00     0.007 A 
ATOM     19  C   UNL d   1      14.530  15.868  -3.838  0.00  0.00     0.019 A 
BRANCH  17  20
ATOM     20  C   UNL d   1      14.642  17.615  -5.148  0.00  0.00     0.300 C 
ATOM     21  O   UNL d   1      15.296  18.071  -4.937  0.00  0.00    -0.259 OA
BRANCH  20  22
ATOM     22  O   UNL d   1      14.044  17.940  -5.614  0.00  0.00    -0.271 OA
BRANCH  22  23
ATOM     23  C   UNL d   1      13.900  18.754  -5.599  0.00  0.00     0.126 C 
ATOM     24  C   UNL d   1      13.899  19.182  -6.304  0.00  0.00     0.029 C 
ENDBRANCH  22  23
ENDBRANCH  20  22
ENDBRANCH  17  20
ENDBRANCH   2  14
TORSDOF 7
ENDMDL
MODEL 2
REMARK VINA RESULT:      40.6      1.236      5.956
REMARK  7 active torsions:
REMARK  status: ('A' for Active; 'I' for Inactive)
REMARK       I    between atoms: N_3  and  C_1 
REMARK    1  A    between atoms: C_10  and  C_1 
REMARK    2  A    between atoms: C_2  and  C_5 
REMARK    3  A    between atoms: O_15  and  C_2 
REMARK    4  A    between atoms: C_11  and  N_3 
REMARK    5  A    between atoms: C_4  and  C_11 
REMARK       I    between atoms: N_6  and  C_4 
REMARK    6  A    between atoms: C_14  and  N_6 
REMARK    7  A    between atoms: C_20  and  O_15 
ROOT
ATOM      1  C   UNL d   1      13.627  15.207  -4.873  0.00  0.00     0.299 C 
ATOM      2  N   UNL d   1      13.370  14.438  -5.009  0.00  0.00    -0.207 NA
ATOM      3  O   UNL d   1      13.913  15.413  -4.127  0.00  0.00    -0.263 OA
ENDROOT
BRANCH   1   4
ATOM      4  C   UNL d   1      13.601  15.767  -5.468  0.00  0.00     0.165 C 
BRANCH   4   5
ATOM      5  N   UNL d   1      13.960  16.501  -5.369  0.00  0.00    -0.201 NA
ATOM      6  C   UNL d   1      13.711  17.143  -5.820  0.00  0.00     0.279 C 
ATOM      7  O   UNL d   1      13.069  17.002  -6.386  0.00  0.00    -0.265 OA
BRANCH   6   8
ATOM      8  C   UNL d   1      14.070  17.882  -5.722  0.00  0.00     0.058 A 
ATOM      9  C   UNL d   1      13.632  18.571  -5.836  0.00  0.00     0.005 A 
ATOM     10  C   UNL d   1      13.990  19.303  -5.738  0.00  0.00     0.000 A 
ATOM     11  C   UNL d   1      14.778  19.351  -5.529  0.00  0.00     0.000 A 
ATOM     12  C   UNL d   1      15.217  18.661  -5.415  0.00  0.00     0.000 A 
ATOM     13  C   UNL d   1      14.867  17.924  -5.510  0.00  0.00     0.005 A 
ENDBRANCH   6   8
ENDBRANCH   4   5
ENDBRANCH   1   4
BRANCH   2  14
ATOM     14  C   UNL d   1      13.397  13.872  -4.404  0.00  0.00     0.085 A 
ATOM     15  C   UNL d   1      13.736  14.067  -3.683  0.00  0.00     0.019 A 
ATOM     16  C   UNL d   1      13.764  13.511  -3.084  0.00  0.00     0.007 A 
ATOM     17  C   UNL d   1      13.449  12.748  -3.205  0.00  0.00     0.064 A 
ATOM     18  C   UNL d   1      13.109  12.561  -3.933  0.00  0.00     0.007 A 
ATOM     19  C   UNL d   1      13.082  13.121  -4.535  0.00  0.00     0.019 A 
BRANCH  17  20
ATOM     20  C   UNL d   1      13.477  12.187  -2.599  0.00  0.00     0.300 C 
ATOM     21  O   UNL d   1      12.795  11.783  -2.373  0.00  0.00    -0.259 OA
BRANCH  20  22
ATOM     22  O   UNL d   1      14.194  12.033  -2.221  0.00  0.00    -0.271 OA
BRANCH  22  23
ATOM     23  C   UNL d   1      14.221  11.945  -1.400  0.00  0.00     0.126 C 
ATOM     24  C   UNL d   1      14.898  12.173  -0.987  0.00  0.00     0.029 C 
ENDBRANCH  22  23
ENDBRANCH  20  22
ENDBRANCH  17  20
ENDBRANCH   2  14
TORSDOF 7
ENDMDL
