MODEL 1
REMARK VINA RESULT:       1.6      0.000      0.000
REMARK  4 active torsions:
REMARK  status: ('A' for Active; 'I' for Inactive)
REMARK    1  A    between atoms: S_9  and  C_2 
REMARK    2  A    between atoms: C_11  and  C_3 
REMARK    3  A    between atoms: C_7  and  C_10 
REMARK       I    between atoms: N_8  and  C_7 
REMARK    4  A    between atoms: C_10  and  S_9 
ROOT
ATOM      1  N   UNL d   1      58.856  -9.809  31.663  0.00  0.00    -0.220 NA
ATOM      2  C   UNL d   1      59.682  -9.809  31.561  0.00  0.00     0.114 A 
ATOM      3  C   UNL d   1      58.367  -9.809  31.003  0.00  0.00     0.163 A 
ATOM      4  N   UNL d   1      58.690  -9.809  30.244  0.00  0.00    -0.227 NA
ATOM      5  C   UNL d   1      60.004  -9.808  30.802  0.00  0.00     0.042 A 
ATOM      6  C   UNL d   1      59.502  -9.809  30.144  0.00  0.00     0.085 A 
ATOM      7  C   UNL d   1      60.809  -9.808  30.704  0.00  0.00     0.004 A 
ATOM      8  C   UNL d   1      59.816  -9.808  29.394  0.00  0.00     0.019 A 
ATOM      9  C   UNL d   1      61.132  -9.808  29.945  0.00  0.00     0.000 A 
ATOM     10  C   UNL d   1      60.630  -9.808  29.288  0.00  0.00     0.002 A 
ENDROOT
BRANCH   2  11
ATOM     11  S   UNL d   1      60.178  -9.808  32.215  0.00  0.00    -0.062 SA
BRANCH  11  12
ATOM     12  C   UNL d   1      59.871  -9.738  32.968  0.00  0.00     0.098 C 
BRANCH  12  13
ATOM     13  C   UNL d   1      60.317  -9.400  33.577  0.00  0.00     0.271 C 
ATOM     14  N   UNL d   1      59.995  -9.301  34.327  0.00  0.00    -0.272 N 
ATOM     15  C   UNL d   1      60.440  -8.967  34.925  0.00  0.00     0.083 A 
ATOM     16  C   UNL d   1      59.218  -9.545  34.466  0.00  0.00     0.083 A 
ATOM     17  C   UNL d   1      60.123  -8.867  35.676  0.00  0.00     0.019 A 
ATOM     18  C   UNL d   1      59.348  -9.105  35.830  0.00  0.00     0.003 A 
ATOM     19  C   UNL d   1      58.901  -9.443  35.222  0.00  0.00     0.019 A 
ATOM     20  O   UNL d   1      61.093  -9.160  33.428  0.00  0.00    -0.266 OA
ENDBRANCH  12  13
ENDBRANCH  11  12
ENDBRANCH   2  11
BRANCH   3  21
ATOM     21  C   UNL d   1      57.551  -9.810  31.097  0.00  0.00     0.036 A 
ATOM     22  C   UNL d   1      57.064  -9.818  30.431  0.00  0.00     0.003 A 
ATOM     23  C   UNL d   1      56.240  -9.818  30.525  0.00  0.00     0.000 A 
ATOM     24  C   UNL d   1      55.917  -9.811  31.283  0.00  0.00     0.000 A 
ATOM     25  C   UNL d   1      56.405  -9.803  31.949  0.00  0.00     0.000 A 
ATOM     26  C   UNL d   1      57.215  -9.802  31.857  0.00  0.00     0.003 A 
ENDBRANCH   3  21
TORSDOF 4
ENDMDL
MODEL 2
REMARK VINA RESULT:       2.9      8.810      9.109
REMARK  4 active torsions:
REMARK  status: ('A' for Active; 'I' for Inactive)
REMARK    1  A    between atoms: S_9  and  C_2 
REMARK    2  A    between atoms: C_11  and  C_3 
REMARK    3  A    between atoms: C_7  and  C_10 
REMARK       I    between atoms: N_8  and  C_7 
REMARK    4  A    between atoms: C_10  and  S_9 
ROOT
ATOM      1  N   UNL d   1      58.697  -1.467  29.483  0.00  0.00    -0.220 NA
ATOM      2  C   UNL d   1      58.899  -0.686  29.688  0.00  0.00     0.114 A 
ATOM      3  C   UNL d   1      59.242  -1.934  29.083  0.00  0.00     0.163 A 
ATOM      4  N   UNL d   1      59.983  -1.633  28.885  0.00  0.00    -0.227 NA
ATOM      5  C   UNL d   1      59.641  -0.386  29.489  0.00  0.00     0.042 A 
ATOM      6  C   UNL d   1      60.182  -0.865  29.086  0.00  0.00     0.085 A 
ATOM      7  C   UNL d   1      59.836   0.376  29.689  0.00  0.00     0.004 A 
ATOM      8  C   UNL d   1      60.914  -0.573  28.888  0.00  0.00     0.019 A 
ATOM      9  C   UNL d   1      60.578   0.676  29.491  0.00  0.00     0.000 A 
ATOM     10  C   UNL d   1      61.118   0.196  29.088  0.00  0.00     0.002 A 
ENDROOT
BRANCH   2  11
ATOM     11  S   UNL d   1      58.360  -0.213  30.088  0.00  0.00    -0.062 SA
BRANCH  11  12
ATOM     12  C   UNL d   1      57.858  -0.536  30.644  0.00  0.00     0.098 C 
BRANCH  12  13
ATOM     13  C   UNL d   1      57.264  -0.078  30.994  0.00  0.00     0.271 C 
ATOM     14  N   UNL d   1      56.823  -0.374  31.622  0.00  0.00    -0.272 N 
ATOM     15  C   UNL d   1      56.237   0.082  31.963  0.00  0.00     0.083 A 
ATOM     16  C   UNL d   1      56.980  -1.135  31.899  0.00  0.00     0.083 A 
ATOM     17  C   UNL d   1      55.794  -0.209  32.590  0.00  0.00     0.019 A 
ATOM     18  C   UNL d   1      55.939  -0.968  32.879  0.00  0.00     0.003 A 
ATOM     19  C   UNL d   1      56.533  -1.426  32.530  0.00  0.00     0.019 A 
ATOM     20  O   UNL d   1      57.115   0.682  30.709  0.00  0.00    -0.266 OA
ENDBRANCH  12  13
ENDBRANCH  11  12
ENDBRANCH   2  11
BRANCH   3  21
ATOM     21  C   UNL d   1      59.048  -2.705  28.879  0.00  0.00     0.036 A 
ATOM     22  C   UNL d   1      58.274  -2.888  28.662  0.00  0.00     0.003 A 
ATOM     23  C   UNL d   1      58.077  -3.666  28.455  0.00  0.00     0.000 A 
ATOM     24  C   UNL d   1      58.659  -4.250  28.468  0.00  0.00     0.000 A 
ATOM     25  C   UNL d   1      59.434  -4.067  28.685  0.00  0.00     0.000 A 
ATOM     26  C   UNL d   1      59.628  -3.301  28.888  0.00  0.00     0.003 A 
ENDBRANCH   3  21
TORSDOF 4
ENDMDL
MODEL 3
REMARK VINA RESULT:       4.2     10.240     11.280
REMARK  4 active torsions:
REMARK  status: ('A' for Active; 'I' for Inactive)
REMARK    1  A    between atoms: S_9  and  C_2 
REMARK    2  A    between atoms: C_11  and  C_3 
REMARK    3  A    between atoms: C_7  and  C_10 
REMARK       I    between atoms: N_8  and  C_7 
REMARK    4  A    between atoms: C_10  and  S_9 
ROOT
ATOM      1  N   UNL d   1      57.424   0.498  33.207  0.00  0.00    -0.220 NA
ATOM      2  C   UNL d   1      56.767   0.464  32.698  0.00  0.00     0.114 A 
ATOM      3  C   UNL d   1      57.306   0.578  34.016  0.00  0.00     0.163 A 
ATOM      4  N   UNL d   1      56.542   0.625  34.324  0.00  0.00    -0.227 NA
ATOM      5  C   UNL d   1      56.003   0.511  33.006  0.00  0.00     0.042 A 
ATOM      6  C   UNL d   1      55.895   0.592  33.823  0.00  0.00     0.085 A 
ATOM      7  C   UNL d   1      55.363   0.478  32.509  0.00  0.00     0.004 A 
ATOM      8  C   UNL d   1      55.145   0.639  34.130  0.00  0.00     0.019 A 
ATOM      9  C   UNL d   1      54.599   0.525  32.816  0.00  0.00     0.000 A 
ATOM     10  C   UNL d   1      54.493   0.606  33.633  0.00  0.00     0.002 A 
ENDROOT
BRANCH   2  11
ATOM     11  S   UNL d   1      56.876   0.384  31.888  0.00  0.00    -0.062 SA
BRANCH  11  12
ATOM     12  C   UNL d   1      57.626   0.407  31.568  0.00  0.00     0.098 C 
BRANCH  12  13
ATOM     13  C   UNL d   1      57.739   0.335  30.751  0.00  0.00     0.271 C 
ATOM     14  N   UNL d   1      58.488   0.426  30.423  0.00  0.00    -0.272 N 
ATOM     15  C   UNL d   1      58.594   0.354  29.616  0.00  0.00     0.083 A 
ATOM     16  C   UNL d   1      59.127   0.590  30.919  0.00  0.00     0.083 A 
ATOM     17  C   UNL d   1      59.339   0.443  29.283  0.00  0.00     0.019 A 
ATOM     18  C   UNL d   1      59.988   0.608  29.766  0.00  0.00     0.003 A 
ATOM     19  C   UNL d   1      59.876   0.680  30.582  0.00  0.00     0.019 A 
ATOM     20  O   UNL d   1      57.094   0.171  30.264  0.00  0.00    -0.266 OA
ENDBRANCH  12  13
ENDBRANCH  11  12
ENDBRANCH   2  11
BRANCH   3  21
ATOM     21  C   UNL d   1      57.950   0.612  34.523  0.00  0.00     0.036 A 
ATOM     22  C   UNL d   1      57.827   0.625  35.339  0.00  0.00     0.003 A 
ATOM     23  C   UNL d   1      58.477   0.659  35.852  0.00  0.00     0.000 A 
ATOM     24  C   UNL d   1      59.240   0.680  35.542  0.00  0.00     0.000 A 
ATOM     25  C   UNL d   1      59.364   0.667  34.726  0.00  0.00     0.000 A 
ATOM     26  C   UNL d   1      58.724   0.633  34.220  0.00  0.00     0.003 A 
ENDBRANCH   3  21
TORSDOF 4
ENDMDL
