MODEL 1
REMARK VINA RESULT:      -8.9      0.000      0.000
REMARK  4 active torsions:
REMARK  status: ('A' for Active; 'I' for Inactive)
REMARK    1  A    between atoms: C_2  and  S_1 
REMARK    2  A    between atoms: N_3  and  S_1 
REMARK    3  A    between atoms: C_16  and  C_7 
REMARK    4  A    between atoms: O_17  and  C_8 
ROOT
ATOM      1  C   UNL d   1      52.996  32.851  53.546  0.00  0.00     0.126 A 
ATOM      2  C   UNL d   1      53.523  33.290  54.000  0.00  0.00     0.015 A 
ATOM      3  C   UNL d   1      54.191  32.929  54.304  0.00  0.00     0.001 A 
ATOM      4  C   UNL d   1      53.131  32.058  53.393  0.00  0.00     0.106 A 
ATOM      5  C   UNL d   1      54.337  32.131  54.156  0.00  0.00     0.002 A 
ATOM      6  C   UNL d   1      53.804  31.695  53.698  0.00  0.00     0.025 A 
ENDROOT
BRANCH   1   7
ATOM      7  S   UNL d   1      52.319  33.212  53.237  0.00  0.00     0.273 S 
ATOM      8  O   UNL d   1      52.706  33.320  52.514  0.00  0.00    -0.200 OA
ATOM      9  O   UNL d   1      51.932  33.104  53.960  0.00  0.00    -0.200 OA
BRANCH   7  10
ATOM     10  N   UNL d   1      51.642  33.574  52.928  0.00  0.00    -0.226 N 
ATOM     11  C   UNL d   1      50.938  33.566  53.357  0.00  0.00     0.111 A 
ATOM     12  C   UNL d   1      50.266  33.923  53.055  0.00  0.00     0.100 A 
ATOM     13  N   UNL d   1      50.288  34.295  52.314  0.00  0.00    -0.299 N 
ATOM     14  C   UNL d   1      50.994  34.303  51.882  0.00  0.00     0.100 A 
ATOM     15  C   UNL d   1      49.606  34.654  52.013  0.00  0.00     0.100 C 
ATOM     16  C   UNL d   1      51.671  33.942  52.191  0.00  0.00     0.111 A 
ENDBRANCH   7  10
ENDBRANCH   1   7
BRANCH   4  17
ATOM     17  O   UNL d   1      52.590  31.627  52.932  0.00  0.00    -0.327 OA
ATOM     18  C   UNL d   1      52.695  30.815  52.842  0.00  0.00     0.181 C 
ENDBRANCH   4  17
BRANCH   3  19
ATOM     19  C   UNL d   1      54.721  33.366  54.760  0.00  0.00     0.000 C 
ATOM     20  C   UNL d   1      55.366  33.733  54.409  0.00  0.00     0.000 C 
ATOM     21  C   UNL d   1      54.597  33.432  55.575  0.00  0.00     0.000 C 
ENDBRANCH   3  19
TORSDOF 4
ENDMDL
MODEL 2
REMARK VINA RESULT:      -8.1      0.699      1.996
REMARK  4 active torsions:
REMARK  status: ('A' for Active; 'I' for Inactive)
REMARK    1  A    between atoms: C_2  and  S_1 
REMARK    2  A    between atoms: N_3  and  S_1 
REMARK    3  A    between atoms: C_16  and  C_7 
REMARK    4  A    between atoms: O_17  and  C_8 
ROOT
ATOM      1  C   UNL d   1      52.800  32.398  53.327  0.00  0.00     0.126 A 
ATOM      2  C   UNL d   1      52.733  31.585  53.219  0.00  0.00     0.015 A 
ATOM      3  C   UNL d   1      53.355  31.097  53.431  0.00  0.00     0.001 A 
ATOM      4  C   UNL d   1      53.481  32.726  53.644  0.00  0.00     0.106 A 
ATOM      5  C   UNL d   1      54.045  31.417  53.750  0.00  0.00     0.002 A 
ATOM      6  C   UNL d   1      54.106  32.235  53.856  0.00  0.00     0.025 A 
ENDROOT
BRANCH   1   7
ATOM      7  S   UNL d   1      52.174  32.895  53.115  0.00  0.00     0.273 S 
ATOM      8  O   UNL d   1      52.450  32.909  52.335  0.00  0.00    -0.200 OA
ATOM      9  O   UNL d   1      51.898  32.881  53.894  0.00  0.00    -0.200 OA
BRANCH   7  10
ATOM     10  N   UNL d   1      51.548  33.391  52.902  0.00  0.00    -0.226 N 
ATOM     11  C   UNL d   1      50.887  33.454  53.392  0.00  0.00     0.111 A 
ATOM     12  C   UNL d   1      50.264  33.945  53.184  0.00  0.00     0.100 A 
ATOM     13  N   UNL d   1      50.294  34.382  52.481  0.00  0.00    -0.299 N 
ATOM     14  C   UNL d   1      50.957  34.320  51.988  0.00  0.00     0.100 A 
ATOM     15  C   UNL d   1      49.663  34.876  52.276  0.00  0.00     0.100 C 
ATOM     16  C   UNL d   1      51.583  33.823  52.201  0.00  0.00     0.111 A 
ENDBRANCH   7  10
ENDBRANCH   1   7
BRANCH   4  17
ATOM     17  O   UNL d   1      53.535  33.549  53.747  0.00  0.00    -0.327 OA
ATOM     18  C   UNL d   1      54.185  33.863  54.144  0.00  0.00     0.181 C 
ENDBRANCH   4  17
BRANCH   3  19
ATOM     19  C   UNL d   1      53.290  30.282  53.323  0.00  0.00     0.000 C 
ATOM     20  C   UNL d   1      53.175  29.970  52.573  0.00  0.00     0.000 C 
ATOM     21  C   UNL d   1      53.343  29.781  53.979  0.00  0.00     0.000 C 
ENDBRANCH   3  19
TORSDOF 4
ENDMDL
MODEL 3
REMARK VINA RESULT:      -7.4      1.435      3.754
REMARK  4 active torsions:
REMARK  status: ('A' for Active; 'I' for Inactive)
REMARK    1  A    between atoms: C_2  and  S_1 
REMARK    2  A    between atoms: N_3  and  S_1 
REMARK    3  A    between atoms: C_16  and  C_7 
REMARK    4  A    between atoms: O_17  and  C_8 
ROOT
ATOM      1  C   UNL d   1      52.542  33.118  53.181  0.00  0.00     0.126 A 
ATOM      2  C   UNL d   1      51.808  33.315  52.865  0.00  0.00     0.015 A 
ATOM      3  C   UNL d   1      51.617  34.102  52.749  0.00  0.00     0.001 A 
ATOM      4  C   UNL d   1      53.083  33.698  53.380  0.00  0.00     0.106 A 
ATOM      5  C   UNL d   1      52.155  34.694  52.947  0.00  0.00     0.002 A 
ATOM      6  C   UNL d   1      52.891  34.490  53.264  0.00  0.00     0.025 A 
ENDROOT
BRANCH   1   7
ATOM      7  S   UNL d   1      52.738  32.323  53.299  0.00  0.00     0.273 S 
ATOM      8  O   UNL d   1      53.011  32.274  52.520  0.00  0.00    -0.200 OA
ATOM      9  O   UNL d   1      52.466  32.372  54.078  0.00  0.00    -0.200 OA
BRANCH   7  10
ATOM     10  N   UNL d   1      52.935  31.529  53.418  0.00  0.00    -0.226 N 
ATOM     11  C   UNL d   1      53.330  31.299  54.105  0.00  0.00     0.111 A 
ATOM     12  C   UNL d   1      53.526  30.513  54.226  0.00  0.00     0.100 A 
ATOM     13  N   UNL d   1      53.330  29.942  53.659  0.00  0.00    -0.299 N 
ATOM     14  C   UNL d   1      52.933  30.170  52.968  0.00  0.00     0.100 A 
ATOM     15  C   UNL d   1      53.530  29.149  53.785  0.00  0.00     0.100 C 
ATOM     16  C   UNL d   1      52.736  30.965  52.850  0.00  0.00     0.111 A 
ENDBRANCH   7  10
ENDBRANCH   1   7
BRANCH   4  17
ATOM     17  O   UNL d   1      53.821  33.485  53.699  0.00  0.00    -0.327 OA
ATOM     18  C   UNL d   1      54.327  34.073  53.972  0.00  0.00     0.181 C 
ENDBRANCH   4  17
BRANCH   3  19
ATOM     19  C   UNL d   1      50.882  34.302  52.432  0.00  0.00     0.000 C 
ATOM     20  C   UNL d   1      50.258  34.501  52.926  0.00  0.00     0.000 C 
ATOM     21  C   UNL d   1      50.780  34.302  51.611  0.00  0.00     0.000 C 
ENDBRANCH   3  19
TORSDOF 4
ENDMDL
MODEL 4
REMARK VINA RESULT:      -6.5      1.613      3.022
REMARK  4 active torsions:
REMARK  status: ('A' for Active; 'I' for Inactive)
REMARK    1  A    between atoms: C_2  and  S_1 
REMARK    2  A    between atoms: N_3  and  S_1 
REMARK    3  A    between atoms: C_16  and  C_7 
REMARK    4  A    between atoms: O_17  and  C_8 
ROOT
ATOM      1  C   UNL d   1      53.540  32.756  54.086  0.00  0.00     0.126 A 
ATOM      2  C   UNL d   1      54.257  32.926  54.452  0.00  0.00     0.015 A 
ATOM      3  C   UNL d   1      54.420  33.694  54.683  0.00  0.00     0.001 A 
ATOM      4  C   UNL d   1      52.987  33.344  53.950  0.00  0.00     0.106 A 
ATOM      5  C   UNL d   1      53.870  34.294  54.550  0.00  0.00     0.002 A 
ATOM      6  C   UNL d   1      53.151  34.117  54.181  0.00  0.00     0.025 A 
ENDROOT
BRANCH   1   7
ATOM      7  S   UNL d   1      53.371  31.981  53.852  0.00  0.00     0.273 S 
ATOM      8  O   UNL d   1      53.649  32.151  53.092  0.00  0.00    -0.200 OA
ATOM      9  O   UNL d   1      53.093  31.812  54.612  0.00  0.00    -0.200 OA
BRANCH   7  10
ATOM     10  N   UNL d   1      53.203  31.206  53.618  0.00  0.00    -0.226 N 
ATOM     11  C   UNL d   1      53.357  30.577  54.129  0.00  0.00     0.111 A 
ATOM     12  C   UNL d   1      53.191  29.809  53.901  0.00  0.00     0.100 A 
ATOM     13  N   UNL d   1      52.868  29.656  53.153  0.00  0.00    -0.299 N 
ATOM     14  C   UNL d   1      52.713  30.286  52.638  0.00  0.00     0.100 A 
ATOM     15  C   UNL d   1      52.703  28.877  52.927  0.00  0.00     0.100 C 
ATOM     16  C   UNL d   1      52.881  31.061  52.873  0.00  0.00     0.111 A 
ENDBRANCH   7  10
ENDBRANCH   1   7
BRANCH   4  17
ATOM     17  O   UNL d   1      52.266  33.158  53.579  0.00  0.00    -0.327 OA
ATOM     18  C   UNL d   1      51.709  33.753  53.459  0.00  0.00     0.181 C 
ENDBRANCH   4  17
BRANCH   3  19
ATOM     19  C   UNL d   1      55.137  33.868  55.050  0.00  0.00     0.000 C 
ATOM     20  C   UNL d   1      55.785  34.105  54.604  0.00  0.00     0.000 C 
ATOM     21  C   UNL d   1      55.200  33.802  55.872  0.00  0.00     0.000 C 
ENDBRANCH   3  19
TORSDOF 4
ENDMDL
MODEL 5
REMARK VINA RESULT:      -6.5      1.720      3.794
REMARK  4 active torsions:
REMARK  status: ('A' for Active; 'I' for Inactive)
REMARK    1  A    between atoms: C_2  and  S_1 
REMARK    2  A    between atoms: N_3  and  S_1 
REMARK    3  A    between atoms: C_16  and  C_7 
REMARK    4  A    between atoms: O_17  and  C_8 
ROOT
ATOM      1  C   UNL d   1      53.307  31.835  53.626  0.00  0.00     0.126 A 
ATOM      2  C   UNL d   1      53.418  31.022  53.679  0.00  0.00     0.015 A 
ATOM      3  C   UNL d   1      52.894  30.518  53.304  0.00  0.00     0.001 A 
ATOM      4  C   UNL d   1      52.680  32.147  53.202  0.00  0.00     0.106 A 
ATOM      5  C   UNL d   1      52.259  30.821  52.875  0.00  0.00     0.002 A 
ATOM      6  C   UNL d   1      52.153  31.640  52.825  0.00  0.00     0.025 A 
ENDROOT
BRANCH   1   7
ATOM      7  S   UNL d   1      53.834  32.348  54.003  0.00  0.00     0.273 S 
ATOM      8  O   UNL d   1      53.362  32.334  54.682  0.00  0.00    -0.200 OA
ATOM      9  O   UNL d   1      54.307  32.362  53.325  0.00  0.00    -0.200 OA
BRANCH   7  10
ATOM     10  N   UNL d   1      54.362  32.861  54.381  0.00  0.00    -0.226 N 
ATOM     11  C   UNL d   1      54.241  33.070  55.169  0.00  0.00     0.111 A 
ATOM     12  C   UNL d   1      54.761  33.578  55.547  0.00  0.00     0.100 A 
ATOM     13  N   UNL d   1      55.414  33.885  55.139  0.00  0.00    -0.299 N 
ATOM     14  C   UNL d   1      55.538  33.676  54.348  0.00  0.00     0.100 A 
ATOM     15  C   UNL d   1      55.937  34.397  55.525  0.00  0.00     0.100 C 
ATOM     16  C   UNL d   1      55.010  33.163  53.970  0.00  0.00     0.111 A 
ENDBRANCH   7  10
ENDBRANCH   1   7
BRANCH   4  17
ATOM     17  O   UNL d   1      52.579  32.971  53.157  0.00  0.00    -0.327 OA
ATOM     18  C   UNL d   1      51.923  33.276  52.764  0.00  0.00     0.181 C 
ENDBRANCH   4  17
BRANCH   3  19
ATOM     19  C   UNL d   1      53.003  29.701  53.356  0.00  0.00     0.000 C 
ATOM     20  C   UNL d   1      53.219  29.356  54.068  0.00  0.00     0.000 C 
ATOM     21  C   UNL d   1      52.892  29.233  52.683  0.00  0.00     0.000 C 
ENDBRANCH   3  19
TORSDOF 4
ENDMDL
