MODEL 1
REMARK VINA RESULT:      -9.0      0.000      0.000
REMARK  7 active torsions:
REMARK  status: ('A' for Active; 'I' for Inactive)
REMARK    1  A    between atoms: C_12  and  N_3 
REMARK    2  A    between atoms: C_10  and  C_4 
REMARK    3  A    between atoms: C_15  and  C_12 
REMARK    4  A    between atoms: N_14  and  C_21 
REMARK    5  A    between atoms: C_22  and  N_14 
REMARK    6  A    between atoms: C_21  and  C_15 
REMARK    7  A    between atoms: C_20  and  C_22 
ROOT
ATOM      1  C   UNL d   1      53.248  33.369  54.040  0.00  0.00     0.137 A 
ATOM      2  N   UNL d   1      53.731  32.915  54.551  0.00  0.00    -0.259 N 
ATOM      3  N   UNL d   1      52.838  32.997  53.421  0.00  0.00    -0.287 N 
ATOM      4  C   UNL d   1      53.180  34.186  54.153  0.00  0.00     0.054 A 
ATOM      5  C   UNL d   1      54.146  33.278  55.176  0.00  0.00     0.266 A 
ATOM      6  C   UNL d   1      53.382  31.724  53.811  0.00  0.00     0.084 A 
ATOM      7  C   UNL d   1      52.906  32.180  53.308  0.00  0.00     0.082 A 
ATOM      8  C   UNL d   1      53.593  34.559  54.777  0.00  0.00     0.009 A 
ATOM      9  C   UNL d   1      54.076  34.105  55.289  0.00  0.00     0.061 A 
ATOM     10  O   UNL d   1      54.622  32.830  55.680  0.00  0.00    -0.267 OA
ATOM     11  C   UNL d   1      53.451  30.911  53.699  0.00  0.00     0.019 A 
ATOM     12  C   UNL d   1      53.524  35.371  54.888  0.00  0.00     0.000 C 
ATOM     13  C   UNL d   1      52.497  31.808  52.688  0.00  0.00     0.019 A 
ATOM     14  C   UNL d   1      53.044  30.545  53.085  0.00  0.00     0.002 A 
ATOM     15  C   UNL d   1      52.566  30.995  52.578  0.00  0.00     0.002 A 
ENDROOT
BRANCH   3  16
ATOM     16  C   UNL d   1      52.365  33.450  52.921  0.00  0.00     0.126 C 
BRANCH  16  17
ATOM     17  C   UNL d   1      51.546  33.426  53.006  0.00  0.00     0.232 C 
ATOM     18  O   UNL d   1      51.204  33.213  53.727  0.00  0.00    -0.283 OA
BRANCH  17  19
ATOM     19  C   UNL d   1      51.058  33.617  52.369  0.00  0.00     0.142 C 
BRANCH  19  20
ATOM     20  N   UNL d   1      50.347  34.019  52.500  0.00  0.00    -0.239 NA
BRANCH  20  21
ATOM     21  C   UNL d   1      49.925  34.327  51.864  0.00  0.00     0.099 C 
BRANCH  21  22
ATOM     22  C   UNL d   1      49.235  34.756  51.999  0.00  0.00     0.019 A 
ATOM     23  C   UNL d   1      49.137  35.185  52.696  0.00  0.00     0.002 A 
ATOM     24  C   UNL d   1      48.447  35.611  52.827  0.00  0.00     0.000 A 
ATOM     25  C   UNL d   1      47.846  35.611  52.255  0.00  0.00     0.000 A 
ATOM     26  C   UNL d   1      47.948  35.181  51.558  0.00  0.00     0.000 A 
ATOM     27  C   UNL d   1      48.637  34.756  51.430  0.00  0.00     0.002 A 
ENDBRANCH  21  22
ENDBRANCH  20  21
ENDBRANCH  19  20
ENDBRANCH  17  19
ENDBRANCH  16  17
ENDBRANCH   3  16
BRANCH   4  28
ATOM     28  C   UNL d   1      52.704  34.632  53.649  0.00  0.00     0.125 C 
ATOM     29  N   UNL d   1      52.958  35.383  53.400  0.00  0.00    -0.146 N 
ENDBRANCH   4  28
TORSDOF 7
ENDMDL
MODEL 2
REMARK VINA RESULT:      -8.3      1.500      4.518
REMARK  7 active torsions:
REMARK  status: ('A' for Active; 'I' for Inactive)
REMARK    1  A    between atoms: C_12  and  N_3 
REMARK    2  A    between atoms: C_10  and  C_4 
REMARK    3  A    between atoms: C_15  and  C_12 
REMARK    4  A    between atoms: N_14  and  C_21 
REMARK    5  A    between atoms: C_22  and  N_14 
REMARK    6  A    between atoms: C_21  and  C_15 
REMARK    7  A    between atoms: C_20  and  C_22 
ROOT
ATOM      1  C   UNL d   1      52.932  33.978  54.158  0.00  0.00     0.137 A 
ATOM      2  N   UNL d   1      52.766  34.797  54.124  0.00  0.00    -0.259 N 
ATOM      3  N   UNL d   1      52.418  33.437  53.793  0.00  0.00    -0.287 N 
ATOM      4  C   UNL d   1      53.606  33.708  54.555  0.00  0.00     0.054 A 
ATOM      5  C   UNL d   1      53.275  35.349  54.486  0.00  0.00     0.266 A 
ATOM      6  C   UNL d   1      51.573  34.517  53.358  0.00  0.00     0.084 A 
ATOM      7  C   UNL d   1      51.744  33.706  53.396  0.00  0.00     0.082 A 
ATOM      8  C   UNL d   1      54.123  34.254  54.922  0.00  0.00     0.009 A 
ATOM      9  C   UNL d   1      53.957  35.075  54.888  0.00  0.00     0.061 A 
ATOM     10  O   UNL d   1      53.112  36.157  54.453  0.00  0.00    -0.267 OA
ATOM     11  C   UNL d   1      50.902  34.786  52.964  0.00  0.00     0.019 A 
ATOM     12  C   UNL d   1      54.793  33.985  55.316  0.00  0.00     0.000 C 
ATOM     13  C   UNL d   1      51.229  33.166  53.031  0.00  0.00     0.019 A 
ATOM     14  C   UNL d   1      50.395  34.248  52.603  0.00  0.00     0.002 A 
ATOM     15  C   UNL d   1      50.559  33.436  52.637  0.00  0.00     0.002 A 
ENDROOT
BRANCH   3  16
ATOM     16  C   UNL d   1      52.587  32.632  53.831  0.00  0.00     0.126 C 
BRANCH  16  17
ATOM     17  C   UNL d   1      52.826  32.234  53.150  0.00  0.00     0.232 C 
ATOM     18  O   UNL d   1      53.338  32.594  52.611  0.00  0.00    -0.283 OA
BRANCH  17  19
ATOM     19  C   UNL d   1      52.555  31.470  53.000  0.00  0.00     0.142 C 
BRANCH  19  20
ATOM     20  N   UNL d   1      53.047  30.822  53.150  0.00  0.00    -0.239 NA
BRANCH  20  21
ATOM     21  C   UNL d   1      52.724  30.069  53.230  0.00  0.00     0.099 C 
BRANCH  21  22
ATOM     22  C   UNL d   1      53.038  29.544  53.781  0.00  0.00     0.019 A 
ATOM     23  C   UNL d   1      53.784  29.210  53.665  0.00  0.00     0.002 A 
ATOM     24  C   UNL d   1      54.094  28.686  54.216  0.00  0.00     0.000 A 
ATOM     25  C   UNL d   1      53.655  28.492  54.894  0.00  0.00     0.000 A 
ATOM     26  C   UNL d   1      52.910  28.828  55.006  0.00  0.00     0.000 A 
ATOM     27  C   UNL d   1      52.603  29.350  54.454  0.00  0.00     0.002 A 
ENDBRANCH  21  22
ENDBRANCH  20  21
ENDBRANCH  19  20
ENDBRANCH  17  19
ENDBRANCH  16  17
ENDBRANCH   3  16
BRANCH   4  28
ATOM     28  C   UNL d   1      53.769  32.901  54.588  0.00  0.00     0.125 C 
ATOM     29  N   UNL d   1      54.107  32.576  55.274  0.00  0.00    -0.146 N 
ENDBRANCH   4  28
TORSDOF 7
ENDMDL
MODEL 3
REMARK VINA RESULT:      -8.3      0.581      2.422
REMARK  7 active torsions:
REMARK  status: ('A' for Active; 'I' for Inactive)
REMARK    1  A    between atoms: C_12  and  N_3 
REMARK    2  A    between atoms: C_10  and  C_4 
REMARK    3  A    between atoms: C_15  and  C_12 
REMARK    4  A    between atoms: N_14  and  C_21 
REMARK    5  A    between atoms: C_22  and  N_14 
REMARK    6  A    between atoms: C_21  and  C_15 
REMARK    7  A    between atoms: C_20  and  C_22 
ROOT
ATOM      1  C   UNL d   1      53.100  32.945  53.893  0.00  0.00     0.137 A 
ATOM      2  N   UNL d   1      53.561  32.977  54.591  0.00  0.00    -0.259 N 
ATOM      3  N   UNL d   1      52.761  33.639  53.590  0.00  0.00    -0.287 N 
ATOM      4  C   UNL d   1      52.984  32.222  53.508  0.00  0.00     0.054 A 
ATOM      5  C   UNL d   1      53.907  32.286  54.904  0.00  0.00     0.266 A 
ATOM      6  C   UNL d   1      53.333  34.402  54.667  0.00  0.00     0.084 A 
ATOM      7  C   UNL d   1      52.877  34.362  53.975  0.00  0.00     0.082 A 
ATOM      8  C   UNL d   1      53.326  31.523  53.814  0.00  0.00     0.009 A 
ATOM      9  C   UNL d   1      53.788  31.555  54.512  0.00  0.00     0.061 A 
ATOM     10  O   UNL d   1      54.361  32.318  55.592  0.00  0.00    -0.267 OA
ATOM     11  C   UNL d   1      53.449  35.121  55.051  0.00  0.00     0.019 A 
ATOM     12  C   UNL d   1      53.209  30.805  53.430  0.00  0.00     0.000 C 
ATOM     13  C   UNL d   1      52.538  35.058  53.672  0.00  0.00     0.019 A 
ATOM     14  C   UNL d   1      53.112  35.807  54.748  0.00  0.00     0.002 A 
ATOM     15  C   UNL d   1      52.655  35.776  54.057  0.00  0.00     0.002 A 
ENDROOT
BRANCH   3  16
ATOM     16  C   UNL d   1      52.308  33.600  52.902  0.00  0.00     0.126 C 
BRANCH  16  17
ATOM     17  C   UNL d   1      51.489  33.680  52.950  0.00  0.00     0.232 C 
ATOM     18  O   UNL d   1      51.081  33.428  53.622  0.00  0.00    -0.283 OA
BRANCH  17  19
ATOM     19  C   UNL d   1      51.070  34.016  52.324  0.00  0.00     0.142 C 
BRANCH  19  20
ATOM     20  N   UNL d   1      50.267  34.195  52.415  0.00  0.00    -0.239 NA
BRANCH  20  21
ATOM     21  C   UNL d   1      49.815  34.405  51.761  0.00  0.00     0.099 C 
BRANCH  21  22
ATOM     22  C   UNL d   1      49.108  34.813  51.864  0.00  0.00     0.019 A 
ATOM     23  C   UNL d   1      48.970  35.247  52.553  0.00  0.00     0.002 A 
ATOM     24  C   UNL d   1      48.263  35.652  52.653  0.00  0.00     0.000 A 
ATOM     25  C   UNL d   1      47.684  35.626  52.059  0.00  0.00     0.000 A 
ATOM     26  C   UNL d   1      47.825  35.191  51.372  0.00  0.00     0.000 A 
ATOM     27  C   UNL d   1      48.532  34.787  51.275  0.00  0.00     0.002 A 
ENDBRANCH  21  22
ENDBRANCH  20  21
ENDBRANCH  19  20
ENDBRANCH  17  19
ENDBRANCH  16  17
ENDBRANCH   3  16
BRANCH   4  28
ATOM     28  C   UNL d   1      52.530  32.191  52.821  0.00  0.00     0.125 C 
ATOM     29  N   UNL d   1      52.609  31.546  52.302  0.00  0.00    -0.146 N 
ENDBRANCH   4  28
TORSDOF 7
ENDMDL
MODEL 4
REMARK VINA RESULT:      -7.2      1.553      4.733
REMARK  7 active torsions:
REMARK  status: ('A' for Active; 'I' for Inactive)
REMARK    1  A    between atoms: C_12  and  N_3 
REMARK    2  A    between atoms: C_10  and  C_4 
REMARK    3  A    between atoms: C_15  and  C_12 
REMARK    4  A    between atoms: N_14  and  C_21 
REMARK    5  A    between atoms: C_22  and  N_14 
REMARK    6  A    between atoms: C_21  and  C_15 
REMARK    7  A    between atoms: C_20  and  C_22 
ROOT
ATOM      1  C   UNL d   1      52.485  33.837  53.771  0.00  0.00     0.137 A 
ATOM      2  N   UNL d   1      52.760  34.607  53.950  0.00  0.00    -0.259 N 
ATOM      3  N   UNL d   1      52.899  33.175  54.052  0.00  0.00    -0.287 N 
ATOM      4  C   UNL d   1      51.802  33.737  53.315  0.00  0.00     0.054 A 
ATOM      5  C   UNL d   1      52.352  35.279  53.672  0.00  0.00     0.266 A 
ATOM      6  C   UNL d   1      53.861  34.034  54.689  0.00  0.00     0.084 A 
ATOM      7  C   UNL d   1      53.583  33.274  54.508  0.00  0.00     0.082 A 
ATOM      8  C   UNL d   1      51.385  34.405  53.032  0.00  0.00     0.009 A 
ATOM      9  C   UNL d   1      51.660  35.176  53.211  0.00  0.00     0.061 A 
ATOM     10  O   UNL d   1      52.622  36.038  53.848  0.00  0.00    -0.267 OA
ATOM     11  C   UNL d   1      54.541  34.134  55.143  0.00  0.00     0.019 A 
ATOM     12  C   UNL d   1      50.706  34.305  52.579  0.00  0.00     0.000 C 
ATOM     13  C   UNL d   1      53.998  32.612  54.790  0.00  0.00     0.019 A 
ATOM     14  C   UNL d   1      54.949  33.476  55.421  0.00  0.00     0.002 A 
ATOM     15  C   UNL d   1      54.677  32.713  55.244  0.00  0.00     0.002 A 
ENDROOT
BRANCH   3  16
ATOM     16  C   UNL d   1      52.623  32.420  53.873  0.00  0.00     0.126 C 
BRANCH  16  17
ATOM     17  C   UNL d   1      52.951  32.007  53.240  0.00  0.00     0.232 C 
ATOM     18  O   UNL d   1      53.532  32.354  52.767  0.00  0.00    -0.283 OA
BRANCH  17  19
ATOM     19  C   UNL d   1      52.702  31.238  53.073  0.00  0.00     0.142 C 
BRANCH  19  20
ATOM     20  N   UNL d   1      53.189  30.597  53.259  0.00  0.00    -0.239 NA
BRANCH  20  21
ATOM     21  C   UNL d   1      52.866  29.846  53.348  0.00  0.00     0.099 C 
BRANCH  21  22
ATOM     22  C   UNL d   1      53.137  29.350  53.947  0.00  0.00     0.019 A 
ATOM     23  C   UNL d   1      53.829  28.912  53.848  0.00  0.00     0.002 A 
ATOM     24  C   UNL d   1      54.097  28.418  54.447  0.00  0.00     0.000 A 
ATOM     25  C   UNL d   1      53.670  28.360  55.156  0.00  0.00     0.000 A 
ATOM     26  C   UNL d   1      52.978  28.799  55.251  0.00  0.00     0.000 A 
ATOM     27  C   UNL d   1      52.713  29.291  54.651  0.00  0.00     0.002 A 
ENDBRANCH  21  22
ENDBRANCH  20  21
ENDBRANCH  19  20
ENDBRANCH  17  19
ENDBRANCH  16  17
ENDBRANCH   3  16
BRANCH   4  28
ATOM     28  C   UNL d   1      51.531  32.979  53.139  0.00  0.00     0.125 C 
ATOM     29  N   UNL d   1      50.722  32.802  53.211  0.00  0.00    -0.146 N 
ENDBRANCH   4  28
TORSDOF 7
ENDMDL
MODEL 5
REMARK VINA RESULT:      -6.2      9.818     10.884
REMARK  7 active torsions:
REMARK  status: ('A' for Active; 'I' for Inactive)
REMARK    1  A    between atoms: C_12  and  N_3 
REMARK    2  A    between atoms: C_10  and  C_4 
REMARK    3  A    between atoms: C_15  and  C_12 
REMARK    4  A    between atoms: N_14  and  C_21 
REMARK    5  A    between atoms: C_22  and  N_14 
REMARK    6  A    between atoms: C_21  and  C_15 
REMARK    7  A    between atoms: C_20  and  C_22 
ROOT
ATOM      1  C   UNL d   1      44.793  27.862  57.651  0.00  0.00     0.137 A 
ATOM      2  N   UNL d   1      44.958  27.564  56.886  0.00  0.00    -0.259 N 
ATOM      3  N   UNL d   1      44.643  28.672  57.755  0.00  0.00    -0.287 N 
ATOM      4  C   UNL d   1      44.781  27.350  58.300  0.00  0.00     0.054 A 
ATOM      5  C   UNL d   1      45.110  26.753  56.770  0.00  0.00     0.266 A 
ATOM      6  C   UNL d   1      44.817  28.897  56.345  0.00  0.00     0.084 A 
ATOM      7  C   UNL d   1      44.655  29.185  57.106  0.00  0.00     0.082 A 
ATOM      8  C   UNL d   1      44.932  26.534  58.195  0.00  0.00     0.009 A 
ATOM      9  C   UNL d   1      45.097  26.236  57.429  0.00  0.00     0.061 A 
ATOM     10  O   UNL d   1      45.273  26.459  56.017  0.00  0.00    -0.267 OA
ATOM     11  C   UNL d   1      44.830  29.406  55.698  0.00  0.00     0.019 A 
ATOM     12  C   UNL d   1      44.920  26.026  58.841  0.00  0.00     0.000 C 
ATOM     13  C   UNL d   1      44.504  29.995  57.209  0.00  0.00     0.019 A 
ATOM     14  C   UNL d   1      44.680  30.208  55.804  0.00  0.00     0.002 A 
ATOM     15  C   UNL d   1      44.517  30.503  56.562  0.00  0.00     0.002 A 
ENDROOT
BRANCH   3  16
ATOM     16  C   UNL d   1      44.481  28.958  58.511  0.00  0.00     0.126 C 
BRANCH  16  17
ATOM     17  C   UNL d   1      44.986  29.514  58.851  0.00  0.00     0.232 C 
ATOM     18  O   UNL d   1      45.805  29.430  58.792  0.00  0.00    -0.283 OA
BRANCH  17  19
ATOM     19  C   UNL d   1      44.674  30.162  59.255  0.00  0.00     0.142 C 
BRANCH  19  20
ATOM     20  N   UNL d   1      44.761  30.216  60.076  0.00  0.00    -0.239 NA
BRANCH  20  21
ATOM     21  C   UNL d   1      44.327  30.771  60.500  0.00  0.00     0.099 C 
BRANCH  21  22
ATOM     22  C   UNL d   1      44.410  30.820  61.318  0.00  0.00     0.019 A 
ATOM     23  C   UNL d   1      44.404  30.137  61.781  0.00  0.00     0.002 A 
ATOM     24  C   UNL d   1      44.487  30.188  62.597  0.00  0.00     0.000 A 
ATOM     25  C   UNL d   1      44.577  30.931  62.957  0.00  0.00     0.000 A 
ATOM     26  C   UNL d   1      44.582  31.611  62.490  0.00  0.00     0.000 A 
ATOM     27  C   UNL d   1      44.500  31.557  61.677  0.00  0.00     0.002 A 
ENDBRANCH  21  22
ENDBRANCH  20  21
ENDBRANCH  19  20
ENDBRANCH  17  19
ENDBRANCH  16  17
ENDBRANCH   3  16
BRANCH   4  28
ATOM     28  C   UNL d   1      44.619  27.643  59.053  0.00  0.00     0.125 C 
ATOM     29  N   UNL d   1      44.759  27.169  59.720  0.00  0.00    -0.146 N 
ENDBRANCH   4  28
TORSDOF 7
ENDMDL
