MODEL 1
REMARK VINA RESULT:      -9.3      0.000      0.000
REMARK  4 active torsions:
REMARK  status: ('A' for Active; 'I' for Inactive)
REMARK    1  A    between atoms: C_2  and  S_1 
REMARK    2  A    between atoms: N_3  and  S_1 
REMARK    3  A    between atoms: C_7  and  C_14 
REMARK       I    between atoms: N_9  and  C_7 
REMARK    4  A    between atoms: C_13  and  N_10 
ROOT
ATOM      1  N   UNL d   1      52.393  33.792  53.347  0.00  0.00    -0.229 N 
ATOM      2  C   UNL d   1      51.080  34.108  52.377  0.00  0.00     0.060 A 
ATOM      3  C   UNL d   1      52.403  34.450  52.847  0.00  0.00     0.092 A 
ATOM      4  C   UNL d   1      51.732  33.300  53.360  0.00  0.00     0.092 A 
ATOM      5  C   UNL d   1      51.083  33.456  52.880  0.00  0.00     0.025 A 
ATOM      6  C   UNL d   1      51.739  34.609  52.356  0.00  0.00     0.025 A 
ENDROOT
BRANCH   2   7
ATOM      7  C   UNL d   1      50.430  34.264  51.896  0.00  0.00     0.265 C 
ATOM      8  N   UNL d   1      49.781  34.649  52.189  0.00  0.00    -0.269 N 
ATOM      9  C   UNL d   1      49.763  34.893  52.984  0.00  0.00     0.102 A 
ATOM     10  C   UNL d   1      49.132  34.804  51.708  0.00  0.00     0.102 A 
ATOM     11  C   UNL d   1      49.106  35.286  53.291  0.00  0.00     0.100 A 
ATOM     12  N   UNL d   1      48.453  35.439  52.799  0.00  0.00    -0.301 N 
ATOM     13  C   UNL d   1      48.471  35.195  52.003  0.00  0.00     0.100 A 
ATOM     14  O   UNL d   1      50.448  34.020  51.101  0.00  0.00    -0.267 OA
BRANCH  12  15
ATOM     15  C   UNL d   1      47.690  35.754  52.678  0.00  0.00     0.064 A 
ATOM     16  C   UNL d   1      47.091  35.972  52.153  0.00  0.00     0.020 A 
ATOM     17  C   UNL d   1      46.383  36.292  52.449  0.00  0.00     0.031 A 
ATOM     18  C   UNL d   1      46.291  36.386  53.273  0.00  0.00     0.140 A 
ATOM     19  C   UNL d   1      46.892  36.167  53.791  0.00  0.00     0.031 A 
ATOM     20  F   UNL d   1      45.577  36.709  53.580  0.00  0.00    -0.204 F 
ATOM     21  C   UNL d   1      47.598  35.848  53.488  0.00  0.00     0.020 A 
ENDBRANCH  12  15
ENDBRANCH   2   7
BRANCH   1  22
ATOM     22  S   UNL d   1      53.043  33.636  53.828  0.00  0.00     0.275 S 
ATOM     23  O   UNL d   1      53.541  33.934  53.233  0.00  0.00    -0.199 OA
ATOM     24  O   UNL d   1      52.529  33.340  54.418  0.00  0.00    -0.199 OA
BRANCH  22  25
ATOM     25  C   UNL d   1      53.699  33.479  54.313  0.00  0.00     0.148 A 
ATOM     26  C   UNL d   1      54.259  32.878  54.304  0.00  0.00     0.139 A 
ATOM     27  O   UNL d   1      54.783  33.007  54.922  0.00  0.00    -0.210 OA
ATOM     28  C   UNL d   1      54.283  32.255  53.759  0.00  0.00     0.030 C 
ATOM     29  N   UNL d   1      54.551  33.691  55.323  0.00  0.00    -0.126 NA
ATOM     30  C   UNL d   1      53.870  33.986  54.938  0.00  0.00     0.122 A 
ATOM     31  C   UNL d   1      53.447  34.666  55.152  0.00  0.00     0.024 C 
ENDBRANCH  22  25
ENDBRANCH   1  22
TORSDOF 4
ENDMDL
MODEL 2
REMARK VINA RESULT:      -6.9      2.741      6.271
REMARK  4 active torsions:
REMARK  status: ('A' for Active; 'I' for Inactive)
REMARK    1  A    between atoms: C_2  and  S_1 
REMARK    2  A    between atoms: N_3  and  S_1 
REMARK    3  A    between atoms: C_7  and  C_14 
REMARK       I    between atoms: N_9  and  C_7 
REMARK    4  A    between atoms: C_13  and  N_10 
ROOT
ATOM      1  N   UNL d   1      49.578  34.833  52.181  0.00  0.00    -0.229 N 
ATOM      2  C   UNL d   1      51.107  34.386  52.655  0.00  0.00     0.060 A 
ATOM      3  C   UNL d   1      49.759  34.784  52.985  0.00  0.00     0.092 A 
ATOM      4  C   UNL d   1      50.158  34.660  51.622  0.00  0.00     0.092 A 
ATOM      5  C   UNL d   1      50.914  34.438  51.856  0.00  0.00     0.025 A 
ATOM      6  C   UNL d   1      50.533  34.558  53.225  0.00  0.00     0.025 A 
ENDROOT
BRANCH   2   7
ATOM      7  C   UNL d   1      51.865  34.165  52.889  0.00  0.00     0.265 C 
ATOM      8  N   UNL d   1      52.058  33.385  52.987  0.00  0.00    -0.269 N 
ATOM      9  C   UNL d   1      51.488  32.794  52.851  0.00  0.00     0.102 A 
ATOM     10  C   UNL d   1      52.815  33.164  53.221  0.00  0.00     0.102 A 
ATOM     11  C   UNL d   1      51.675  31.996  52.948  0.00  0.00     0.100 A 
ATOM     12  N   UNL d   1      52.443  31.781  53.185  0.00  0.00    -0.301 N 
ATOM     13  C   UNL d   1      53.013  32.372  53.321  0.00  0.00     0.100 A 
ATOM     14  O   UNL d   1      52.434  34.756  53.025  0.00  0.00    -0.267 OA
BRANCH  12  15
ATOM     15  C   UNL d   1      53.008  31.200  53.382  0.00  0.00     0.064 A 
ATOM     16  C   UNL d   1      53.790  31.010  53.568  0.00  0.00     0.020 A 
ATOM     17  C   UNL d   1      53.995  30.219  53.721  0.00  0.00     0.031 A 
ATOM     18  C   UNL d   1      53.405  29.631  53.683  0.00  0.00     0.140 A 
ATOM     19  C   UNL d   1      52.626  29.826  53.497  0.00  0.00     0.031 A 
ATOM     20  F   UNL d   1      53.603  28.827  53.836  0.00  0.00    -0.204 F 
ATOM     21  C   UNL d   1      52.429  30.620  53.345  0.00  0.00     0.020 A 
ENDBRANCH  12  15
ENDBRANCH   2   7
BRANCH   1  22
ATOM     22  S   UNL d   1      48.820  35.054  51.946  0.00  0.00     0.275 S 
ATOM     23  O   UNL d   1      48.538  34.850  52.701  0.00  0.00    -0.199 OA
ATOM     24  O   UNL d   1      49.118  35.256  51.191  0.00  0.00    -0.199 OA
BRANCH  22  25
ATOM     25  C   UNL d   1      48.055  35.278  51.709  0.00  0.00     0.148 A 
ATOM     26  C   UNL d   1      47.547  35.866  51.974  0.00  0.00     0.139 A 
ATOM     27  O   UNL d   1      46.858  35.828  51.530  0.00  0.00    -0.210 OA
ATOM     28  C   UNL d   1      47.711  36.402  52.584  0.00  0.00     0.030 C 
ATOM     29  N   UNL d   1      46.933  35.213  50.983  0.00  0.00    -0.126 NA
ATOM     30  C   UNL d   1      47.686  34.869  51.098  0.00  0.00     0.122 A 
ATOM     31  C   UNL d   1      48.000  34.231  50.672  0.00  0.00     0.024 C 
ENDBRANCH  22  25
ENDBRANCH   1  22
TORSDOF 4
ENDMDL
