MODEL 1
REMARK VINA RESULT:      13.0      0.000      0.000
REMARK  3 active torsions:
REMARK  status: ('A' for Active; 'I' for Inactive)
REMARK       I    between atoms: N_2  and  C_1 
REMARK    1  A    between atoms: C_3  and  C_1 
REMARK    2  A    between atoms: C_8  and  N_2 
REMARK    3  A    between atoms: C_7  and  C_6 
ROOT
ATOM      1  C   UNL d   1      45.791 -16.437  44.493  0.00  0.00     0.279 C 
ATOM      2  N   UNL d   1      46.345 -16.860  44.055  0.00  0.00    -0.208 NA
ATOM      3  O   UNL d   1      45.212 -16.852  44.917  0.00  0.00    -0.265 OA
ENDROOT
BRANCH   1   4
ATOM      4  C   UNL d   1      45.801 -15.610  44.519  0.00  0.00     0.058 A 
ATOM      5  C   UNL d   1      45.200 -15.172  44.142  0.00  0.00     0.005 A 
ATOM      6  C   UNL d   1      45.233 -14.359  44.182  0.00  0.00     0.000 A 
ATOM      7  C   UNL d   1      44.637 -13.913  43.809  0.00  0.00     0.000 A 
ATOM      8  C   UNL d   1      45.848 -13.968  44.586  0.00  0.00     0.000 A 
ATOM      9  C   UNL d   1      44.669 -13.082  43.849  0.00  0.00     0.000 A 
ATOM     10  C   UNL d   1      45.283 -12.707  44.252  0.00  0.00     0.000 A 
ATOM     11  C   UNL d   1      45.870 -13.149  44.619  0.00  0.00     0.000 A 
ATOM     12  C   UNL d   1      46.432 -14.403  44.951  0.00  0.00     0.000 A 
ATOM     13  C   UNL d   1      46.416 -15.234  44.922  0.00  0.00     0.005 A 
ENDBRANCH   1   4
BRANCH   2  14
ATOM     14  C   UNL d   1      46.332 -17.688  44.032  0.00  0.00     0.085 A 
ATOM     15  C   UNL d   1      46.418 -18.083  43.332  0.00  0.00     0.022 A 
ATOM     16  C   UNL d   1      46.404 -18.904  43.314  0.00  0.00     0.041 A 
ATOM     17  C   UNL d   1      46.303 -19.356  43.994  0.00  0.00     0.003 A 
ATOM     18  C   UNL d   1      46.214 -18.964  44.715  0.00  0.00     0.002 A 
ATOM     19  C   UNL d   1      46.224 -18.132  44.761  0.00  0.00     0.019 A 
BRANCH  16  20
ATOM     20  C   UNL d   1      46.497 -19.299  42.571  0.00  0.00     0.196 C 
ATOM     21  O   UNL d   1      46.565 -18.865  41.881  0.00  0.00    -0.287 OA
ATOM     22  C   UNL d   1      46.516 -20.119  42.557  0.00  0.00     0.045 C 
ENDBRANCH  16  20
ENDBRANCH   2  14
TORSDOF 3
ENDMDL
MODEL 2
REMARK VINA RESULT:      13.9      1.139      4.758
REMARK  3 active torsions:
REMARK  status: ('A' for Active; 'I' for Inactive)
REMARK       I    between atoms: N_2  and  C_1 
REMARK    1  A    between atoms: C_3  and  C_1 
REMARK    2  A    between atoms: C_8  and  N_2 
REMARK    3  A    between atoms: C_7  and  C_6 
ROOT
ATOM      1  C   UNL d   1      45.813 -16.139  44.357  0.00  0.00     0.279 C 
ATOM      2  N   UNL d   1      46.244 -15.528  44.014  0.00  0.00    -0.208 NA
ATOM      3  O   UNL d   1      45.189 -15.951  44.871  0.00  0.00    -0.265 OA
ENDROOT
BRANCH   1   4
ATOM      4  C   UNL d   1      45.988 -16.932  44.202  0.00  0.00     0.058 A 
ATOM      5  C   UNL d   1      46.058 -17.199  43.415  0.00  0.00     0.005 A 
ATOM      6  C   UNL d   1      46.231 -17.985  43.289  0.00  0.00     0.000 A 
ATOM      7  C   UNL d   1      46.303 -18.260  42.506  0.00  0.00     0.000 A 
ATOM      8  C   UNL d   1      46.338 -18.514  43.923  0.00  0.00     0.000 A 
ATOM      9  C   UNL d   1      46.480 -19.063  42.375  0.00  0.00     0.000 A 
ATOM     10  C   UNL d   1      46.583 -19.578  43.012  0.00  0.00     0.000 A 
ATOM     11  C   UNL d   1      46.512 -19.303  43.783  0.00  0.00     0.000 A 
ATOM     12  C   UNL d   1      46.268 -18.246  44.689  0.00  0.00     0.000 A 
ATOM     13  C   UNL d   1      46.092 -17.447  44.839  0.00  0.00     0.005 A 
ENDBRANCH   1   4
BRANCH   2  14
ATOM     14  C   UNL d   1      46.065 -14.734  44.172  0.00  0.00     0.085 A 
ATOM     15  C   UNL d   1      45.512 -14.340  43.734  0.00  0.00     0.022 A 
ATOM     16  C   UNL d   1      45.338 -13.554  43.894  0.00  0.00     0.041 A 
ATOM     17  C   UNL d   1      45.712 -13.137  44.497  0.00  0.00     0.003 A 
ATOM     18  C   UNL d   1      46.279 -13.528  44.952  0.00  0.00     0.002 A 
ATOM     19  C   UNL d   1      46.474 -14.326  44.810  0.00  0.00     0.019 A 
BRANCH  16  20
ATOM     20  C   UNL d   1      44.756 -13.159  43.424  0.00  0.00     0.196 C 
ATOM     21  O   UNL d   1      43.980 -13.416  43.430  0.00  0.00    -0.287 OA
ATOM     22  C   UNL d   1      44.985 -12.518  42.965  0.00  0.00     0.045 C 
ENDBRANCH  16  20
ENDBRANCH   2  14
TORSDOF 3
ENDMDL
