MODEL 1
REMARK VINA RESULT:      57.8      0.000      0.000
REMARK  8 active torsions:
REMARK  status: ('A' for Active; 'I' for Inactive)
REMARK    1  A    between atoms: N_7  and  N_1 
REMARK    2  A    between atoms: S_9  and  C_2 
REMARK       I    between atoms: C_8  and  N_7 
REMARK    3  A    between atoms: C_16  and  C_8 
REMARK    4  A    between atoms: C_15  and  S_9 
REMARK    5  A    between atoms: C_10  and  C_15 
REMARK       I    between atoms: N_12  and  C_10 
REMARK    6  A    between atoms: C_17  and  N_12 
REMARK    7  A    between atoms: C_19  and  C_16 
REMARK    8  A    between atoms: C_20  and  C_17 
ROOT
ATOM      1  N   UNL d   1      13.317  13.265  -3.428  0.00  0.00    -0.168 N 
ATOM      2  C   UNL d   1      13.550  13.909  -3.860  0.00  0.00     0.199 A 
ATOM      3  C   UNL d   1      13.107  12.562  -3.811  0.00  0.00     0.283 A 
ATOM      4  N   UNL d   1      13.584  13.874  -4.699  0.00  0.00    -0.221 NA
ATOM      5  C   UNL d   1      13.138  12.522  -4.647  0.00  0.00     0.076 A 
ATOM      6  C   UNL d   1      13.377  13.178  -5.087  0.00  0.00     0.088 A 
ATOM      7  O   UNL d   1      12.867  11.903  -3.376  0.00  0.00    -0.265 OA
ATOM      8  C   UNL d   1      12.927  11.815  -5.025  0.00  0.00     0.006 A 
ATOM      9  C   UNL d   1      13.405  13.130  -5.904  0.00  0.00     0.019 A 
ATOM     10  C   UNL d   1      12.959  11.780  -5.850  0.00  0.00     0.000 A 
ATOM     11  C   UNL d   1      13.197  12.436  -6.290  0.00  0.00     0.002 A 
ENDROOT
BRANCH   2  12
ATOM     12  S   UNL d   1      13.757  14.600  -3.483  0.00  0.00    -0.043 SA
BRANCH  12  13
ATOM     13  C   UNL d   1      13.952  15.269  -3.924  0.00  0.00     0.101 C 
BRANCH  13  14
ATOM     14  C   UNL d   1      14.543  15.772  -3.665  0.00  0.00     0.286 C 
ATOM     15  N   UNL d   1      14.461  16.170  -2.951  0.00  0.00    -0.206 NA
ATOM     16  O   UNL d   1      15.222  15.880  -4.120  0.00  0.00    -0.265 OA
BRANCH  15  17
ATOM     17  C   UNL d   1      15.052  16.673  -2.691  0.00  0.00     0.102 C 
BRANCH  17  18
ATOM     18  C   UNL d   1      15.173  16.785  -1.888  0.00  0.00     0.019 A 
ATOM     19  C   UNL d   1      15.236  17.548  -1.578  0.00  0.00     0.002 A 
ATOM     20  C   UNL d   1      15.357  17.660  -0.774  0.00  0.00     0.000 A 
ATOM     21  C   UNL d   1      15.416  17.009  -0.273  0.00  0.00     0.000 A 
ATOM     22  C   UNL d   1      15.353  16.245  -0.585  0.00  0.00     0.000 A 
ATOM     23  C   UNL d   1      15.232  16.134  -1.386  0.00  0.00     0.002 A 
ENDBRANCH  17  18
ENDBRANCH  15  17
ENDBRANCH  13  14
ENDBRANCH  12  13
ENDBRANCH   2  12
BRANCH   1  24
ATOM     24  N   UNL d   1      13.286  13.303  -2.613  0.00  0.00    -0.119 NA
ATOM     25  C   UNL d   1      13.829  12.887  -2.168  0.00  0.00     0.296 C 
ATOM     26  O   UNL d   1      14.410  12.429  -2.531  0.00  0.00    -0.264 OA
BRANCH  25  27
ATOM     27  C   UNL d   1      13.795  12.927  -1.342  0.00  0.00     0.064 C 
BRANCH  27  28
ATOM     28  C   UNL d   1      14.444  12.718  -0.903  0.00  0.00     0.005 A 
ATOM     29  C   UNL d   1      15.067  13.253  -0.821  0.00  0.00     0.000 A 
ATOM     30  C   UNL d   1      15.728  13.041  -0.375  0.00  0.00     0.000 A 
ATOM     31  C   UNL d   1      15.764  12.311  -0.019  0.00  0.00     0.000 A 
ATOM     32  C   UNL d   1      15.133  11.779  -0.106  0.00  0.00     0.000 A 
ATOM     33  C   UNL d   1      14.481  11.989  -0.547  0.00  0.00     0.000 A 
ENDBRANCH  27  28
ENDBRANCH  25  27
ENDBRANCH   1  24
TORSDOF 8
ENDMDL
MODEL 2
REMARK VINA RESULT:      60.0      1.444      4.138
REMARK  8 active torsions:
REMARK  status: ('A' for Active; 'I' for Inactive)
REMARK    1  A    between atoms: N_7  and  N_1 
REMARK    2  A    between atoms: S_9  and  C_2 
REMARK       I    between atoms: C_8  and  N_7 
REMARK    3  A    between atoms: C_16  and  C_8 
REMARK    4  A    between atoms: C_15  and  S_9 
REMARK    5  A    between atoms: C_10  and  C_15 
REMARK       I    between atoms: N_12  and  C_10 
REMARK    6  A    between atoms: C_17  and  N_12 
REMARK    7  A    between atoms: C_19  and  C_16 
REMARK    8  A    between atoms: C_20  and  C_17 
ROOT
ATOM      1  N   UNL d   1      14.143  15.806  -3.513  0.00  0.00    -0.168 N 
ATOM      2  C   UNL d   1      14.702  15.993  -2.959  0.00  0.00     0.199 A 
ATOM      3  C   UNL d   1      14.128  16.203  -4.239  0.00  0.00     0.283 A 
ATOM      4  N   UNL d   1      15.275  16.589  -3.110  0.00  0.00    -0.221 NA
ATOM      5  C   UNL d   1      14.697  16.799  -4.395  0.00  0.00     0.076 A 
ATOM      6  C   UNL d   1      15.267  16.989  -3.830  0.00  0.00     0.088 A 
ATOM      7  O   UNL d   1      13.560  16.018  -4.808  0.00  0.00    -0.265 OA
ATOM      8  C   UNL d   1      14.678  17.193  -5.124  0.00  0.00     0.006 A 
ATOM      9  C   UNL d   1      15.819  17.572  -3.991  0.00  0.00     0.019 A 
ATOM     10  C   UNL d   1      15.241  17.780  -5.274  0.00  0.00     0.000 A 
ATOM     11  C   UNL d   1      15.811  17.970  -4.709  0.00  0.00     0.002 A 
ENDROOT
BRANCH   2  12
ATOM     12  S   UNL d   1      14.716  15.602  -2.245  0.00  0.00    -0.043 SA
BRANCH  12  13
ATOM     13  C   UNL d   1      14.940  16.001  -1.559  0.00  0.00     0.101 C 
BRANCH  13  14
ATOM     14  C   UNL d   1      15.050  15.587  -0.862  0.00  0.00     0.286 C 
ATOM     15  N   UNL d   1      14.721  14.840  -0.771  0.00  0.00    -0.206 NA
ATOM     16  O   UNL d   1      15.491  15.920  -0.250  0.00  0.00    -0.265 OA
BRANCH  15  17
ATOM     17  C   UNL d   1      14.830  14.426  -0.074  0.00  0.00     0.102 C 
BRANCH  17  18
ATOM     18  C   UNL d   1      14.790  13.607  -0.071  0.00  0.00     0.019 A 
ATOM     19  C   UNL d   1      15.479  13.154  -0.112  0.00  0.00     0.002 A 
ATOM     20  C   UNL d   1      15.439  12.335  -0.110  0.00  0.00     0.000 A 
ATOM     21  C   UNL d   1      14.706  11.960  -0.066  0.00  0.00     0.000 A 
ATOM     22  C   UNL d   1      14.016  12.414  -0.025  0.00  0.00     0.000 A 
ATOM     23  C   UNL d   1      14.057  13.232  -0.028  0.00  0.00     0.002 A 
ENDBRANCH  17  18
ENDBRANCH  15  17
ENDBRANCH  13  14
ENDBRANCH  12  13
ENDBRANCH   2  12
BRANCH   1  24
ATOM     24  N   UNL d   1      13.588  15.226  -3.362  0.00  0.00    -0.119 NA
ATOM     25  C   UNL d   1      13.472  14.627  -3.903  0.00  0.00     0.296 C 
ATOM     26  O   UNL d   1      13.909  14.599  -4.603  0.00  0.00    -0.264 OA
BRANCH  25  27
ATOM     27  C   UNL d   1      12.909  14.040  -3.748  0.00  0.00     0.064 C 
BRANCH  27  28
ATOM     28  C   UNL d   1      13.013  13.294  -4.049  0.00  0.00     0.005 A 
ATOM     29  C   UNL d   1      13.146  12.664  -3.533  0.00  0.00     0.000 A 
ATOM     30  C   UNL d   1      13.251  11.906  -3.840  0.00  0.00     0.000 A 
ATOM     31  C   UNL d   1      13.224  11.780  -4.643  0.00  0.00     0.000 A 
ATOM     32  C   UNL d   1      13.090  12.420  -5.154  0.00  0.00     0.000 A 
ATOM     33  C   UNL d   1      12.986  13.169  -4.851  0.00  0.00     0.000 A 
ENDBRANCH  27  28
ENDBRANCH  25  27
ENDBRANCH   1  24
TORSDOF 8
ENDMDL
