MODEL 1
REMARK VINA RESULT:      37.7      0.000      0.000
REMARK  10 active torsions:
REMARK  status: ('A' for Active; 'I' for Inactive)
REMARK    1  A    between atoms: C_15  and  C_3 
REMARK       I    between atoms: C_8  and  N_7 
REMARK    2  A    between atoms: O_29  and  C_8 
REMARK       I    between atoms: N_9  and  C_11 
REMARK    3  A    between atoms: S_17  and  C_10 
REMARK    4  A    between atoms: C_11  and  C_23 
REMARK       I    between atoms: C_13  and  N_26 
REMARK    5  A    between atoms: C_16  and  C_13 
REMARK    6  A    between atoms: C_30  and  C_15 
REMARK    7  A    between atoms: C_23  and  S_17 
REMARK    8  A    between atoms: N_26  and  C_30 
REMARK    9  A    between atoms: C_35  and  O_29 
REMARK   10  A    between atoms: O_34  and  C_31 
ROOT
ATOM      1  N   UNL d   1     -42.767-123.458 -48.967  0.00  0.00    -0.191 N 
ATOM      2  C   UNL d   1     -42.300-123.674 -48.314  0.00  0.00     0.187 A 
ATOM      3  C   UNL d   1     -43.558-123.448 -48.727  0.00  0.00     0.188 A 
ATOM      4  N   UNL d   1     -42.408-123.298 -49.693  0.00  0.00    -0.156 NA
ATOM      5  N   UNL d   1     -42.811-123.797 -47.675  0.00  0.00    -0.127 NA
ATOM      6  N   UNL d   1     -43.584-123.659 -47.924  0.00  0.00    -0.127 NA
ATOM      7  C   UNL d   1     -41.584-123.354 -49.768  0.00  0.00     0.131 A 
ATOM      8  C   UNL d   1     -41.487-123.727 -48.397  0.00  0.00     0.043 A 
ATOM      9  C   UNL d   1     -41.124-123.568 -49.121  0.00  0.00     0.031 A 
ENDROOT
BRANCH   7  10
ATOM     10  S   UNL d   1     -41.228-123.192 -50.501  0.00  0.00    -0.061 SA
BRANCH  10  11
ATOM     11  C   UNL d   1     -41.696-122.930 -51.139  0.00  0.00     0.098 C 
BRANCH  11  12
ATOM     12  C   UNL d   1     -41.505-122.214 -51.517  0.00  0.00     0.272 C 
ATOM     13  N   UNL d   1     -41.703-122.117 -52.306  0.00  0.00    -0.269 N 
ATOM     14  C   UNL d   1     -42.083-122.723 -52.702  0.00  0.00     0.102 A 
ATOM     15  C   UNL d   1     -41.522-121.417 -52.694  0.00  0.00     0.102 A 
ATOM     16  C   UNL d   1     -42.281-122.616 -53.505  0.00  0.00     0.104 A 
ATOM     17  N   UNL d   1     -42.091-121.904 -53.884  0.00  0.00    -0.249 N 
ATOM     18  C   UNL d   1     -41.714-121.312 -53.477  0.00  0.00     0.104 A 
ATOM     19  C   UNL d   1     -42.294-121.808 -54.684  0.00  0.00     0.378 C 
ATOM     20  O   UNL d   1     -42.104-121.095 -55.063  0.00  0.00    -0.237 OA
ATOM     21  O   UNL d   1     -41.123-121.614 -51.105  0.00  0.00    -0.266 OA
BRANCH  19  22
ATOM     22  O   UNL d   1     -42.673-122.411 -55.084  0.00  0.00    -0.257 OA
BRANCH  22  23
ATOM     23  C   UNL d   1     -42.628-122.434 -55.903  0.00  0.00     0.128 C 
ATOM     24  C   UNL d   1     -42.943-123.074 -56.313  0.00  0.00     0.029 C 
ENDBRANCH  22  23
ENDBRANCH  19  22
ENDBRANCH  11  12
ENDBRANCH  10  11
ENDBRANCH   7  10
BRANCH   3  25
ATOM     25  C   UNL d   1     -44.205-123.261 -49.208  0.00  0.00     0.061 C 
BRANCH  25  26
ATOM     26  C   UNL d   1     -44.206-122.561 -49.652  0.00  0.00     0.105 C 
BRANCH  26  27
ATOM     27  N   UNL d   1     -44.741-121.961 -49.463  0.00  0.00    -0.206 NA
ATOM     28  C   UNL d   1     -44.902-121.362 -50.018  0.00  0.00     0.279 C 
ATOM     29  O   UNL d   1     -44.521-121.377 -50.757  0.00  0.00    -0.265 OA
BRANCH  28  30
ATOM     30  C   UNL d   1     -45.434-120.763 -49.832  0.00  0.00     0.058 A 
ATOM     31  C   UNL d   1     -46.015-120.551 -50.378  0.00  0.00     0.007 A 
ATOM     32  C   UNL d   1     -46.551-119.951 -50.197  0.00  0.00     0.024 A 
ATOM     33  C   UNL d   1     -46.501-119.565 -49.467  0.00  0.00     0.094 A 
ATOM     34  C   UNL d   1     -45.920-119.777 -48.921  0.00  0.00     0.024 A 
ATOM     35  C   UNL d   1     -45.384-120.381 -49.109  0.00  0.00     0.007 A 
BRANCH  33  36
ATOM     36  O   UNL d   1     -47.034-118.968 -49.285  0.00  0.00    -0.328 OA
ATOM     37  C   UNL d   1     -46.860-118.423 -48.698  0.00  0.00     0.181 C 
ENDBRANCH  33  36
ENDBRANCH  28  30
ENDBRANCH  26  27
ENDBRANCH  25  26
ENDBRANCH   3  25
TORSDOF 10
ENDMDL
MODEL 2
REMARK VINA RESULT:      39.6      2.669      6.707
REMARK  10 active torsions:
REMARK  status: ('A' for Active; 'I' for Inactive)
REMARK    1  A    between atoms: C_15  and  C_3 
REMARK       I    between atoms: C_8  and  N_7 
REMARK    2  A    between atoms: O_29  and  C_8 
REMARK       I    between atoms: N_9  and  C_11 
REMARK    3  A    between atoms: S_17  and  C_10 
REMARK    4  A    between atoms: C_11  and  C_23 
REMARK       I    between atoms: C_13  and  N_26 
REMARK    5  A    between atoms: C_16  and  C_13 
REMARK    6  A    between atoms: C_30  and  C_15 
REMARK    7  A    between atoms: C_23  and  S_17 
REMARK    8  A    between atoms: N_26  and  C_30 
REMARK    9  A    between atoms: C_35  and  O_29 
REMARK   10  A    between atoms: O_34  and  C_31 
ROOT
ATOM      1  N   UNL d   1     -41.246-122.384 -53.358  0.00  0.00    -0.191 N 
ATOM      2  C   UNL d   1     -41.199-121.622 -53.029  0.00  0.00     0.187 A 
ATOM      3  C   UNL d   1     -41.279-122.308 -54.181  0.00  0.00     0.188 A 
ATOM      4  N   UNL d   1     -41.253-123.046 -52.864  0.00  0.00    -0.156 NA
ATOM      5  N   UNL d   1     -41.203-121.082 -53.655  0.00  0.00    -0.127 NA
ATOM      6  N   UNL d   1     -41.252-121.499 -54.363  0.00  0.00    -0.127 NA
ATOM      7  C   UNL d   1     -41.212-122.947 -52.041  0.00  0.00     0.131 A 
ATOM      8  C   UNL d   1     -41.159-121.534 -52.215  0.00  0.00     0.043 A 
ATOM      9  C   UNL d   1     -41.166-122.192 -51.717  0.00  0.00     0.031 A 
ENDROOT
BRANCH   7  10
ATOM     10  S   UNL d   1     -41.219-123.616 -51.548  0.00  0.00    -0.061 SA
BRANCH  10  11
ATOM     11  C   UNL d   1     -41.429-123.537 -50.747  0.00  0.00     0.098 C 
BRANCH  11  12
ATOM     12  C   UNL d   1     -42.218-123.668 -50.517  0.00  0.00     0.272 C 
ATOM     13  N   UNL d   1     -42.403-123.672 -49.718  0.00  0.00    -0.269 N 
ATOM     14  C   UNL d   1     -41.812-123.547 -49.169  0.00  0.00     0.102 A 
ATOM     15  C   UNL d   1     -43.176-123.800 -49.475  0.00  0.00     0.102 A 
ATOM     16  C   UNL d   1     -42.009-123.553 -48.359  0.00  0.00     0.104 A 
ATOM     17  N   UNL d   1     -42.794-123.683 -48.128  0.00  0.00    -0.249 N 
ATOM     18  C   UNL d   1     -43.370-123.805 -48.686  0.00  0.00     0.104 A 
ATOM     19  C   UNL d   1     -42.980-123.687 -47.318  0.00  0.00     0.378 C 
ATOM     20  O   UNL d   1     -43.765-123.817 -47.087  0.00  0.00    -0.237 OA
ATOM     21  O   UNL d   1     -42.801-123.792 -51.082  0.00  0.00    -0.266 OA
BRANCH  19  22
ATOM     22  O   UNL d   1     -42.392-123.562 -46.764  0.00  0.00    -0.257 OA
BRANCH  22  23
ATOM     23  C   UNL d   1     -42.082-122.807 -46.676  0.00  0.00     0.128 C 
ATOM     24  C   UNL d   1     -41.373-122.611 -47.045  0.00  0.00     0.029 C 
ENDBRANCH  22  23
ENDBRANCH  19  22
ENDBRANCH  11  12
ENDBRANCH  10  11
ENDBRANCH   7  10
BRANCH   3  25
ATOM     25  C   UNL d   1     -41.330-122.933 -54.720  0.00  0.00     0.061 C 
BRANCH  25  26
ATOM     26  C   UNL d   1     -41.878-122.907 -55.340  0.00  0.00     0.105 C 
BRANCH  26  27
ATOM     27  N   UNL d   1     -41.734-122.418 -55.990  0.00  0.00    -0.206 NA
ATOM     28  C   UNL d   1     -42.175-121.718 -56.086  0.00  0.00     0.279 C 
ATOM     29  O   UNL d   1     -42.755-121.520 -55.523  0.00  0.00    -0.265 OA
BRANCH  28  30
ATOM     30  C   UNL d   1     -42.033-121.230 -56.732  0.00  0.00     0.058 A 
ATOM     31  C   UNL d   1     -42.666-120.860 -57.109  0.00  0.00     0.007 A 
ATOM     32  C   UNL d   1     -42.531-120.369 -57.757  0.00  0.00     0.024 A 
ATOM     33  C   UNL d   1     -41.757-120.251 -58.026  0.00  0.00     0.094 A 
ATOM     34  C   UNL d   1     -41.123-120.621 -57.648  0.00  0.00     0.024 A 
ATOM     35  C   UNL d   1     -41.266-121.113 -56.997  0.00  0.00     0.007 A 
BRANCH  33  36
ATOM     36  O   UNL d   1     -41.619-119.763 -58.671  0.00  0.00    -0.328 OA
ATOM     37  C   UNL d   1     -42.121-119.136 -58.830  0.00  0.00     0.181 C 
ENDBRANCH  33  36
ENDBRANCH  28  30
ENDBRANCH  26  27
ENDBRANCH  25  26
ENDBRANCH   3  25
TORSDOF 10
ENDMDL
MODEL 3
REMARK VINA RESULT:      39.7      1.978      5.612
REMARK  10 active torsions:
REMARK  status: ('A' for Active; 'I' for Inactive)
REMARK    1  A    between atoms: C_15  and  C_3 
REMARK       I    between atoms: C_8  and  N_7 
REMARK    2  A    between atoms: O_29  and  C_8 
REMARK       I    between atoms: N_9  and  C_11 
REMARK    3  A    between atoms: S_17  and  C_10 
REMARK    4  A    between atoms: C_11  and  C_23 
REMARK       I    between atoms: C_13  and  N_26 
REMARK    5  A    between atoms: C_16  and  C_13 
REMARK    6  A    between atoms: C_30  and  C_15 
REMARK    7  A    between atoms: C_23  and  S_17 
REMARK    8  A    between atoms: N_26  and  C_30 
REMARK    9  A    between atoms: C_35  and  O_29 
REMARK   10  A    between atoms: O_34  and  C_31 
ROOT
ATOM      1  N   UNL d   1     -41.439-122.393 -50.840  0.00  0.00    -0.191 N 
ATOM      2  C   UNL d   1     -41.337-121.627 -50.534  0.00  0.00     0.187 A 
ATOM      3  C   UNL d   1     -41.544-122.332 -51.658  0.00  0.00     0.188 A 
ATOM      4  N   UNL d   1     -41.423-123.044 -50.332  0.00  0.00    -0.156 NA
ATOM      5  N   UNL d   1     -41.380-121.099 -51.169  0.00  0.00    -0.127 NA
ATOM      6  N   UNL d   1     -41.507-121.528 -51.860  0.00  0.00    -0.127 NA
ATOM      7  C   UNL d   1     -41.304-122.930 -49.519  0.00  0.00     0.131 A 
ATOM      8  C   UNL d   1     -41.221-121.524 -49.729  0.00  0.00     0.043 A 
ATOM      9  C   UNL d   1     -41.203-122.171 -49.218  0.00  0.00     0.031 A 
ENDROOT
BRANCH   7  10
ATOM     10  S   UNL d   1     -41.289-123.589 -49.012  0.00  0.00    -0.061 SA
BRANCH  10  11
ATOM     11  C   UNL d   1     -41.131-123.483 -48.201  0.00  0.00     0.098 C 
BRANCH  11  12
ATOM     12  C   UNL d   1     -41.736-123.625 -47.646  0.00  0.00     0.272 C 
ATOM     13  N   UNL d   1     -42.514-123.635 -47.902  0.00  0.00    -0.269 N 
ATOM     14  C   UNL d   1     -42.679-123.507 -48.692  0.00  0.00     0.102 A 
ATOM     15  C   UNL d   1     -43.121-123.774 -47.368  0.00  0.00     0.102 A 
ATOM     16  C   UNL d   1     -43.474-123.520 -48.943  0.00  0.00     0.104 A 
ATOM     17  N   UNL d   1     -44.077-123.661 -48.393  0.00  0.00    -0.249 N 
ATOM     18  C   UNL d   1     -43.896-123.787 -47.612  0.00  0.00     0.104 A 
ATOM     19  C   UNL d   1     -44.866-123.672 -48.654  0.00  0.00     0.378 C 
ATOM     20  O   UNL d   1     -45.469-123.813 -48.103  0.00  0.00    -0.237 OA
ATOM     21  O   UNL d   1     -41.553-123.752 -46.855  0.00  0.00    -0.266 OA
BRANCH  19  22
ATOM     22  O   UNL d   1     -45.036-123.544 -49.443  0.00  0.00    -0.257 OA
BRANCH  22  23
ATOM     23  C   UNL d   1     -44.950-122.789 -49.751  0.00  0.00     0.128 C 
ATOM     24  C   UNL d   1     -45.223-122.622 -50.509  0.00  0.00     0.029 C 
ENDBRANCH  22  23
ENDBRANCH  19  22
ENDBRANCH  11  12
ENDBRANCH  10  11
ENDBRANCH   7  10
BRANCH   3  25
ATOM     25  C   UNL d   1     -41.664-122.966 -52.176  0.00  0.00     0.061 C 
BRANCH  25  26
ATOM     26  C   UNL d   1     -41.127-123.112 -52.790  0.00  0.00     0.105 C 
BRANCH  26  27
ATOM     27  N   UNL d   1     -41.245-122.757 -53.525  0.00  0.00    -0.206 NA
ATOM     28  C   UNL d   1     -41.913-122.961 -53.980  0.00  0.00     0.279 C 
ATOM     29  O   UNL d   1     -42.452-123.521 -53.684  0.00  0.00    -0.265 OA
BRANCH  28  30
ATOM     30  C   UNL d   1     -42.032-122.609 -54.713  0.00  0.00     0.058 A 
ATOM     31  C   UNL d   1     -41.780-121.834 -54.839  0.00  0.00     0.007 A 
ATOM     32  C   UNL d   1     -41.897-121.476 -55.572  0.00  0.00     0.024 A 
ATOM     33  C   UNL d   1     -42.269-121.899 -56.179  0.00  0.00     0.094 A 
ATOM     34  C   UNL d   1     -42.521-122.674 -56.053  0.00  0.00     0.024 A 
ATOM     35  C   UNL d   1     -42.400-123.028 -55.314  0.00  0.00     0.007 A 
BRANCH  33  36
ATOM     36  O   UNL d   1     -42.387-121.544 -56.910  0.00  0.00    -0.328 OA
ATOM     37  C   UNL d   1     -42.752-120.813 -56.961  0.00  0.00     0.181 C 
ENDBRANCH  33  36
ENDBRANCH  28  30
ENDBRANCH  26  27
ENDBRANCH  25  26
ENDBRANCH   3  25
TORSDOF 10
ENDMDL
