MODEL 1
REMARK VINA RESULT:      -7.2      0.000      0.000
REMARK  7 active torsions:
REMARK  status: ('A' for Active; 'I' for Inactive)
REMARK    1  A    between atoms: C_11  and  C_1 
REMARK    2  A    between atoms: C_12  and  C_3 
REMARK    3  A    between atoms: C_10  and  C_5 
REMARK    4  A    between atoms: O_21  and  C_11 
REMARK    5  A    between atoms: O_22  and  C_12 
REMARK    6  A    between atoms: O_23  and  C_14 
REMARK    7  A    between atoms: O_24  and  C_17 
ROOT
ATOM      1  C   UNL d   1      53.161  33.413  54.112  0.00  0.00     0.075 A 
ATOM      2  C   UNL d   1      53.540  31.883  53.643  0.00  0.00     0.121 A 
ATOM      3  C   UNL d   1      53.850  33.047  54.390  0.00  0.00     0.099 A 
ATOM      4  C   UNL d   1      52.850  32.242  53.361  0.00  0.00     0.058 A 
ATOM      5  C   UNL d   1      52.664  33.012  53.601  0.00  0.00     0.014 A 
ATOM      6  S   UNL d   1      54.037  32.284  54.155  0.00  0.00    -0.062 SA
ATOM      7  N   UNL d   1      53.578  31.129  53.315  0.00  0.00    -0.195 NA
ATOM      8  C   UNL d   1      52.922  31.018  52.835  0.00  0.00     0.311 A 
ATOM      9  S   UNL d   1      52.469  31.708  52.863  0.00  0.00    -0.024 SA
ATOM     10  O   UNL d   1      52.740  30.341  52.399  0.00  0.00    -0.258 OA
ENDROOT
BRANCH   5  11
ATOM     11  C   UNL d   1      51.977  33.368  53.319  0.00  0.00     0.003 A 
ATOM     12  C   UNL d   1      51.976  33.737  52.591  0.00  0.00     0.026 A 
ATOM     13  C   UNL d   1      51.284  34.092  52.313  0.00  0.00     0.116 A 
ATOM     14  C   UNL d   1      50.598  34.073  52.772  0.00  0.00     0.116 A 
ATOM     15  C   UNL d   1      50.605  33.698  53.507  0.00  0.00     0.026 A 
ATOM     16  C   UNL d   1      51.290  33.347  53.781  0.00  0.00     0.002 A 
BRANCH  13  17
ATOM     17  O   UNL d   1      51.281  34.466  51.578  0.00  0.00    -0.326 OA
ATOM     18  C   UNL d   1      51.967  34.473  51.117  0.00  0.00     0.181 C 
ENDBRANCH  13  17
BRANCH  14  19
ATOM     19  O   UNL d   1      49.905  34.428  52.494  0.00  0.00    -0.326 OA
ATOM     20  C   UNL d   1      49.397  34.808  53.020  0.00  0.00     0.181 C 
ENDBRANCH  14  19
ENDBRANCH   5  11
BRANCH   1  21
ATOM     21  C   UNL d   1      52.976  34.178  54.350  0.00  0.00     0.296 C 
ATOM     22  O   UNL d   1      52.474  34.302  54.994  0.00  0.00    -0.259 OA
BRANCH  21  23
ATOM     23  O   UNL d   1      53.292  34.824  53.945  0.00  0.00    -0.296 OA
ATOM     24  C   UNL d   1      53.204  35.580  54.254  0.00  0.00     0.185 C 
ENDBRANCH  21  23
ENDBRANCH   1  21
BRANCH   3  25
ATOM     25  C   UNL d   1      54.347  33.447  54.901  0.00  0.00     0.302 C 
ATOM     26  O   UNL d   1      54.135  33.562  55.690  0.00  0.00    -0.259 OA
BRANCH  25  27
ATOM     27  O   UNL d   1      55.069  33.741  54.629  0.00  0.00    -0.295 OA
ATOM     28  C   UNL d   1      55.702  33.824  55.154  0.00  0.00     0.185 C 
ENDBRANCH  25  27
ENDBRANCH   3  25
TORSDOF 7
ENDMDL
MODEL 2
REMARK VINA RESULT:      -6.6      0.901      3.486
REMARK  7 active torsions:
REMARK  status: ('A' for Active; 'I' for Inactive)
REMARK    1  A    between atoms: C_11  and  C_1 
REMARK    2  A    between atoms: C_12  and  C_3 
REMARK    3  A    between atoms: C_10  and  C_5 
REMARK    4  A    between atoms: O_21  and  C_11 
REMARK    5  A    between atoms: O_22  and  C_12 
REMARK    6  A    between atoms: O_23  and  C_14 
REMARK    7  A    between atoms: O_24  and  C_17 
ROOT
ATOM      1  C   UNL d   1      52.495  33.550  53.312  0.00  0.00     0.075 A 
ATOM      2  C   UNL d   1      52.202  31.994  52.868  0.00  0.00     0.121 A 
ATOM      3  C   UNL d   1      51.839  33.364  52.842  0.00  0.00     0.099 A 
ATOM      4  C   UNL d   1      52.860  32.172  53.338  0.00  0.00     0.058 A 
ATOM      5  C   UNL d   1      53.002  32.958  53.558  0.00  0.00     0.014 A 
ATOM      6  S   UNL d   1      51.695  32.587  52.622  0.00  0.00    -0.062 SA
ATOM      7  N   UNL d   1      52.203  31.181  52.741  0.00  0.00    -0.195 NA
ATOM      8  C   UNL d   1      52.851  30.856  53.124  0.00  0.00     0.311 A 
ATOM      9  S   UNL d   1      53.260  31.470  53.495  0.00  0.00    -0.024 SA
ATOM     10  O   UNL d   1      53.065  30.059  53.140  0.00  0.00    -0.258 OA
ENDROOT
BRANCH   5  11
ATOM     11  C   UNL d   1      53.657  33.134  54.025  0.00  0.00     0.003 A 
ATOM     12  C   UNL d   1      54.381  33.280  53.677  0.00  0.00     0.026 A 
ATOM     13  C   UNL d   1      55.035  33.456  54.149  0.00  0.00     0.116 A 
ATOM     14  C   UNL d   1      54.955  33.483  54.970  0.00  0.00     0.116 A 
ATOM     15  C   UNL d   1      54.220  33.334  55.318  0.00  0.00     0.026 A 
ATOM     16  C   UNL d   1      53.574  33.160  54.849  0.00  0.00     0.002 A 
BRANCH  13  17
ATOM     17  O   UNL d   1      55.767  33.605  53.799  0.00  0.00    -0.326 OA
ATOM     18  C   UNL d   1      55.939  33.288  53.055  0.00  0.00     0.181 C 
ENDBRANCH  13  17
BRANCH  14  19
ATOM     19  O   UNL d   1      55.609  33.659  55.444  0.00  0.00    -0.326 OA
ATOM     20  C   UNL d   1      55.499  33.950  56.207  0.00  0.00     0.181 C 
ENDBRANCH  14  19
ENDBRANCH   5  11
BRANCH   1  21
ATOM     21  C   UNL d   1      52.637  34.330  53.531  0.00  0.00     0.296 C 
ATOM     22  O   UNL d   1      53.070  34.828  53.034  0.00  0.00    -0.259 OA
BRANCH  21  23
ATOM     23  O   UNL d   1      52.347  34.617  54.248  0.00  0.00    -0.296 OA
ATOM     24  C   UNL d   1      52.410  35.418  54.421  0.00  0.00     0.185 C 
ENDBRANCH  21  23
ENDBRANCH   1  21
BRANCH   3  25
ATOM     25  C   UNL d   1      51.332  33.956  52.596  0.00  0.00     0.302 C 
ATOM     26  O   UNL d   1      51.546  34.466  51.985  0.00  0.00    -0.259 OA
BRANCH  25  27
ATOM     27  O   UNL d   1      50.597  34.047  52.961  0.00  0.00    -0.295 OA
ATOM     28  C   UNL d   1      49.965  34.369  52.536  0.00  0.00     0.185 C 
ENDBRANCH  25  27
ENDBRANCH   3  25
TORSDOF 7
ENDMDL
MODEL 3
REMARK VINA RESULT:      -6.2      1.561      2.837
REMARK  7 active torsions:
REMARK  status: ('A' for Active; 'I' for Inactive)
REMARK    1  A    between atoms: C_11  and  C_1 
REMARK    2  A    between atoms: C_12  and  C_3 
REMARK    3  A    between atoms: C_10  and  C_5 
REMARK    4  A    between atoms: O_21  and  C_11 
REMARK    5  A    between atoms: O_22  and  C_12 
REMARK    6  A    between atoms: O_23  and  C_14 
REMARK    7  A    between atoms: O_24  and  C_17 
ROOT
ATOM      1  C   UNL d   1      52.728  33.143  53.536  0.00  0.00     0.075 A 
ATOM      2  C   UNL d   1      53.410  34.356  54.412  0.00  0.00     0.121 A 
ATOM      3  C   UNL d   1      53.373  32.991  54.033  0.00  0.00     0.099 A 
ATOM      4  C   UNL d   1      52.766  34.516  53.918  0.00  0.00     0.058 A 
ATOM      5  C   UNL d   1      52.426  33.901  53.479  0.00  0.00     0.014 A 
ATOM      6  S   UNL d   1      53.712  33.598  54.468  0.00  0.00    -0.062 SA
ATOM      7  N   UNL d   1      53.626  35.065  54.772  0.00  0.00    -0.195 NA
ATOM      8  C   UNL d   1      53.125  35.657  54.507  0.00  0.00     0.311 A 
ATOM      9  S   UNL d   1      52.590  35.319  53.977  0.00  0.00    -0.024 SA
ATOM     10  O   UNL d   1      53.144  36.453  54.726  0.00  0.00    -0.258 OA
ENDROOT
BRANCH   5  11
ATOM     11  C   UNL d   1      51.785  34.061  52.988  0.00  0.00     0.003 A 
ATOM     12  C   UNL d   1      51.035  34.130  53.303  0.00  0.00     0.026 A 
ATOM     13  C   UNL d   1      50.395  34.291  52.807  0.00  0.00     0.116 A 
ATOM     14  C   UNL d   1      50.516  34.381  51.995  0.00  0.00     0.116 A 
ATOM     15  C   UNL d   1      51.277  34.311  51.682  0.00  0.00     0.026 A 
ATOM     16  C   UNL d   1      51.909  34.152  52.174  0.00  0.00     0.002 A 
BRANCH  13  17
ATOM     17  O   UNL d   1      49.637  34.360  53.123  0.00  0.00    -0.326 OA
ATOM     18  C   UNL d   1      49.421  35.048  53.528  0.00  0.00     0.181 C 
ENDBRANCH  13  17
BRANCH  14  19
ATOM     19  O   UNL d   1      49.875  34.543  51.498  0.00  0.00    -0.326 OA
ATOM     20  C   UNL d   1      49.927  34.374  50.692  0.00  0.00     0.181 C 
ENDBRANCH  14  19
ENDBRANCH   5  11
BRANCH   1  21
ATOM     21  C   UNL d   1      52.391  32.532  53.100  0.00  0.00     0.296 C 
ATOM     22  O   UNL d   1      52.658  32.373  52.335  0.00  0.00    -0.259 OA
BRANCH  21  23
ATOM     23  O   UNL d   1      51.784  32.079  53.426  0.00  0.00    -0.296 OA
ATOM     24  C   UNL d   1      51.578  31.364  53.077  0.00  0.00     0.185 C 
ENDBRANCH  21  23
ENDBRANCH   1  21
BRANCH   3  25
ATOM     25  C   UNL d   1      53.675  32.233  54.090  0.00  0.00     0.302 C 
ATOM     26  O   UNL d   1      54.167  31.932  53.501  0.00  0.00    -0.259 OA
BRANCH  25  27
ATOM     27  O   UNL d   1      53.487  31.763  54.742  0.00  0.00    -0.295 OA
ATOM     28  C   UNL d   1      53.996  31.151  54.966  0.00  0.00     0.185 C 
ENDBRANCH  25  27
ENDBRANCH   3  25
TORSDOF 7
ENDMDL
MODEL 4
REMARK VINA RESULT:      -4.7      1.401      3.272
REMARK  7 active torsions:
REMARK  status: ('A' for Active; 'I' for Inactive)
REMARK    1  A    between atoms: C_11  and  C_1 
REMARK    2  A    between atoms: C_12  and  C_3 
REMARK    3  A    between atoms: C_10  and  C_5 
REMARK    4  A    between atoms: O_21  and  C_11 
REMARK    5  A    between atoms: O_22  and  C_12 
REMARK    6  A    between atoms: O_23  and  C_14 
REMARK    7  A    between atoms: O_24  and  C_17 
ROOT
ATOM      1  C   UNL d   1      53.055  33.870  54.075  0.00  0.00     0.075 A 
ATOM      2  C   UNL d   1      51.904  34.514  53.094  0.00  0.00     0.121 A 
ATOM      3  C   UNL d   1      52.821  34.660  54.164  0.00  0.00     0.099 A 
ATOM      4  C   UNL d   1      52.131  33.724  52.999  0.00  0.00     0.058 A 
ATOM      5  C   UNL d   1      52.711  33.405  53.496  0.00  0.00     0.014 A 
ATOM      6  S   UNL d   1      52.247  34.979  53.673  0.00  0.00    -0.062 SA
ATOM      7  N   UNL d   1      51.326  34.673  52.529  0.00  0.00    -0.195 NA
ATOM      8  C   UNL d   1      51.195  33.994  52.090  0.00  0.00     0.311 A 
ATOM      9  S   UNL d   1      51.693  33.404  52.379  0.00  0.00    -0.024 SA
ATOM     10  O   UNL d   1      50.660  33.907  51.466  0.00  0.00    -0.258 OA
ENDROOT
BRANCH   5  11
ATOM     11  C   UNL d   1      52.937  32.619  53.401  0.00  0.00     0.003 A 
ATOM     12  C   UNL d   1      52.476  32.021  53.712  0.00  0.00     0.026 A 
ATOM     13  C   UNL d   1      52.706  31.234  53.614  0.00  0.00     0.116 A 
ATOM     14  C   UNL d   1      53.400  31.055  53.203  0.00  0.00     0.116 A 
ATOM     15  C   UNL d   1      53.862  31.664  52.891  0.00  0.00     0.026 A 
ATOM     16  C   UNL d   1      53.633  32.443  52.988  0.00  0.00     0.002 A 
BRANCH  13  17
ATOM     17  O   UNL d   1      52.242  30.628  53.927  0.00  0.00    -0.326 OA
ATOM     18  C   UNL d   1      51.495  30.474  53.608  0.00  0.00     0.181 C 
ENDBRANCH  13  17
BRANCH  14  19
ATOM     19  O   UNL d   1      53.631  30.267  53.104  0.00  0.00    -0.326 OA
ATOM     20  C   UNL d   1      54.419  30.053  53.212  0.00  0.00     0.181 C 
ENDBRANCH  14  19
ENDBRANCH   5  11
BRANCH   1  21
ATOM     21  C   UNL d   1      53.631  33.552  54.569  0.00  0.00     0.296 C 
ATOM     22  O   UNL d   1      53.412  33.158  55.261  0.00  0.00    -0.259 OA
BRANCH  21  23
ATOM     23  O   UNL d   1      54.429  33.626  54.373  0.00  0.00    -0.296 OA
ATOM     24  C   UNL d   1      55.003  33.470  54.940  0.00  0.00     0.185 C 
ENDBRANCH  21  23
ENDBRANCH   1  21
BRANCH   3  25
ATOM     25  C   UNL d   1      53.165  35.124  54.743  0.00  0.00     0.302 C 
ATOM     26  O   UNL d   1      53.058  34.948  55.541  0.00  0.00    -0.259 OA
BRANCH  25  27
ATOM     27  O   UNL d   1      53.624  35.776  54.529  0.00  0.00    -0.295 OA
ATOM     28  C   UNL d   1      53.498  36.504  54.899  0.00  0.00     0.185 C 
ENDBRANCH  25  27
ENDBRANCH   3  25
TORSDOF 7
ENDMDL
MODEL 5
REMARK VINA RESULT:      -4.6      1.577      3.978
REMARK  7 active torsions:
REMARK  status: ('A' for Active; 'I' for Inactive)
REMARK    1  A    between atoms: C_11  and  C_1 
REMARK    2  A    between atoms: C_12  and  C_3 
REMARK    3  A    between atoms: C_10  and  C_5 
REMARK    4  A    between atoms: O_21  and  C_11 
REMARK    5  A    between atoms: O_22  and  C_12 
REMARK    6  A    between atoms: O_23  and  C_14 
REMARK    7  A    between atoms: O_24  and  C_17 
ROOT
ATOM      1  C   UNL d   1      52.646  33.304  53.545  0.00  0.00     0.075 A 
ATOM      2  C   UNL d   1      53.698  34.195  54.439  0.00  0.00     0.121 A 
ATOM      3  C   UNL d   1      52.528  34.118  53.645  0.00  0.00     0.099 A 
ATOM      4  C   UNL d   1      53.823  33.383  54.345  0.00  0.00     0.058 A 
ATOM      5  C   UNL d   1      53.290  32.939  53.893  0.00  0.00     0.014 A 
ATOM      6  S   UNL d   1      53.054  34.560  54.091  0.00  0.00    -0.062 SA
ATOM      7  N   UNL d   1      54.310  34.485  54.909  0.00  0.00    -0.195 NA
ATOM      8  C   UNL d   1      54.808  33.864  55.104  0.00  0.00     0.311 A 
ATOM      9  S   UNL d   1      54.508  33.179  54.755  0.00  0.00    -0.024 SA
ATOM     10  O   UNL d   1      55.490  33.907  55.567  0.00  0.00    -0.258 OA
ENDROOT
BRANCH   5  11
ATOM     11  C   UNL d   1      53.415  32.130  53.799  0.00  0.00     0.003 A 
ATOM     12  C   UNL d   1      53.174  31.609  54.379  0.00  0.00     0.026 A 
ATOM     13  C   UNL d   1      53.302  30.799  54.281  0.00  0.00     0.116 A 
ATOM     14  C   UNL d   1      53.672  30.521  53.598  0.00  0.00     0.116 A 
ATOM     15  C   UNL d   1      53.915  31.053  53.014  0.00  0.00     0.026 A 
ATOM     16  C   UNL d   1      53.787  31.854  53.113  0.00  0.00     0.002 A 
BRANCH  13  17
ATOM     17  O   UNL d   1      53.058  30.271  54.865  0.00  0.00    -0.326 OA
ATOM     18  C   UNL d   1      53.380  30.322  55.626  0.00  0.00     0.181 C 
ENDBRANCH  13  17
BRANCH  14  19
ATOM     19  O   UNL d   1      53.801  29.710  53.499  0.00  0.00    -0.326 OA
ATOM     20  C   UNL d   1      53.450  29.311  52.869  0.00  0.00     0.181 C 
ENDBRANCH  14  19
ENDBRANCH   5  11
BRANCH   1  21
ATOM     21  C   UNL d   1      52.116  32.862  53.096  0.00  0.00     0.296 C 
ATOM     22  O   UNL d   1      52.263  32.729  52.294  0.00  0.00    -0.259 OA
BRANCH  21  23
ATOM     23  O   UNL d   1      51.437  32.551  53.447  0.00  0.00    -0.296 OA
ATOM     24  C   UNL d   1      50.845  32.234  52.975  0.00  0.00     0.185 C 
ENDBRANCH  21  23
ENDBRANCH   1  21
BRANCH   3  25
ATOM     25  C   UNL d   1      51.884  34.482  53.297  0.00  0.00     0.302 C 
ATOM     26  O   UNL d   1      51.894  34.677  52.496  0.00  0.00    -0.259 OA
BRANCH  25  27
ATOM     27  O   UNL d   1      51.216  34.658  53.749  0.00  0.00    -0.295 OA
ATOM     28  C   UNL d   1      50.668  35.212  53.472  0.00  0.00     0.185 C 
ENDBRANCH  25  27
ENDBRANCH   3  25
TORSDOF 7
ENDMDL
