MODEL 1
REMARK VINA RESULT:      -9.0      0.000      0.000
REMARK  6 active torsions:
REMARK  status: ('A' for Active; 'I' for Inactive)
REMARK    1  A    between atoms: S_5  and  C_2 
REMARK    2  A    between atoms: C_13  and  S_5 
REMARK    3  A    between atoms: N_17  and  C_10 
REMARK    4  A    between atoms: C_24  and  N_17 
REMARK    5  A    between atoms: C_25  and  C_24 
REMARK    6  A    between atoms: C_26  and  C_25 
ROOT
ATOM      1  C   UNL d   1      52.969  34.122  53.925  0.00  0.00     0.198 A 
ATOM      2  C   UNL d   1      52.353  34.638  53.776  0.00  0.00     0.227 A 
ATOM      3  N   UNL d   1      53.466  34.471  54.469  0.00  0.00    -0.192 N 
ATOM      4  N   UNL d   1      53.139  33.365  53.625  0.00  0.00    -0.205 NA
ATOM      5  N   UNL d   1      52.470  35.314  54.234  0.00  0.00    -0.115 NA
ATOM      6  N   UNL d   1      53.157  35.207  54.660  0.00  0.00    -0.058 NA
ATOM      7  C   UNL d   1      54.144  34.069  54.725  0.00  0.00     0.096 A 
ATOM      8  C   UNL d   1      54.314  33.312  54.425  0.00  0.00     0.083 A 
ATOM      9  C   UNL d   1      53.814  32.964  53.879  0.00  0.00     0.172 A 
ATOM     10  S   UNL d   1      55.019  33.052  54.778  0.00  0.00    -0.082 SA
ATOM     11  C   UNL d   1      54.745  34.271  55.262  0.00  0.00     0.027 A 
ATOM     12  C   UNL d   1      55.284  33.647  55.295  0.00  0.00     0.037 A 
ENDROOT
BRANCH   2  13
ATOM     13  S   UNL d   1      51.717  34.516  53.260  0.00  0.00     0.231 S 
ATOM     14  O   UNL d   1      52.149  34.917  52.675  0.00  0.00    -0.215 OA
ATOM     15  O   UNL d   1      51.285  34.116  53.839  0.00  0.00    -0.215 OA
BRANCH  13  16
ATOM     16  C   UNL d   1      51.110  34.421  52.705  0.00  0.00     0.090 A 
ATOM     17  C   UNL d   1      51.294  34.267  51.915  0.00  0.00     0.012 A 
ATOM     18  C   UNL d   1      50.691  34.173  51.367  0.00  0.00     0.007 A 
ATOM     19  C   UNL d   1      49.898  34.231  51.600  0.00  0.00     0.035 A 
ATOM     20  C   UNL d   1      49.718  34.385  52.392  0.00  0.00     0.007 A 
ATOM     21 BR   UNL d   1      49.295  34.137  51.052  0.00  0.00    -0.049 Br
ATOM     22  C   UNL d   1      50.322  34.480  52.945  0.00  0.00     0.012 A 
ENDBRANCH  13  16
ENDBRANCH   2  13
BRANCH   9  23
ATOM     23  N   UNL d   1      53.984  32.210  53.580  0.00  0.00    -0.225 NA
BRANCH  23  24
ATOM     24  C   UNL d   1      53.398  31.630  53.573  0.00  0.00     0.101 C 
BRANCH  24  25
ATOM     25  C   UNL d   1      53.535  30.913  53.191  0.00  0.00     0.021 C 
BRANCH  25  26
ATOM     26  C   UNL d   1      53.062  30.261  53.355  0.00  0.00     0.002 C 
ATOM     27  C   UNL d   1      52.324  30.187  52.998  0.00  0.00     0.000 C 
ATOM     28  C   UNL d   1      53.319  29.676  53.877  0.00  0.00     0.000 C 
ENDBRANCH  25  26
ENDBRANCH  24  25
ENDBRANCH  23  24
ENDBRANCH   9  23
TORSDOF 6
ENDMDL
MODEL 2
REMARK VINA RESULT:      -7.1      1.792      3.853
REMARK  6 active torsions:
REMARK  status: ('A' for Active; 'I' for Inactive)
REMARK    1  A    between atoms: S_5  and  C_2 
REMARK    2  A    between atoms: C_13  and  S_5 
REMARK    3  A    between atoms: N_17  and  C_10 
REMARK    4  A    between atoms: C_24  and  N_17 
REMARK    5  A    between atoms: C_25  and  C_24 
REMARK    6  A    between atoms: C_26  and  C_25 
ROOT
ATOM      1  C   UNL d   1      53.466  33.362  54.172  0.00  0.00     0.198 A 
ATOM      2  C   UNL d   1      53.917  32.681  54.155  0.00  0.00     0.227 A 
ATOM      3  N   UNL d   1      53.926  33.964  54.473  0.00  0.00    -0.192 N 
ATOM      4  N   UNL d   1      52.679  33.508  53.945  0.00  0.00    -0.205 NA
ATOM      5  N   UNL d   1      54.666  32.863  54.450  0.00  0.00    -0.115 NA
ATOM      6  N   UNL d   1      54.668  33.655  54.645  0.00  0.00    -0.058 NA
ATOM      7  C   UNL d   1      53.609  34.725  54.554  0.00  0.00     0.096 A 
ATOM      8  C   UNL d   1      52.822  34.871  54.327  0.00  0.00     0.083 A 
ATOM      9  C   UNL d   1      52.361  34.266  54.025  0.00  0.00     0.172 A 
ATOM     10  S   UNL d   1      52.661  35.673  54.470  0.00  0.00    -0.082 SA
ATOM     11  C   UNL d   1      53.928  35.438  54.836  0.00  0.00     0.027 A 
ATOM     12  C   UNL d   1      53.347  36.021  54.785  0.00  0.00     0.037 A 
ENDROOT
BRANCH   2  13
ATOM     13  S   UNL d   1      53.677  31.933  53.892  0.00  0.00     0.231 S 
ATOM     14  O   UNL d   1      53.464  31.754  54.673  0.00  0.00    -0.215 OA
ATOM     15  O   UNL d   1      53.888  32.108  53.112  0.00  0.00    -0.215 OA
BRANCH  13  16
ATOM     16  C   UNL d   1      53.424  31.174  53.680  0.00  0.00     0.090 A 
ATOM     17  C   UNL d   1      53.024  31.056  52.968  0.00  0.00     0.012 A 
ATOM     18  C   UNL d   1      52.774  30.304  52.760  0.00  0.00     0.007 A 
ATOM     19  C   UNL d   1      52.920  29.659  53.259  0.00  0.00     0.035 A 
ATOM     20  C   UNL d   1      53.321  29.781  53.972  0.00  0.00     0.007 A 
ATOM     21 BR   UNL d   1      52.670  28.906  53.051  0.00  0.00    -0.049 Br
ATOM     22  C   UNL d   1      53.573  30.536  54.183  0.00  0.00     0.012 A 
ENDBRANCH  13  16
ENDBRANCH   2  13
BRANCH   9  23
ATOM     23  N   UNL d   1      51.578  34.411  53.799  0.00  0.00    -0.225 NA
BRANCH  23  24
ATOM     24  C   UNL d   1      51.323  34.205  53.042  0.00  0.00     0.101 C 
BRANCH  24  25
ATOM     25  C   UNL d   1      50.517  34.145  52.882  0.00  0.00     0.021 C 
BRANCH  25  26
ATOM     26  C   UNL d   1      50.237  34.281  52.121  0.00  0.00     0.002 C 
ATOM     27  C   UNL d   1      49.477  34.575  52.008  0.00  0.00     0.000 C 
ATOM     28  C   UNL d   1      50.712  34.126  51.464  0.00  0.00     0.000 C 
ENDBRANCH  25  26
ENDBRANCH  24  25
ENDBRANCH  23  24
ENDBRANCH   9  23
TORSDOF 6
ENDMDL
