MODEL 1
REMARK VINA RESULT:      -6.5      0.000      0.000
REMARK  5 active torsions:
REMARK  status: ('A' for Active; 'I' for Inactive)
REMARK    1  A    between atoms: C_11  and  N_4 
REMARK    2  A    between atoms: C_12  and  N_10 
REMARK    3  A    between atoms: C_14  and  C_11 
REMARK    4  A    between atoms: O_26  and  C_13 
REMARK    5  A    between atoms: O_28  and  C_24 
ROOT
ATOM      1  C   UNL d   1     -47.944  12.167  23.117  0.00  0.00     0.191 A 
ATOM      2  C   UNL d   1     -47.838  12.960  22.915  0.00  0.00     0.173 A 
ATOM      3  C   UNL d   1     -46.473  12.355  22.995  0.00  0.00     0.722 A 
ATOM      4  N   UNL d   1     -49.242  13.154  22.938  0.00  0.00    -0.224 N 
ATOM      5  N   UNL d   1     -47.212  11.810  23.168  0.00  0.00    -0.042 NA
ATOM      6  N   UNL d   1     -47.043  13.080  22.844  0.00  0.00    -0.132 N 
ATOM      7  N   UNL d   1     -48.694  11.852  23.234  0.00  0.00    -0.240 N 
ATOM      8  C   UNL d   1     -49.348  12.360  23.141  0.00  0.00     0.343 A 
ATOM      9  C   UNL d   1     -48.482  13.440  22.829  0.00  0.00     0.288 A 
ATOM     10  N   UNL d   1     -45.678  12.488  22.921  0.00  0.00    -0.138 N 
ATOM     11  C   UNL d   1     -46.699  13.787  22.651  0.00  0.00     0.100 A 
ATOM     12  C   UNL d   1     -45.357  13.226  22.722  0.00  0.00     0.100 A 
ATOM     13  O   UNL d   1     -50.112  12.047  23.258  0.00  0.00    -0.245 OA
ATOM     14  O   UNL d   1     -48.376  14.234  22.626  0.00  0.00    -0.265 OA
ATOM     15  C   UNL d   1     -45.880  13.891  22.583  0.00  0.00     0.036 A 
ATOM     16  C   UNL d   1     -48.799  11.058  23.436  0.00  0.00     0.105 C 
ATOM     17  C   UNL d   1     -45.572  14.634  22.383  0.00  0.00     0.003 C 
ENDROOT
BRANCH  10  18
ATOM     18  C   UNL d   1     -45.181  11.841  23.057  0.00  0.00     0.104 A 
ATOM     19  C   UNL d   1     -44.454  11.793  22.670  0.00  0.00     0.113 A 
ATOM     20  C   UNL d   1     -43.943  11.176  22.777  0.00  0.00     0.050 A 
ATOM     21  C   UNL d   1     -44.148  10.556  23.299  0.00  0.00     0.096 A 
ATOM     22  C   UNL d   1     -44.888  10.596  23.698  0.00  0.00     0.026 A 
ATOM     23  C   UNL d   1     -45.386  11.233  23.571  0.00  0.00     0.022 A 
BRANCH  19  24
ATOM     24  O   UNL d   1     -44.237  12.397  22.152  0.00  0.00    -0.327 OA
ATOM     25  C   UNL d   1     -43.505  12.374  21.800  0.00  0.00     0.181 C 
ENDBRANCH  19  24
BRANCH  21  26
ATOM     26  O   UNL d   1     -43.639   9.905  23.429  0.00  0.00    -0.328 OA
ATOM     27  C   UNL d   1     -43.950   9.171  23.646  0.00  0.00     0.181 C 
ENDBRANCH  21  26
ENDBRANCH  10  18
BRANCH   4  28
ATOM     28  C   UNL d   1     -50.061  13.266  22.952  0.00  0.00     0.090 C 
BRANCH  28  29
ATOM     29  C   UNL d   1     -50.372  14.031  22.983  0.00  0.00     0.045 A 
ATOM     30  C   UNL d   1     -50.754  14.335  22.327  0.00  0.00     0.141 A 
ATOM     31  F   UNL d   1     -50.828  13.883  21.642  0.00  0.00    -0.204 F 
ATOM     32  C   UNL d   1     -51.064  15.096  22.356  0.00  0.00     0.030 A 
ATOM     33  C   UNL d   1     -50.993  15.551  23.038  0.00  0.00     0.002 A 
ATOM     34  C   UNL d   1     -50.605  15.236  23.697  0.00  0.00     0.000 A 
ATOM     35  C   UNL d   1     -50.294  14.474  23.668  0.00  0.00     0.004 A 
ENDBRANCH  28  29
ENDBRANCH   4  28
TORSDOF 5
ENDMDL
MODEL 2
REMARK VINA RESULT:      -4.2      6.895      9.415
REMARK  5 active torsions:
REMARK  status: ('A' for Active; 'I' for Inactive)
REMARK    1  A    between atoms: C_11  and  N_4 
REMARK    2  A    between atoms: C_12  and  N_10 
REMARK    3  A    between atoms: C_14  and  C_11 
REMARK    4  A    between atoms: O_26  and  C_13 
REMARK    5  A    between atoms: O_28  and  C_24 
ROOT
ATOM      1  C   UNL d   1     -40.733  14.371  20.106  0.00  0.00     0.191 A 
ATOM      2  C   UNL d   1     -39.947  14.592  20.231  0.00  0.00     0.173 A 
ATOM      3  C   UNL d   1     -40.299  15.035  18.848  0.00  0.00     0.722 A 
ATOM      4  N   UNL d   1     -40.000  14.040  21.537  0.00  0.00    -0.224 N 
ATOM      5  N   UNL d   1     -40.953  14.601  19.356  0.00  0.00    -0.042 NA
ATOM      6  N   UNL d   1     -39.695  14.954  19.556  0.00  0.00    -0.132 N 
ATOM      7  N   UNL d   1     -41.165  13.984  20.688  0.00  0.00    -0.240 N 
ATOM      8  C   UNL d   1     -40.786  13.819  21.412  0.00  0.00     0.343 A 
ATOM      9  C   UNL d   1     -39.593  14.425  20.938  0.00  0.00     0.288 A 
ATOM     10  N   UNL d   1     -40.035  15.401  18.176  0.00  0.00    -0.138 N 
ATOM     11  C   UNL d   1     -38.952  15.257  19.445  0.00  0.00     0.100 A 
ATOM     12  C   UNL d   1     -39.266  15.700  18.094  0.00  0.00     0.100 A 
ATOM     13  O   UNL d   1     -41.219  13.427  22.006  0.00  0.00    -0.245 OA
ATOM     14  O   UNL d   1     -38.806  14.646  21.064  0.00  0.00    -0.265 OA
ATOM     15  C   UNL d   1     -38.712  15.626  18.744  0.00  0.00     0.036 A 
ATOM     16  C   UNL d   1     -41.951  13.763  20.562  0.00  0.00     0.105 C 
ATOM     17  C   UNL d   1     -37.940  15.921  18.675  0.00  0.00     0.003 C 
ENDROOT
BRANCH  10  18
ATOM     18  C   UNL d   1     -40.576  15.468  17.554  0.00  0.00     0.104 A 
ATOM     19  C   UNL d   1     -40.366  15.215  16.797  0.00  0.00     0.113 A 
ATOM     20  C   UNL d   1     -40.868  15.264  16.166  0.00  0.00     0.050 A 
ATOM     21  C   UNL d   1     -41.634  15.582  16.272  0.00  0.00     0.096 A 
ATOM     22  C   UNL d   1     -41.857  15.843  17.040  0.00  0.00     0.026 A 
ATOM     23  C   UNL d   1     -41.328  15.781  17.661  0.00  0.00     0.022 A 
BRANCH  19  24
ATOM     24  O   UNL d   1     -39.614  14.898  16.677  0.00  0.00    -0.327 OA
ATOM     25  C   UNL d   1     -39.532  14.233  16.218  0.00  0.00     0.181 C 
ENDBRANCH  19  24
BRANCH  21  26
ATOM     26  O   UNL d   1     -42.175  15.645  15.636  0.00  0.00    -0.328 OA
ATOM     27  C   UNL d   1     -42.943  15.920  15.770  0.00  0.00     0.181 C 
ENDBRANCH  21  26
ENDBRANCH  10  18
BRANCH   4  28
ATOM     28  C   UNL d   1     -40.031  13.719  22.297  0.00  0.00     0.090 C 
BRANCH  28  29
ATOM     29  C   UNL d   1     -39.331  13.538  22.698  0.00  0.00     0.045 A 
ATOM     30  C   UNL d   1     -39.073  14.031  23.298  0.00  0.00     0.141 A 
ATOM     31  F   UNL d   1     -39.508  14.701  23.500  0.00  0.00    -0.204 F 
ATOM     32  C   UNL d   1     -38.377  13.853  23.698  0.00  0.00     0.030 A 
ATOM     33  C   UNL d   1     -37.941  13.184  23.498  0.00  0.00     0.002 A 
ATOM     34  C   UNL d   1     -38.208  12.691  22.890  0.00  0.00     0.000 A 
ATOM     35  C   UNL d   1     -38.905  12.870  22.490  0.00  0.00     0.004 A 
ENDBRANCH  28  29
ENDBRANCH   4  28
TORSDOF 5
ENDMDL
