MODEL 1
REMARK VINA RESULT:      -7.2      0.000      0.000
REMARK  4 active torsions:
REMARK  status: ('A' for Active; 'I' for Inactive)
REMARK    1  A    between atoms: C_2  and  C_1 
REMARK       I    between atoms: N_3  and  C_1 
REMARK       I    between atoms: N_4  and  C_2 
REMARK    2  A    between atoms: C_8  and  N_3 
REMARK    3  A    between atoms: C_9  and  N_4 
REMARK    4  A    between atoms: C_10  and  C_9 
ROOT
ATOM      1  C   UNL d   1     -49.527  12.841  21.736  0.00  0.00     0.337 C 
ATOM      2  N   UNL d   1     -49.709  13.604  21.482  0.00  0.00    -0.204 NA
ATOM      3  O   UNL d   1     -49.306  12.265  21.188  0.00  0.00    -0.260 OA
ENDROOT
BRANCH   1   4
ATOM      4  C   UNL d   1     -49.567  12.655  22.536  0.00  0.00     0.337 C 
ATOM      5  N   UNL d   1     -48.891  12.386  22.934  0.00  0.00    -0.201 NA
ATOM      6  O   UNL d   1     -50.279  12.734  22.944  0.00  0.00    -0.260 OA
BRANCH   5   7
ATOM      7  C   UNL d   1     -48.179  12.306  22.525  0.00  0.00     0.121 C 
BRANCH   7   8
ATOM      8  C   UNL d   1     -47.505  12.066  22.913  0.00  0.00     0.101 A 
ATOM      9  N   UNL d   1     -46.845  12.562  22.925  0.00  0.00    -0.242 NA
ATOM     10  C   UNL d   1     -46.158  12.325  23.317  0.00  0.00     0.099 A 
ATOM     11  C   UNL d   1     -46.131  11.597  23.693  0.00  0.00     0.021 A 
ATOM     12  C   UNL d   1     -46.791  11.101  23.681  0.00  0.00     0.003 A 
ATOM     13  C   UNL d   1     -47.478  11.338  23.289  0.00  0.00     0.021 A 
ENDBRANCH   7   8
ENDBRANCH   5   7
ENDBRANCH   1   4
BRANCH   2  14
ATOM     14  C   UNL d   1     -49.930  14.180  22.030  0.00  0.00     0.085 A 
ATOM     15  C   UNL d   1     -50.715  14.230  22.282  0.00  0.00     0.019 A 
ATOM     16  C   UNL d   1     -50.936  14.805  22.831  0.00  0.00     0.002 A 
ATOM     17  C   UNL d   1     -50.373  15.331  23.126  0.00  0.00     0.000 A 
ATOM     18  C   UNL d   1     -49.597  15.278  22.874  0.00  0.00     0.002 A 
ATOM     19  C   UNL d   1     -50.594  15.906  23.675  0.00  0.00     0.000 C 
ATOM     20  C   UNL d   1     -49.376  14.703  22.326  0.00  0.00     0.019 A 
ENDBRANCH   2  14
TORSDOF 4
ENDMDL
MODEL 2
REMARK VINA RESULT:      -6.7      2.010      2.894
REMARK  4 active torsions:
REMARK  status: ('A' for Active; 'I' for Inactive)
REMARK    1  A    between atoms: C_2  and  C_1 
REMARK       I    between atoms: N_3  and  C_1 
REMARK       I    between atoms: N_4  and  C_2 
REMARK    2  A    between atoms: C_8  and  N_3 
REMARK    3  A    between atoms: C_9  and  N_4 
REMARK    4  A    between atoms: C_10  and  C_9 
ROOT
ATOM      1  C   UNL d   1     -46.459  13.212  22.368  0.00  0.00     0.337 C 
ATOM      2  N   UNL d   1     -47.167  13.246  21.946  0.00  0.00    -0.204 NA
ATOM      3  O   UNL d   1     -45.750  13.418  22.000  0.00  0.00    -0.260 OA
ENDROOT
BRANCH   1   4
ATOM      4  C   UNL d   1     -46.461  12.972  23.154  0.00  0.00     0.337 C 
ATOM      5  N   UNL d   1     -45.964  12.358  23.402  0.00  0.00    -0.201 NA
ATOM      6  O   UNL d   1     -46.958  13.344  23.698  0.00  0.00    -0.260 OA
BRANCH   5   7
ATOM      7  C   UNL d   1     -45.467  11.987  22.858  0.00  0.00     0.121 C 
BRANCH   7   8
ATOM      8  C   UNL d   1     -44.985  11.374  23.090  0.00  0.00     0.101 A 
ATOM      9  N   UNL d   1     -44.172  11.422  22.952  0.00  0.00    -0.242 NA
ATOM     10  C   UNL d   1     -43.677  10.804  23.186  0.00  0.00     0.099 A 
ATOM     11  C   UNL d   1     -43.992  10.143  23.554  0.00  0.00     0.021 A 
ATOM     12  C   UNL d   1     -44.804  10.095  23.692  0.00  0.00     0.003 A 
ATOM     13  C   UNL d   1     -45.300  10.713  23.459  0.00  0.00     0.021 A 
ENDBRANCH   7   8
ENDBRANCH   5   7
ENDBRANCH   1   4
BRANCH   2  14
ATOM     14  C   UNL d   1     -47.877  13.041  22.314  0.00  0.00     0.085 A 
ATOM     15  C   UNL d   1     -48.305  13.609  22.732  0.00  0.00     0.019 A 
ATOM     16  C   UNL d   1     -49.014  13.403  23.100  0.00  0.00     0.002 A 
ATOM     17  C   UNL d   1     -49.295  12.629  23.050  0.00  0.00     0.000 A 
ATOM     18  C   UNL d   1     -48.868  12.069  22.635  0.00  0.00     0.002 A 
ATOM     19  C   UNL d   1     -50.004  12.423  23.418  0.00  0.00     0.000 C 
ATOM     20  C   UNL d   1     -48.159  12.274  22.267  0.00  0.00     0.019 A 
ENDBRANCH   2  14
TORSDOF 4
ENDMDL
MODEL 3
REMARK VINA RESULT:      -6.7      1.478      2.035
REMARK  4 active torsions:
REMARK  status: ('A' for Active; 'I' for Inactive)
REMARK    1  A    between atoms: C_2  and  C_1 
REMARK       I    between atoms: N_3  and  C_1 
REMARK       I    between atoms: N_4  and  C_2 
REMARK    2  A    between atoms: C_8  and  N_3 
REMARK    3  A    between atoms: C_9  and  N_4 
REMARK    4  A    between atoms: C_10  and  C_9 
ROOT
ATOM      1  C   UNL d   1     -47.537  14.182  22.745  0.00  0.00     0.337 C 
ATOM      2  N   UNL d   1     -48.267  14.449  23.022  0.00  0.00    -0.204 NA
ATOM      3  O   UNL d   1     -46.840  14.526  23.023  0.00  0.00    -0.260 OA
ENDROOT
BRANCH   1   4
ATOM      4  C   UNL d   1     -47.504  13.574  22.193  0.00  0.00     0.337 C 
ATOM      5  N   UNL d   1     -47.074  12.885  22.359  0.00  0.00    -0.201 NA
ATOM      6  O   UNL d   1     -47.900  13.648  21.473  0.00  0.00    -0.260 OA
BRANCH   5   7
ATOM      7  C   UNL d   1     -46.679  12.812  23.079  0.00  0.00     0.121 C 
BRANCH   7   8
ATOM      8  C   UNL d   1     -46.263  12.135  23.255  0.00  0.00     0.101 A 
ATOM      9  N   UNL d   1     -45.443  12.126  23.162  0.00  0.00    -0.242 NA
ATOM     10  C   UNL d   1     -45.015  11.442  23.339  0.00  0.00     0.099 A 
ATOM     11  C   UNL d   1     -45.405  10.772  23.605  0.00  0.00     0.021 A 
ATOM     12  C   UNL d   1     -46.225  10.780  23.697  0.00  0.00     0.003 A 
ATOM     13  C   UNL d   1     -46.653  11.464  23.521  0.00  0.00     0.021 A 
ENDBRANCH   7   8
ENDBRANCH   5   7
ENDBRANCH   1   4
BRANCH   2  14
ATOM     14  C   UNL d   1     -48.963  14.105  22.744  0.00  0.00     0.085 A 
ATOM     15  C   UNL d   1     -49.313  13.484  23.162  0.00  0.00     0.019 A 
ATOM     16  C   UNL d   1     -50.010  13.140  22.884  0.00  0.00     0.002 A 
ATOM     17  C   UNL d   1     -50.356  13.417  22.188  0.00  0.00     0.000 A 
ATOM     18  C   UNL d   1     -50.007  14.031  21.777  0.00  0.00     0.002 A 
ATOM     19  C   UNL d   1     -51.053  13.072  21.910  0.00  0.00     0.000 C 
ATOM     20  C   UNL d   1     -49.311  14.375  22.055  0.00  0.00     0.019 A 
ENDBRANCH   2  14
TORSDOF 4
ENDMDL
MODEL 4
REMARK VINA RESULT:      -6.5      1.172      4.003
REMARK  4 active torsions:
REMARK  status: ('A' for Active; 'I' for Inactive)
REMARK    1  A    between atoms: C_2  and  C_1 
REMARK       I    between atoms: N_3  and  C_1 
REMARK       I    between atoms: N_4  and  C_2 
REMARK    2  A    between atoms: C_8  and  N_3 
REMARK    3  A    between atoms: C_9  and  N_4 
REMARK    4  A    between atoms: C_10  and  C_9 
ROOT
ATOM      1  C   UNL d   1     -48.466  12.066  23.329  0.00  0.00     0.337 C 
ATOM      2  N   UNL d   1     -47.728  12.091  23.697  0.00  0.00    -0.204 NA
ATOM      3  O   UNL d   1     -49.096  11.678  23.695  0.00  0.00    -0.260 OA
ENDROOT
BRANCH   1   4
ATOM      4  C   UNL d   1     -48.573  12.426  22.598  0.00  0.00     0.337 C 
ATOM      5  N   UNL d   1     -49.114  13.049  22.518  0.00  0.00    -0.201 NA
ATOM      6  O   UNL d   1     -48.142  12.169  21.943  0.00  0.00    -0.260 OA
BRANCH   5   7
ATOM      7  C   UNL d   1     -49.544  13.306  23.173  0.00  0.00     0.121 C 
BRANCH   7   8
ATOM      8  C   UNL d   1     -50.021  13.964  23.121  0.00  0.00     0.101 A 
ATOM      9  N   UNL d   1     -49.933  14.573  23.672  0.00  0.00    -0.242 NA
ATOM     10  C   UNL d   1     -50.413  15.243  23.626  0.00  0.00     0.099 A 
ATOM     11  C   UNL d   1     -50.977  15.303  23.033  0.00  0.00     0.021 A 
ATOM     12  C   UNL d   1     -51.064  14.694  22.483  0.00  0.00     0.003 A 
ATOM     13  C   UNL d   1     -50.584  14.024  22.529  0.00  0.00     0.021 A 
ENDBRANCH   7   8
ENDBRANCH   5   7
ENDBRANCH   1   4
BRANCH   2  14
ATOM     14  C   UNL d   1     -47.098  12.478  23.331  0.00  0.00     0.085 A 
ATOM     15  C   UNL d   1     -46.968  13.281  23.473  0.00  0.00     0.019 A 
ATOM     16  C   UNL d   1     -46.338  13.668  23.107  0.00  0.00     0.002 A 
ATOM     17  C   UNL d   1     -45.839  13.252  22.598  0.00  0.00     0.000 A 
ATOM     18  C   UNL d   1     -45.970  12.458  22.460  0.00  0.00     0.002 A 
ATOM     19  C   UNL d   1     -45.209  13.640  22.232  0.00  0.00     0.000 C 
ATOM     20  C   UNL d   1     -46.600  12.070  22.826  0.00  0.00     0.019 A 
ENDBRANCH   2  14
TORSDOF 4
ENDMDL
MODEL 5
REMARK VINA RESULT:      -6.4      1.489      2.206
REMARK  4 active torsions:
REMARK  status: ('A' for Active; 'I' for Inactive)
REMARK    1  A    between atoms: C_2  and  C_1 
REMARK       I    between atoms: N_3  and  C_1 
REMARK       I    between atoms: N_4  and  C_2 
REMARK    2  A    between atoms: C_8  and  N_3 
REMARK    3  A    between atoms: C_9  and  N_4 
REMARK    4  A    between atoms: C_10  and  C_9 
ROOT
ATOM      1  C   UNL d   1     -48.832  14.602  22.285  0.00  0.00     0.337 C 
ATOM      2  N   UNL d   1     -49.496  14.230  21.965  0.00  0.00    -0.204 NA
ATOM      3  O   UNL d   1     -48.440  15.186  21.854  0.00  0.00    -0.260 OA
ENDROOT
BRANCH   1   4
ATOM      4  C   UNL d   1     -48.563  14.389  23.031  0.00  0.00     0.337 C 
ATOM      5  N   UNL d   1     -47.828  14.015  23.117  0.00  0.00    -0.201 NA
ATOM      6  O   UNL d   1     -49.022  14.548  23.698  0.00  0.00    -0.260 OA
BRANCH   5   7
ATOM      7  C   UNL d   1     -47.368  13.857  22.451  0.00  0.00     0.121 C 
BRANCH   7   8
ATOM      8  C   UNL d   1     -46.660  13.463  22.522  0.00  0.00     0.101 A 
ATOM      9  N   UNL d   1     -46.631  12.751  22.938  0.00  0.00    -0.242 NA
ATOM     10  C   UNL d   1     -45.915  12.346  23.014  0.00  0.00     0.099 A 
ATOM     11  C   UNL d   1     -45.233  12.652  22.676  0.00  0.00     0.021 A 
ATOM     12  C   UNL d   1     -45.262  13.365  22.260  0.00  0.00     0.003 A 
ATOM     13  C   UNL d   1     -45.978  13.769  22.184  0.00  0.00     0.021 A 
ENDBRANCH   7   8
ENDBRANCH   5   7
ENDBRANCH   1   4
BRANCH   2  14
ATOM     14  C   UNL d   1     -49.888  13.645  22.396  0.00  0.00     0.085 A 
ATOM     15  C   UNL d   1     -50.384  13.856  23.022  0.00  0.00     0.019 A 
ATOM     16  C   UNL d   1     -50.776  13.272  23.452  0.00  0.00     0.002 A 
ATOM     17  C   UNL d   1     -50.672  12.477  23.258  0.00  0.00     0.000 A 
ATOM     18  C   UNL d   1     -50.180  12.272  22.638  0.00  0.00     0.002 A 
ATOM     19  C   UNL d   1     -51.064  11.892  23.688  0.00  0.00     0.000 C 
ATOM     20  C   UNL d   1     -49.788  12.856  22.207  0.00  0.00     0.019 A 
ENDBRANCH   2  14
TORSDOF 4
ENDMDL
MODEL 6
REMARK VINA RESULT:      -6.3      1.562      4.324
REMARK  4 active torsions:
REMARK  status: ('A' for Active; 'I' for Inactive)
REMARK    1  A    between atoms: C_2  and  C_1 
REMARK       I    between atoms: N_3  and  C_1 
REMARK       I    between atoms: N_4  and  C_2 
REMARK    2  A    between atoms: C_8  and  N_3 
REMARK    3  A    between atoms: C_9  and  N_4 
REMARK    4  A    between atoms: C_10  and  C_9 
ROOT
ATOM      1  C   UNL d   1     -47.142  14.147  22.619  0.00  0.00     0.337 C 
ATOM      2  N   UNL d   1     -46.743  13.847  23.277  0.00  0.00    -0.204 NA
ATOM      3  O   UNL d   1     -47.360  14.942  22.597  0.00  0.00    -0.260 OA
ENDROOT
BRANCH   1   4
ATOM      4  C   UNL d   1     -47.321  13.653  21.988  0.00  0.00     0.337 C 
ATOM      5  N   UNL d   1     -48.106  13.563  21.740  0.00  0.00    -0.201 NA
ATOM      6  O   UNL d   1     -46.718  13.245  21.598  0.00  0.00    -0.260 OA
BRANCH   5   7
ATOM      7  C   UNL d   1     -48.708  13.971  22.129  0.00  0.00     0.121 C 
BRANCH   7   8
ATOM      8  C   UNL d   1     -49.486  13.866  21.913  0.00  0.00     0.101 A 
ATOM      9  N   UNL d   1     -50.038  14.454  22.084  0.00  0.00    -0.242 NA
ATOM     10  C   UNL d   1     -50.829  14.354  21.867  0.00  0.00     0.099 A 
ATOM     11  C   UNL d   1     -51.064  13.669  21.481  0.00  0.00     0.021 A 
ATOM     12  C   UNL d   1     -50.512  13.081  21.310  0.00  0.00     0.003 A 
ATOM     13  C   UNL d   1     -49.721  13.181  21.527  0.00  0.00     0.021 A 
ENDBRANCH   7   8
ENDBRANCH   5   7
ENDBRANCH   1   4
BRANCH   2  14
ATOM     14  C   UNL d   1     -46.525  13.052  23.299  0.00  0.00     0.085 A 
ATOM     15  C   UNL d   1     -45.823  12.806  22.940  0.00  0.00     0.019 A 
ATOM     16  C   UNL d   1     -45.605  12.011  22.963  0.00  0.00     0.002 A 
ATOM     17  C   UNL d   1     -46.089  11.462  23.344  0.00  0.00     0.000 A 
ATOM     18  C   UNL d   1     -46.783  11.708  23.698  0.00  0.00     0.002 A 
ATOM     19  C   UNL d   1     -45.870  10.666  23.366  0.00  0.00     0.000 C 
ATOM     20  C   UNL d   1     -47.001  12.504  23.676  0.00  0.00     0.019 A 
ENDBRANCH   2  14
TORSDOF 4
ENDMDL
MODEL 7
REMARK VINA RESULT:      -6.0      8.886     10.493
REMARK  4 active torsions:
REMARK  status: ('A' for Active; 'I' for Inactive)
REMARK    1  A    between atoms: C_2  and  C_1 
REMARK       I    between atoms: N_3  and  C_1 
REMARK       I    between atoms: N_4  and  C_2 
REMARK    2  A    between atoms: C_8  and  N_3 
REMARK    3  A    between atoms: C_9  and  N_4 
REMARK    4  A    between atoms: C_10  and  C_9 
ROOT
ATOM      1  C   UNL d   1     -40.648  15.227  18.420  0.00  0.00     0.337 C 
ATOM      2  N   UNL d   1     -40.494  15.619  19.130  0.00  0.00    -0.204 NA
ATOM      3  O   UNL d   1     -40.848  15.660  17.747  0.00  0.00    -0.260 OA
ENDROOT
BRANCH   1   4
ATOM      4  C   UNL d   1     -40.603  14.408  18.385  0.00  0.00     0.337 C 
ATOM      5  N   UNL d   1     -40.054  14.043  17.882  0.00  0.00    -0.201 NA
ATOM      6  O   UNL d   1     -41.102  13.945  18.851  0.00  0.00    -0.260 OA
BRANCH   5   7
ATOM      7  C   UNL d   1     -39.555  14.506  17.416  0.00  0.00     0.121 C 
BRANCH   7   8
ATOM      8  C   UNL d   1     -39.021  14.157  16.910  0.00  0.00     0.101 A 
ATOM      9  N   UNL d   1     -38.822  14.537  16.205  0.00  0.00    -0.242 NA
ATOM     10  C   UNL d   1     -38.281  14.188  15.687  0.00  0.00     0.099 A 
ATOM     11  C   UNL d   1     -37.942  13.465  15.874  0.00  0.00     0.021 A 
ATOM     12  C   UNL d   1     -38.142  13.085  16.579  0.00  0.00     0.003 A 
ATOM     13  C   UNL d   1     -38.683  13.434  17.097  0.00  0.00     0.021 A 
ENDBRANCH   7   8
ENDBRANCH   5   7
ENDBRANCH   1   4
BRANCH   2  14
ATOM     14  C   UNL d   1     -40.294  15.187  19.804  0.00  0.00     0.085 A 
ATOM     15  C   UNL d   1     -39.503  15.110  20.026  0.00  0.00     0.019 A 
ATOM     16  C   UNL d   1     -39.303  14.678  20.699  0.00  0.00     0.002 A 
ATOM     17  C   UNL d   1     -39.895  14.322  21.151  0.00  0.00     0.000 A 
ATOM     18  C   UNL d   1     -40.677  14.400  20.929  0.00  0.00     0.002 A 
ATOM     19  C   UNL d   1     -39.695  13.890  21.825  0.00  0.00     0.000 C 
ATOM     20  C   UNL d   1     -40.877  14.832  20.255  0.00  0.00     0.019 A 
ENDBRANCH   2  14
TORSDOF 4
ENDMDL
MODEL 8
REMARK VINA RESULT:      -5.5      9.472     10.609
REMARK  4 active torsions:
REMARK  status: ('A' for Active; 'I' for Inactive)
REMARK    1  A    between atoms: C_2  and  C_1 
REMARK       I    between atoms: N_3  and  C_1 
REMARK       I    between atoms: N_4  and  C_2 
REMARK    2  A    between atoms: C_8  and  N_3 
REMARK    3  A    between atoms: C_9  and  N_4 
REMARK    4  A    between atoms: C_10  and  C_9 
ROOT
ATOM      1  C   UNL d   1     -40.512  14.403  18.930  0.00  0.00     0.337 C 
ATOM      2  N   UNL d   1     -40.514  13.926  18.257  0.00  0.00    -0.204 NA
ATOM      3  O   UNL d   1     -41.138  14.361  19.466  0.00  0.00    -0.260 OA
ENDROOT
BRANCH   1   4
ATOM      4  C   UNL d   1     -39.887  14.919  19.066  0.00  0.00     0.337 C 
ATOM      5  N   UNL d   1     -39.451  14.868  19.769  0.00  0.00    -0.201 NA
ATOM      6  O   UNL d   1     -39.692  15.489  18.502  0.00  0.00    -0.260 OA
BRANCH   5   7
ATOM      7  C   UNL d   1     -39.647  14.298  20.332  0.00  0.00     0.121 C 
BRANCH   7   8
ATOM      8  C   UNL d   1     -39.247  14.263  21.040  0.00  0.00     0.101 A 
ATOM      9  N   UNL d   1     -39.386  14.839  21.615  0.00  0.00    -0.242 NA
ATOM     10  C   UNL d   1     -38.984  14.809  22.335  0.00  0.00     0.099 A 
ATOM     11  C   UNL d   1     -38.445  14.208  22.479  0.00  0.00     0.021 A 
ATOM     12  C   UNL d   1     -38.306  13.632  21.904  0.00  0.00     0.003 A 
ATOM     13  C   UNL d   1     -38.708  13.662  21.184  0.00  0.00     0.021 A 
ENDBRANCH   7   8
ENDBRANCH   5   7
ENDBRANCH   1   4
BRANCH   2  14
ATOM     14  C   UNL d   1     -39.889  13.968  17.720  0.00  0.00     0.085 A 
ATOM     15  C   UNL d   1     -39.277  13.415  17.755  0.00  0.00     0.019 A 
ATOM     16  C   UNL d   1     -38.651  13.457  17.218  0.00  0.00     0.002 A 
ATOM     17  C   UNL d   1     -38.638  14.052  16.647  0.00  0.00     0.000 A 
ATOM     18  C   UNL d   1     -39.245  14.599  16.616  0.00  0.00     0.002 A 
ATOM     19  C   UNL d   1     -38.012  14.095  16.111  0.00  0.00     0.000 C 
ATOM     20  C   UNL d   1     -39.871  14.557  17.152  0.00  0.00     0.019 A 
ENDBRANCH   2  14
TORSDOF 4
ENDMDL
MODEL 9
REMARK VINA RESULT:      -5.5      8.811     10.112
REMARK  4 active torsions:
REMARK  status: ('A' for Active; 'I' for Inactive)
REMARK    1  A    between atoms: C_2  and  C_1 
REMARK       I    between atoms: N_3  and  C_1 
REMARK       I    between atoms: N_4  and  C_2 
REMARK    2  A    between atoms: C_8  and  N_3 
REMARK    3  A    between atoms: C_9  and  N_4 
REMARK    4  A    between atoms: C_10  and  C_9 
ROOT
ATOM      1  C   UNL d   1     -40.637  15.298  20.932  0.00  0.00     0.337 C 
ATOM      2  N   UNL d   1     -40.014  15.404  21.462  0.00  0.00    -0.204 NA
ATOM      3  O   UNL d   1     -41.156  15.921  20.776  0.00  0.00    -0.260 OA
ENDROOT
BRANCH   1   4
ATOM      4  C   UNL d   1     -40.742  14.573  20.560  0.00  0.00     0.337 C 
ATOM      5  N   UNL d   1     -40.694  14.518  19.735  0.00  0.00    -0.201 NA
ATOM      6  O   UNL d   1     -40.894  13.897  21.008  0.00  0.00    -0.260 OA
BRANCH   5   7
ATOM      7  C   UNL d   1     -40.542  15.194  19.287  0.00  0.00     0.121 C 
BRANCH   7   8
ATOM      8  C   UNL d   1     -40.529  15.157  18.474  0.00  0.00     0.101 A 
ATOM      9  N   UNL d   1     -41.029  15.647  18.037  0.00  0.00    -0.242 NA
ATOM     10  C   UNL d   1     -41.021  15.615  17.212  0.00  0.00     0.099 A 
ATOM     11  C   UNL d   1     -40.515  15.096  16.827  0.00  0.00     0.021 A 
ATOM     12  C   UNL d   1     -40.015  14.606  17.265  0.00  0.00     0.003 A 
ATOM     13  C   UNL d   1     -40.023  14.639  18.090  0.00  0.00     0.021 A 
ENDBRANCH   7   8
ENDBRANCH   5   7
ENDBRANCH   1   4
BRANCH   2  14
ATOM     14  C   UNL d   1     -39.495  14.781  21.617  0.00  0.00     0.085 A 
ATOM     15  C   UNL d   1     -38.760  14.753  21.244  0.00  0.00     0.019 A 
ATOM     16  C   UNL d   1     -38.241  14.130  21.399  0.00  0.00     0.002 A 
ATOM     17  C   UNL d   1     -38.459  13.535  21.929  0.00  0.00     0.000 A 
ATOM     18  C   UNL d   1     -39.188  13.566  22.297  0.00  0.00     0.002 A 
ATOM     19  C   UNL d   1     -37.941  12.912  22.084  0.00  0.00     0.000 C 
ATOM     20  C   UNL d   1     -39.706  14.189  22.141  0.00  0.00     0.019 A 
ENDBRANCH   2  14
TORSDOF 4
ENDMDL
