MODEL 1
REMARK VINA RESULT:      -3.3      0.000      0.000
REMARK  4 active torsions:
REMARK  status: ('A' for Active; 'I' for Inactive)
REMARK    1  A    between atoms: N_7  and  C_1 
REMARK    2  A    between atoms: C_8  and  C_4 
REMARK    3  A    between atoms: C_10  and  N_7 
REMARK    4  A    between atoms: C_12  and  C_8 
ROOT
ATOM      1  C   UNL d   1      31.109  17.013 -24.538  0.00  0.00     0.184 A 
ATOM      2  N   UNL d   1      31.109  17.751 -24.161  0.00  0.00    -0.129 NA
ATOM      3  N   UNL d   1      31.817  18.070 -23.879  0.00  0.00    -0.147 NA
ATOM      4  C   UNL d   1      32.530  17.659 -23.970  0.00  0.00     0.103 A 
ATOM      5  C   UNL d   1      31.820  16.605 -24.627  0.00  0.00     0.039 A 
ATOM      6  C   UNL d   1      32.528  16.924 -24.345  0.00  0.00     0.022 A 
ATOM      7  C   UNL d   1      31.821  15.867 -25.004  0.00  0.00     0.003 A 
ATOM      8  C   UNL d   1      33.241  16.507 -24.439  0.00  0.00     0.002 A 
ATOM      9  C   UNL d   1      33.239  15.774 -24.814  0.00  0.00     0.000 A 
ATOM     10  C   UNL d   1      32.527  15.453 -25.097  0.00  0.00     0.000 A 
ENDROOT
BRANCH   1  11
ATOM     11  N   UNL d   1      30.406  16.687 -24.822  0.00  0.00    -0.225 NA
BRANCH  11  12
ATOM     12  C   UNL d   1      29.709  16.789 -24.394  0.00  0.00     0.083 A 
ATOM     13  C   UNL d   1      29.217  17.421 -24.561  0.00  0.00     0.020 A 
ATOM     14  C   UNL d   1      28.521  17.531 -24.140  0.00  0.00     0.013 A 
ATOM     15  C   UNL d   1      28.312  16.995 -23.536  0.00  0.00     0.058 A 
ATOM     16  C   UNL d   1      28.811  16.358 -23.370  0.00  0.00     0.013 A 
ATOM     17 CL   UNL d   1      27.610  17.103 -23.109  0.00  0.00    -0.082 Cl
ATOM     18  C   UNL d   1      29.511  16.253 -23.798  0.00  0.00     0.020 A 
ENDBRANCH  11  12
ENDBRANCH   1  11
BRANCH   4  19
ATOM     19  C   UNL d   1      33.238  17.978 -23.688  0.00  0.00     0.021 C 
BRANCH  19  20
ATOM     20  C   UNL d   1      33.229  18.668 -23.237  0.00  0.00     0.005 A 
ATOM     21  C   UNL d   1      33.216  18.621 -22.414  0.00  0.00     0.021 A 
ATOM     22  C   UNL d   1      33.207  19.311 -21.963  0.00  0.00     0.099 A 
ATOM     23  N   UNL d   1      33.211  20.048 -22.335  0.00  0.00    -0.242 NA
ATOM     24  C   UNL d   1      33.225  20.090 -23.169  0.00  0.00     0.099 A 
ATOM     25  C   UNL d   1      33.234  19.394 -23.612  0.00  0.00     0.021 A 
ENDBRANCH  19  20
ENDBRANCH   4  19
TORSDOF 4
ENDMDL
MODEL 2
REMARK VINA RESULT:      -1.4      2.205      4.213
REMARK  4 active torsions:
REMARK  status: ('A' for Active; 'I' for Inactive)
REMARK    1  A    between atoms: N_7  and  C_1 
REMARK    2  A    between atoms: C_8  and  C_4 
REMARK    3  A    between atoms: C_10  and  N_7 
REMARK    4  A    between atoms: C_12  and  C_8 
ROOT
ATOM      1  C   UNL d   1      33.233  19.994 -23.658  0.00  0.00     0.184 A 
ATOM      2  N   UNL d   1      33.234  19.881 -22.838  0.00  0.00    -0.129 NA
ATOM      3  N   UNL d   1      33.236  20.533 -22.331  0.00  0.00    -0.147 NA
ATOM      4  C   UNL d   1      33.237  21.303 -22.637  0.00  0.00     0.103 A 
ATOM      5  C   UNL d   1      33.233  20.762 -23.960  0.00  0.00     0.039 A 
ATOM      6  C   UNL d   1      33.235  21.414 -23.454  0.00  0.00     0.022 A 
ATOM      7  C   UNL d   1      33.232  20.875 -24.781  0.00  0.00     0.003 A 
ATOM      8  C   UNL d   1      33.236  22.185 -23.765  0.00  0.00     0.002 A 
ATOM      9  C   UNL d   1      33.234  22.295 -24.582  0.00  0.00     0.000 A 
ATOM     10  C   UNL d   1      33.232  21.639 -25.091  0.00  0.00     0.000 A 
ENDROOT
BRANCH   1  11
ATOM     11  N   UNL d   1      33.231  19.347 -24.171  0.00  0.00    -0.225 NA
BRANCH  11  12
ATOM     12  C   UNL d   1      32.797  18.674 -23.974  0.00  0.00     0.083 A 
ATOM     13  C   UNL d   1      33.097  18.141 -23.431  0.00  0.00     0.020 A 
ATOM     14  C   UNL d   1      32.672  17.468 -23.228  0.00  0.00     0.013 A 
ATOM     15  C   UNL d   1      31.929  17.326 -23.577  0.00  0.00     0.058 A 
ATOM     16  C   UNL d   1      31.629  17.866 -24.125  0.00  0.00     0.013 A 
ATOM     17 CL   UNL d   1      31.498  16.648 -23.375  0.00  0.00    -0.082 Cl
ATOM     18  C   UNL d   1      32.062  18.542 -24.325  0.00  0.00     0.020 A 
ENDBRANCH  11  12
ENDBRANCH   1  11
BRANCH   4  19
ATOM     19  C   UNL d   1      33.239  21.956 -22.130  0.00  0.00     0.021 C 
BRANCH  19  20
ATOM     20  C   UNL d   1      32.846  21.918 -21.405  0.00  0.00     0.005 A 
ATOM     21  C   UNL d   1      32.075  22.200 -21.342  0.00  0.00     0.021 A 
ATOM     22  C   UNL d   1      31.682  22.162 -20.617  0.00  0.00     0.099 A 
ATOM     23  N   UNL d   1      32.062  21.842 -19.957  0.00  0.00    -0.242 NA
ATOM     24  C   UNL d   1      32.844  21.558 -20.028  0.00  0.00     0.099 A 
ATOM     25  C   UNL d   1      33.228  21.600 -20.757  0.00  0.00     0.021 A 
ENDBRANCH  19  20
ENDBRANCH   4  19
TORSDOF 4
ENDMDL
