MODEL 1
REMARK VINA RESULT:      82.0      0.000      0.000
REMARK  3 active torsions:
REMARK  status: ('A' for Active; 'I' for Inactive)
REMARK    1  A    between atoms: C_4  and  S_1 
REMARK    2  A    between atoms: N_6  and  S_1 
REMARK    3  A    between atoms: C_2  and  C_8 
ROOT
ATOM      1  C   UNL d   1     -58.242 -99.236 -43.664  0.00  0.00     0.104 A 
ATOM      2  C   UNL d   1     -58.408 -99.374 -42.869  0.00  0.00     0.015 A 
ATOM      3  C   UNL d   1     -59.164 -99.208 -42.574  0.00  0.00     0.025 A 
ATOM      4  C   UNL d   1     -58.824 -98.935 -44.166  0.00  0.00     0.012 A 
ATOM      5  C   UNL d   1     -59.749 -98.906 -43.072  0.00  0.00     0.002 A 
ATOM      6  C   UNL d   1     -59.574 -98.771 -43.869  0.00  0.00     0.001 A 
ATOM      7  C   UNL d   1     -58.654 -98.798 -44.960  0.00  0.00     0.001 C 
ENDROOT
BRANCH   3   8
ATOM      8  C   UNL d   1     -59.335 -99.345 -41.776  0.00  0.00     0.111 A 
ATOM      9  N   UNL d   1     -59.544-100.072 -41.450  0.00  0.00    -0.239 NA
ATOM     10  C   UNL d   1     -59.666 -99.961 -40.638  0.00  0.00     0.088 A 
ATOM     11  C   UNL d   1     -59.880-100.473 -40.035  0.00  0.00     0.020 A 
ATOM     12  C   UNL d   1     -59.531 -99.163 -40.472  0.00  0.00     0.049 A 
ATOM     13  C   UNL d   1     -59.960-100.198 -39.270  0.00  0.00     0.002 A 
ATOM     14  C   UNL d   1     -59.825 -99.396 -39.098  0.00  0.00     0.001 A 
ATOM     15  C   UNL d   1     -59.609 -98.879 -39.704  0.00  0.00     0.008 A 
ATOM     16  S   UNL d   1     -59.325 -98.783 -41.184  0.00  0.00    -0.066 SA
ENDBRANCH   3   8
BRANCH   1  17
ATOM     17  S   UNL d   1     -57.486 -99.400 -43.969  0.00  0.00     0.271 S 
ATOM     18  O   UNL d   1     -57.834 -99.662 -44.677  0.00  0.00    -0.200 OA
ATOM     19  O   UNL d   1     -57.090 -99.100 -43.159  0.00  0.00    -0.200 OA
BRANCH  17  20
ATOM     20  N   UNL d   1     -56.721 -99.546 -44.226  0.00  0.00    -0.229 N 
ATOM     21  C   UNL d   1     -56.349-100.284 -44.246  0.00  0.00     0.092 A 
ATOM     22  C   UNL d   1     -55.587-100.181 -44.541  0.00  0.00     0.021 A 
ATOM     23  C   UNL d   1     -55.482 -99.373 -44.707  0.00  0.00     0.021 A 
ATOM     24  C   UNL d   1     -56.183 -98.986 -44.511  0.00  0.00     0.092 A 
ENDBRANCH  17  20
ENDBRANCH   1  17
TORSDOF 3
ENDMDL
MODEL 2
REMARK VINA RESULT:      83.5      3.983      4.244
REMARK  3 active torsions:
REMARK  status: ('A' for Active; 'I' for Inactive)
REMARK    1  A    between atoms: C_4  and  S_1 
REMARK    2  A    between atoms: N_6  and  S_1 
REMARK    3  A    between atoms: C_2  and  C_8 
ROOT
ATOM      1  C   UNL d   1     -55.102-100.754 -43.290  0.00  0.00     0.104 A 
ATOM      2  C   UNL d   1     -55.128-101.154 -42.569  0.00  0.00     0.015 A 
ATOM      3  C   UNL d   1     -54.977-100.741 -41.867  0.00  0.00     0.025 A 
ATOM      4  C   UNL d   1     -54.927 -99.948 -43.313  0.00  0.00     0.012 A 
ATOM      5  C   UNL d   1     -54.802 -99.936 -41.886  0.00  0.00     0.002 A 
ATOM      6  C   UNL d   1     -54.778 -99.542 -42.613  0.00  0.00     0.001 A 
ATOM      7  C   UNL d   1     -54.902 -99.552 -44.035  0.00  0.00     0.001 C 
ENDROOT
BRANCH   3   8
ATOM      8  C   UNL d   1     -55.002-101.139 -41.141  0.00  0.00     0.111 A 
ATOM      9  N   UNL d   1     -55.165-101.940 -41.041  0.00  0.00    -0.239 NA
ATOM     10  C   UNL d   1     -55.133-102.106 -40.230  0.00  0.00     0.088 A 
ATOM     11  C   UNL d   1     -55.245-102.796 -39.800  0.00  0.00     0.020 A 
ATOM     12  C   UNL d   1     -54.951-101.402 -39.838  0.00  0.00     0.049 A 
ATOM     13  C   UNL d   1     -55.177-102.790 -38.986  0.00  0.00     0.002 A 
ATOM     14  C   UNL d   1     -54.994-102.084 -38.588  0.00  0.00     0.001 A 
ATOM     15  C   UNL d   1     -54.881-101.389 -39.018  0.00  0.00     0.008 A 
ATOM     16  S   UNL d   1     -54.870-100.802 -40.409  0.00  0.00    -0.066 SA
ENDBRANCH   3   8
BRANCH   1  17
ATOM     17  S   UNL d   1     -55.252-101.160 -43.999  0.00  0.00     0.271 S 
ATOM     18  O   UNL d   1     -55.248-100.436 -44.408  0.00  0.00    -0.200 OA
ATOM     19  O   UNL d   1     -55.257-101.987 -43.531  0.00  0.00    -0.200 OA
BRANCH  17  20
ATOM     20  N   UNL d   1     -55.400-101.603 -44.673  0.00  0.00    -0.229 N 
ATOM     21  C   UNL d   1     -56.147-101.796 -44.972  0.00  0.00     0.092 A 
ATOM     22  C   UNL d   1     -56.044-102.246 -45.655  0.00  0.00     0.021 A 
ATOM     23  C   UNL d   1     -55.227-102.334 -45.784  0.00  0.00     0.021 A 
ATOM     24  C   UNL d   1     -54.835-101.936 -45.177  0.00  0.00     0.092 A 
ENDBRANCH  17  20
ENDBRANCH   1  17
TORSDOF 3
ENDMDL
