MODEL 1
REMARK VINA RESULT:      -7.8      0.000      0.000
REMARK  1 active torsions:
REMARK  status: ('A' for Active; 'I' for Inactive)
REMARK    1  A    between atoms: C_6  and  C_2 
ROOT
ATOM      1  O   UNL d   1      53.552  31.152  53.713  0.00  0.00    -0.260 OA
ATOM      2  C   UNL d   1      53.570  31.978  53.633  0.00  0.00     0.207 A 
ATOM      3  N   UNL d   1      53.035  32.179  53.037  0.00  0.00    -0.120 NA
ATOM      4  C   UNL d   1      53.008  30.852  53.168  0.00  0.00     0.262 A 
ATOM      5  N   UNL d   1      52.688  31.492  52.749  0.00  0.00    -0.109 NA
ATOM      6  S   UNL d   1      52.822  30.054  53.065  0.00  0.00    -0.029 SA
ENDROOT
BRANCH   2   7
ATOM      7  C   UNL d   1      54.035  32.494  54.068  0.00  0.00     0.062 A 
ATOM      8  C   UNL d   1      54.682  32.865  53.718  0.00  0.00     0.102 A 
ATOM      9  N   UNL d   1      55.149  33.387  54.168  0.00  0.00    -0.242 NA
ATOM     10  C   UNL d   1      54.968  33.533  54.957  0.00  0.00     0.099 A 
ATOM     11  C   UNL d   1      54.322  33.161  55.303  0.00  0.00     0.021 A 
ATOM     12  C   UNL d   1      53.850  32.640  54.865  0.00  0.00     0.007 A 
ENDBRANCH   2   7
TORSDOF 1
ENDMDL
MODEL 2
REMARK VINA RESULT:      -7.4      1.545      2.940
REMARK  1 active torsions:
REMARK  status: ('A' for Active; 'I' for Inactive)
REMARK    1  A    between atoms: C_6  and  C_2 
ROOT
ATOM      1  O   UNL d   1      53.938  32.548  54.666  0.00  0.00    -0.260 OA
ATOM      2  C   UNL d   1      54.021  32.252  53.894  0.00  0.00     0.207 A 
ATOM      3  N   UNL d   1      54.643  32.662  53.539  0.00  0.00    -0.120 NA
ATOM      4  C   UNL d   1      54.508  33.135  54.779  0.00  0.00     0.262 A 
ATOM      5  N   UNL d   1      54.945  33.205  54.078  0.00  0.00    -0.109 NA
ATOM      6  S   UNL d   1      54.617  33.571  55.472  0.00  0.00    -0.029 SA
ENDROOT
BRANCH   2   7
ATOM      7  C   UNL d   1      53.565  31.663  53.554  0.00  0.00     0.062 A 
ATOM      8  C   UNL d   1      52.958  31.856  53.032  0.00  0.00     0.102 A 
ATOM      9  N   UNL d   1      52.500  31.251  52.691  0.00  0.00    -0.242 NA
ATOM     10  C   UNL d   1      52.651  30.462  52.872  0.00  0.00     0.099 A 
ATOM     11  C   UNL d   1      53.257  30.272  53.393  0.00  0.00     0.021 A 
ATOM     12  C   UNL d   1      53.719  30.866  53.738  0.00  0.00     0.007 A 
ENDBRANCH   2   7
TORSDOF 1
ENDMDL
MODEL 3
REMARK VINA RESULT:      -6.8      2.240      2.427
REMARK  1 active torsions:
REMARK  status: ('A' for Active; 'I' for Inactive)
REMARK    1  A    between atoms: C_6  and  C_2 
ROOT
ATOM      1  O   UNL d   1      52.016  33.660  53.733  0.00  0.00    -0.260 OA
ATOM      2  C   UNL d   1      52.770  34.007  53.708  0.00  0.00     0.207 A 
ATOM      3  N   UNL d   1      52.757  34.581  53.115  0.00  0.00    -0.120 NA
ATOM      4  C   UNL d   1      51.547  34.022  53.157  0.00  0.00     0.262 A 
ATOM      5  N   UNL d   1      52.009  34.594  52.774  0.00  0.00    -0.109 NA
ATOM      6  S   UNL d   1      50.757  33.840  52.997  0.00  0.00    -0.029 SA
ENDROOT
BRANCH   2   7
ATOM      7  C   UNL d   1      53.405  33.811  54.187  0.00  0.00     0.062 A 
ATOM      8  C   UNL d   1      53.649  34.324  54.784  0.00  0.00     0.102 A 
ATOM      9  N   UNL d   1      54.295  34.116  55.265  0.00  0.00    -0.242 NA
ATOM     10  C   UNL d   1      54.690  33.404  55.148  0.00  0.00     0.099 A 
ATOM     11  C   UNL d   1      54.445  32.895  54.552  0.00  0.00     0.021 A 
ATOM     12  C   UNL d   1      53.803  33.091  54.067  0.00  0.00     0.007 A 
ENDBRANCH   2   7
TORSDOF 1
ENDMDL
MODEL 4
REMARK VINA RESULT:      -6.7      2.510      3.190
REMARK  1 active torsions:
REMARK  status: ('A' for Active; 'I' for Inactive)
REMARK    1  A    between atoms: C_6  and  C_2 
ROOT
ATOM      1  O   UNL d   1      53.370  33.590  54.445  0.00  0.00    -0.260 OA
ATOM      2  C   UNL d   1      53.053  33.356  53.714  0.00  0.00     0.207 A 
ATOM      3  N   UNL d   1      53.608  32.866  53.350  0.00  0.00    -0.120 NA
ATOM      4  C   UNL d   1      54.116  33.244  54.524  0.00  0.00     0.262 A 
ATOM      5  N   UNL d   1      54.262  32.794  53.843  0.00  0.00    -0.109 NA
ATOM      6  S   UNL d   1      54.621  33.334  55.171  0.00  0.00    -0.029 SA
ENDROOT
BRANCH   2   7
ATOM      7  C   UNL d   1      52.322  33.574  53.416  0.00  0.00     0.062 A 
ATOM      8  C   UNL d   1      51.649  33.137  53.603  0.00  0.00     0.102 A 
ATOM      9  N   UNL d   1      50.911  33.366  53.295  0.00  0.00    -0.242 NA
ATOM     10  C   UNL d   1      50.850  34.025  52.806  0.00  0.00     0.099 A 
ATOM     11  C   UNL d   1      51.522  34.459  52.621  0.00  0.00     0.021 A 
ATOM     12  C   UNL d   1      52.262  34.241  52.921  0.00  0.00     0.007 A 
ENDBRANCH   2   7
TORSDOF 1
ENDMDL
MODEL 5
REMARK VINA RESULT:      -6.0      2.124      3.007
REMARK  1 active torsions:
REMARK  status: ('A' for Active; 'I' for Inactive)
REMARK    1  A    between atoms: C_6  and  C_2 
ROOT
ATOM      1  O   UNL d   1      52.790  33.487  53.140  0.00  0.00    -0.260 OA
ATOM      2  C   UNL d   1      52.984  32.859  53.646  0.00  0.00     0.207 A 
ATOM      3  N   UNL d   1      53.149  33.182  54.387  0.00  0.00    -0.120 NA
ATOM      4  C   UNL d   1      52.837  34.190  53.572  0.00  0.00     0.262 A 
ATOM      5  N   UNL d   1      53.060  33.998  54.347  0.00  0.00    -0.109 NA
ATOM      6  S   UNL d   1      52.686  34.946  53.276  0.00  0.00    -0.029 SA
ENDROOT
BRANCH   2   7
ATOM      7  C   UNL d   1      53.006  32.066  53.442  0.00  0.00     0.062 A 
ATOM      8  C   UNL d   1      52.318  31.678  53.207  0.00  0.00     0.102 A 
ATOM      9  N   UNL d   1      52.350  30.873  53.001  0.00  0.00    -0.242 NA
ATOM     10  C   UNL d   1      53.063  30.463  53.031  0.00  0.00     0.099 A 
ATOM     11  C   UNL d   1      53.748  30.852  53.265  0.00  0.00     0.021 A 
ATOM     12  C   UNL d   1      53.728  31.653  53.472  0.00  0.00     0.007 A 
ENDBRANCH   2   7
TORSDOF 1
ENDMDL
MODEL 6
REMARK VINA RESULT:      -5.5      2.052      2.073
REMARK  1 active torsions:
REMARK  status: ('A' for Active; 'I' for Inactive)
REMARK    1  A    between atoms: C_6  and  C_2 
ROOT
ATOM      1  O   UNL d   1      52.911  32.741  53.440  0.00  0.00    -0.260 OA
ATOM      2  C   UNL d   1      52.545  33.485  53.395  0.00  0.00     0.207 A 
ATOM      3  N   UNL d   1      51.917  33.418  52.863  0.00  0.00    -0.120 NA
ATOM      4  C   UNL d   1      52.508  32.225  52.937  0.00  0.00     0.262 A 
ATOM      5  N   UNL d   1      51.890  32.647  52.580  0.00  0.00    -0.109 NA
ATOM      6  S   UNL d   1      52.693  31.429  52.818  0.00  0.00    -0.029 SA
ENDROOT
BRANCH   2   7
ATOM      7  C   UNL d   1      52.769  34.158  53.805  0.00  0.00     0.062 A 
ATOM      8  C   UNL d   1      52.651  34.904  53.476  0.00  0.00     0.102 A 
ATOM      9  N   UNL d   1      52.882  35.581  53.900  0.00  0.00    -0.242 NA
ATOM     10  C   UNL d   1      53.227  35.510  54.644  0.00  0.00     0.099 A 
ATOM     11  C   UNL d   1      53.344  34.764  54.969  0.00  0.00     0.021 A 
ATOM     12  C   UNL d   1      53.118  34.084  54.557  0.00  0.00     0.007 A 
ENDBRANCH   2   7
TORSDOF 1
ENDMDL
