MODEL 1
REMARK VINA RESULT:      59.7      0.000      0.000
REMARK  5 active torsions:
REMARK  status: ('A' for Active; 'I' for Inactive)
REMARK    1  A    between atoms: O_8  and  C_2 
REMARK    2  A    between atoms: C_9  and  C_5 
REMARK    3  A    between atoms: C_14  and  O_8 
REMARK    4  A    between atoms: N_11  and  C_9 
REMARK    5  A    between atoms: O_21  and  C_18 
ROOT
ATOM      1  C   UNL d   1      14.928  13.458  -0.947  0.00  0.00     0.108 A 
ATOM      2  C   UNL d   1      13.842  12.611  -1.882  0.00  0.00     0.161 A 
ATOM      3  C   UNL d   1      15.191  12.824  -1.423  0.00  0.00     0.064 A 
ATOM      4  C   UNL d   1      14.653  12.408  -1.883  0.00  0.00     0.222 A 
ATOM      5  C   UNL d   1      15.471  13.881  -0.479  0.00  0.00     0.079 A 
ATOM      6  O   UNL d   1      14.125  13.673  -0.935  0.00  0.00    -0.305 OA
ATOM      7  C   UNL d   1      13.578  13.249  -1.404  0.00  0.00     0.126 A 
ATOM      8  C   UNL d   1      15.999  12.627  -1.419  0.00  0.00     0.009 A 
ATOM      9  C   UNL d   1      16.270  13.676  -0.484  0.00  0.00     0.199 A 
ATOM     10  O   UNL d   1      14.908  11.780  -2.355  0.00  0.00    -0.284 OA
ATOM     11  C   UNL d   1      16.534  13.048  -0.954  0.00  0.00     0.042 A 
ATOM     12  O   UNL d   1      16.805  14.098  -0.019  0.00  0.00    -0.286 OA
ATOM     13  C   UNL d   1      12.779  13.454  -1.399  0.00  0.00     0.029 C 
ENDROOT
BRANCH   2  14
ATOM     14  O   UNL d   1      13.305  12.193  -2.345  0.00  0.00    -0.302 OA
BRANCH  14  15
ATOM     15  C   UNL d   1      13.218  12.375  -3.145  0.00  0.00     0.102 A 
ATOM     16  C   UNL d   1      13.065  13.153  -3.374  0.00  0.00     0.049 A 
ATOM     17  C   UNL d   1      12.978  13.335  -4.174  0.00  0.00     0.096 A 
ATOM     18  C   UNL d   1      13.044  12.741  -4.744  0.00  0.00     0.024 A 
ATOM     19  C   UNL d   1      13.199  11.954  -4.506  0.00  0.00     0.004 A 
ATOM     20  C   UNL d   1      13.284  11.781  -3.709  0.00  0.00     0.025 A 
BRANCH  17  21
ATOM     21  O   UNL d   1      12.825  14.113  -4.403  0.00  0.00    -0.328 OA
ATOM     22  C   UNL d   1      12.936  14.339  -5.189  0.00  0.00     0.181 C 
ENDBRANCH  17  21
ENDBRANCH  14  15
ENDBRANCH   2  14
BRANCH   5  23
ATOM     23  C   UNL d   1      15.210  14.502  -0.015  0.00  0.00     0.086 C 
BRANCH  23  24
ATOM     24  N   UNL d   1      15.279  15.280  -0.289  0.00  0.00    -0.299 N 
ATOM     25  C   UNL d   1      14.726  15.574  -0.829  0.00  0.00     0.107 A 
ATOM     26  C   UNL d   1      14.792  16.349  -1.103  0.00  0.00     0.142 A 
ATOM     27  O   UNL d   1      15.412  16.831  -0.837  0.00  0.00    -0.300 OA
ATOM     28  C   UNL d   1      15.963  16.534  -0.297  0.00  0.00     0.142 A 
ATOM     29  C   UNL d   1      15.897  15.754  -0.021  0.00  0.00     0.107 A 
ENDBRANCH  23  24
ENDBRANCH   5  23
TORSDOF 5
ENDMDL
MODEL 2
REMARK VINA RESULT:      62.5      1.626      4.686
REMARK  5 active torsions:
REMARK  status: ('A' for Active; 'I' for Inactive)
REMARK    1  A    between atoms: O_8  and  C_2 
REMARK    2  A    between atoms: C_9  and  C_5 
REMARK    3  A    between atoms: C_14  and  O_8 
REMARK    4  A    between atoms: N_11  and  C_9 
REMARK    5  A    between atoms: O_21  and  C_18 
ROOT
ATOM      1  C   UNL d   1      13.326  13.350  -3.124  0.00  0.00     0.108 A 
ATOM      2  C   UNL d   1      13.676  13.094  -1.517  0.00  0.00     0.161 A 
ATOM      3  C   UNL d   1      13.705  13.946  -2.679  0.00  0.00     0.064 A 
ATOM      4  C   UNL d   1      13.877  13.817  -1.887  0.00  0.00     0.222 A 
ATOM      5  C   UNL d   1      13.150  13.478  -3.928  0.00  0.00     0.079 A 
ATOM      6  O   UNL d   1      13.120  12.626  -2.772  0.00  0.00    -0.305 OA
ATOM      7  C   UNL d   1      13.295  12.495  -1.965  0.00  0.00     0.126 A 
ATOM      8  C   UNL d   1      13.901  14.663  -3.052  0.00  0.00     0.009 A 
ATOM      9  C   UNL d   1      13.351  14.193  -4.287  0.00  0.00     0.199 A 
ATOM     10  O   UNL d   1      14.252  14.404  -1.442  0.00  0.00    -0.284 OA
ATOM     11  C   UNL d   1      13.726  14.786  -3.849  0.00  0.00     0.042 A 
ATOM     12  O   UNL d   1      13.175  14.316  -5.084  0.00  0.00    -0.286 OA
ATOM     13  C   UNL d   1      13.095  11.780  -1.606  0.00  0.00     0.029 C 
ENDROOT
BRANCH   2  14
ATOM     14  O   UNL d   1      13.850  12.968  -0.723  0.00  0.00    -0.302 OA
BRANCH  14  15
ATOM     15  C   UNL d   1      14.625  12.806  -0.489  0.00  0.00     0.102 A 
ATOM     16  C   UNL d   1      15.169  13.423  -0.420  0.00  0.00     0.049 A 
ATOM     17  C   UNL d   1      15.944  13.261  -0.187  0.00  0.00     0.096 A 
ATOM     18  C   UNL d   1      16.174  12.484  -0.022  0.00  0.00     0.024 A 
ATOM     19  C   UNL d   1      15.617  11.864  -0.093  0.00  0.00     0.004 A 
ATOM     20  C   UNL d   1      14.849  12.033  -0.326  0.00  0.00     0.025 A 
BRANCH  17  21
ATOM     21  O   UNL d   1      16.489  13.877  -0.118  0.00  0.00    -0.328 OA
ATOM     22  C   UNL d   1      16.222  14.653  -0.031  0.00  0.00     0.181 C 
ENDBRANCH  17  21
ENDBRANCH  14  15
ENDBRANCH   2  14
BRANCH   5  23
ATOM     23  C   UNL d   1      12.779  12.891  -4.361  0.00  0.00     0.086 C 
BRANCH  23  24
ATOM     24  N   UNL d   1      13.180  12.520  -4.983  0.00  0.00    -0.299 N 
ATOM     25  C   UNL d   1      13.973  12.303  -4.886  0.00  0.00     0.107 A 
ATOM     26  C   UNL d   1      14.374  11.933  -5.504  0.00  0.00     0.142 A 
ATOM     27  O   UNL d   1      13.985  11.779  -6.219  0.00  0.00    -0.300 OA
ATOM     28  C   UNL d   1      13.192  11.997  -6.312  0.00  0.00     0.142 A 
ATOM     29  C   UNL d   1      12.787  12.370  -5.690  0.00  0.00     0.107 A 
ENDBRANCH  23  24
ENDBRANCH   5  23
TORSDOF 5
ENDMDL
