MODEL 1
REMARK VINA RESULT:      -2.4      0.000      0.000
REMARK  8 active torsions:
REMARK  status: ('A' for Active; 'I' for Inactive)
REMARK    1  A    between atoms: C_2  and  N_1 
REMARK    2  A    between atoms: O_17  and  C_3 
REMARK    3  A    between atoms: O_18  and  C_4 
REMARK    4  A    between atoms: O_19  and  C_5 
REMARK    5  A    between atoms: O_21  and  C_6 
REMARK    6  A    between atoms: C_9  and  C_11 
REMARK    7  A    between atoms: C_12  and  C_9 
REMARK    8  A    between atoms: C_11  and  C_15 
ROOT
ATOM      1  C   UNL d   1     -41.386-123.183 -50.986  0.00  0.00     0.000 C 
ENDROOT
BRANCH   1   2
ATOM      2  C   UNL d   1     -41.477-122.525 -51.475  0.00  0.00     0.000 C 
BRANCH   2   3
ATOM      3  C   UNL d   1     -41.483-122.618 -52.300  0.00  0.00     0.002 A 
ATOM      4  C   UNL d   1     -41.799-122.034 -52.770  0.00  0.00     0.026 A 
ATOM      5  C   UNL d   1     -41.807-122.123 -53.588  0.00  0.00     0.149 A 
ATOM      6  C   UNL d   1     -41.494-122.806 -53.934  0.00  0.00     0.116 A 
ATOM      7  C   UNL d   1     -41.175-123.396 -53.454  0.00  0.00     0.026 A 
ATOM      8  C   UNL d   1     -41.166-123.308 -52.636  0.00  0.00     0.002 A 
BRANCH   5   9
ATOM      9  N   UNL d   1     -42.128-121.531 -54.065  0.00  0.00    -0.112 N 
ATOM     10  O   UNL d   1     -41.669-120.875 -54.274  0.00  0.00    -0.532 OA
ATOM     11  O   UNL d   1     -42.908-121.586 -54.337  0.00  0.00    -0.532 OA
ENDBRANCH   5   9
BRANCH   6  12
ATOM     12  O   UNL d   1     -41.499-122.901 -54.756  0.00  0.00    -0.326 OA
ATOM     13  C   UNL d   1     -41.270-123.624 -55.089  0.00  0.00     0.181 C 
ENDBRANCH   6  12
ENDBRANCH   2   3
ENDBRANCH   1   2
BRANCH   1  14
ATOM     14  C   UNL d   1     -41.691-123.167 -50.217  0.00  0.00     0.004 A 
ATOM     15  C   UNL d   1     -42.430-123.498 -50.061  0.00  0.00     0.026 A 
ATOM     16  C   UNL d   1     -42.734-123.481 -49.288  0.00  0.00     0.118 A 
ATOM     17  C   UNL d   1     -42.300-123.136 -48.680  0.00  0.00     0.138 A 
ATOM     18  C   UNL d   1     -41.561-122.805 -48.837  0.00  0.00     0.118 A 
ATOM     19  C   UNL d   1     -41.255-122.820 -49.601  0.00  0.00     0.026 A 
BRANCH  16  20
ATOM     20  O   UNL d   1     -43.474-123.811 -49.132  0.00  0.00    -0.326 OA
ATOM     21  C   UNL d   1     -44.158-123.368 -49.250  0.00  0.00     0.181 C 
ENDBRANCH  16  20
BRANCH  17  22
ATOM     22  O   UNL d   1     -42.605-123.120 -47.915  0.00  0.00    -0.324 OA
ATOM     23  C   UNL d   1     -42.867-123.817 -47.564  0.00  0.00     0.182 C 
ENDBRANCH  17  22
BRANCH  18  24
ATOM     24  O   UNL d   1     -41.126-122.459 -48.228  0.00  0.00    -0.326 OA
ATOM     25  C   UNL d   1     -41.161-121.645 -48.112  0.00  0.00     0.181 C 
ENDBRANCH  18  24
ENDBRANCH   1  14
TORSDOF 8
ENDMDL
MODEL 2
REMARK VINA RESULT:      -1.5      1.343      4.992
REMARK  8 active torsions:
REMARK  status: ('A' for Active; 'I' for Inactive)
REMARK    1  A    between atoms: C_2  and  N_1 
REMARK    2  A    between atoms: O_17  and  C_3 
REMARK    3  A    between atoms: O_18  and  C_4 
REMARK    4  A    between atoms: O_19  and  C_5 
REMARK    5  A    between atoms: O_21  and  C_6 
REMARK    6  A    between atoms: C_9  and  C_11 
REMARK    7  A    between atoms: C_12  and  C_9 
REMARK    8  A    between atoms: C_11  and  C_15 
ROOT
ATOM      1  C   UNL d   1     -41.195-123.371 -52.327  0.00  0.00     0.000 C 
ENDROOT
BRANCH   1   2
ATOM      2  C   UNL d   1     -41.755-123.750 -51.854  0.00  0.00     0.000 C 
BRANCH   2   3
ATOM      3  C   UNL d   1     -41.775-123.604 -51.037  0.00  0.00     0.002 A 
ATOM      4  C   UNL d   1     -42.431-123.254 -50.706  0.00  0.00     0.026 A 
ATOM      5  C   UNL d   1     -42.455-123.107 -49.896  0.00  0.00     0.149 A 
ATOM      6  C   UNL d   1     -41.813-123.314 -49.418  0.00  0.00     0.116 A 
ATOM      7  C   UNL d   1     -41.150-123.669 -49.758  0.00  0.00     0.026 A 
ATOM      8  C   UNL d   1     -41.125-123.817 -50.567  0.00  0.00     0.002 A 
BRANCH   5   9
ATOM      9  N   UNL d   1     -43.119-122.752 -49.561  0.00  0.00    -0.112 N 
ATOM     10  O   UNL d   1     -43.384-122.020 -49.843  0.00  0.00    -0.532 OA
ATOM     11  O   UNL d   1     -43.527-123.121 -48.942  0.00  0.00    -0.532 OA
ENDBRANCH   5   9
BRANCH   6  12
ATOM     12  O   UNL d   1     -41.831-123.169 -48.603  0.00  0.00    -0.326 OA
ATOM     13  C   UNL d   1     -41.157-122.875 -48.222  0.00  0.00     0.181 C 
ENDBRANCH   6  12
ENDBRANCH   2   3
ENDBRANCH   1   2
BRANCH   1  14
ATOM     14  C   UNL d   1     -41.431-123.024 -53.041  0.00  0.00     0.004 A 
ATOM     15  C   UNL d   1     -41.578-123.497 -53.700  0.00  0.00     0.026 A 
ATOM     16  C   UNL d   1     -41.814-123.146 -54.415  0.00  0.00     0.118 A 
ATOM     17  C   UNL d   1     -41.900-122.329 -54.466  0.00  0.00     0.138 A 
ATOM     18  C   UNL d   1     -41.753-121.856 -53.806  0.00  0.00     0.118 A 
ATOM     19  C   UNL d   1     -41.519-122.200 -53.096  0.00  0.00     0.026 A 
BRANCH  16  20
ATOM     20  O   UNL d   1     -41.962-123.619 -55.074  0.00  0.00    -0.326 OA
ATOM     21  C   UNL d   1     -41.352-123.796 -55.600  0.00  0.00     0.181 C 
ENDBRANCH  16  20
BRANCH  17  22
ATOM     22  O   UNL d   1     -42.134-121.985 -55.176  0.00  0.00    -0.324 OA
ATOM     23  C   UNL d   1     -42.908-122.074 -55.440  0.00  0.00     0.182 C 
ENDBRANCH  17  22
BRANCH  18  24
ATOM     24  O   UNL d   1     -41.839-121.038 -53.857  0.00  0.00    -0.326 OA
ATOM     25  C   UNL d   1     -41.254-120.546 -53.552  0.00  0.00     0.181 C 
ENDBRANCH  18  24
ENDBRANCH   1  14
TORSDOF 8
ENDMDL
