MODEL 1
REMARK VINA RESULT:      46.8      0.000      0.000
REMARK  3 active torsions:
REMARK  status: ('A' for Active; 'I' for Inactive)
REMARK    1  A    between atoms: C_8  and  C_1 
REMARK    2  A    between atoms: N_4  and  C_2 
REMARK       I    between atoms: C_6  and  N_4 
REMARK    3  A    between atoms: C_9  and  C_6 
ROOT
ATOM      1  C   UNL d   1     -54.861-101.548 -44.365  0.00  0.00     0.177 A 
ATOM      2  C   UNL d   1     -54.791-101.181 -43.629  0.00  0.00     0.114 A 
ATOM      3  O   UNL d   1     -54.921-100.955 -44.949  0.00  0.00    -0.301 OA
ATOM      4  C   UNL d   1     -54.807-100.366 -43.745  0.00  0.00     0.043 A 
ATOM      5  C   UNL d   1     -54.889-100.226 -44.576  0.00  0.00     0.102 A 
ATOM      6  C   UNL d   1     -54.760 -99.734 -43.225  0.00  0.00     0.004 A 
ATOM      7  C   UNL d   1     -54.920 -99.456 -44.851  0.00  0.00     0.025 A 
ATOM      8  C   UNL d   1     -54.791 -98.953 -43.503  0.00  0.00     0.000 A 
ATOM      9  C   UNL d   1     -54.871 -98.810 -44.305  0.00  0.00     0.002 A 
ENDROOT
BRANCH   2  10
ATOM     10  N   UNL d   1     -54.717-101.595 -42.893  0.00  0.00    -0.206 NA
ATOM     11  C   UNL d   1     -55.080-101.291 -42.217  0.00  0.00     0.279 C 
ATOM     12  O   UNL d   1     -55.527-100.576 -42.238  0.00  0.00    -0.265 OA
BRANCH  11  13
ATOM     13  C   UNL d   1     -55.012-101.691 -41.490  0.00  0.00     0.058 A 
ATOM     14  C   UNL d   1     -55.157-102.493 -41.419  0.00  0.00     0.007 A 
ATOM     15  C   UNL d   1     -55.083-102.873 -40.684  0.00  0.00     0.030 A 
ATOM     16  C   UNL d   1     -54.862-102.439 -40.018  0.00  0.00     0.140 A 
ATOM     17  C   UNL d   1     -54.715-101.640 -40.076  0.00  0.00     0.030 A 
ATOM     18  F   UNL d   1     -54.786-102.806 -39.284  0.00  0.00    -0.204 F 
ATOM     19  C   UNL d   1     -54.788-101.255 -40.810  0.00  0.00     0.007 A 
ENDBRANCH  11  13
ENDBRANCH   2  10
BRANCH   1  20
ATOM     20  C   UNL d   1     -54.867-102.364 -44.470  0.00  0.00     0.321 C 
ATOM     21  O   UNL d   1     -54.809-102.873 -43.805  0.00  0.00    -0.261 OA
ATOM     22  N   UNL d   1     -54.929-102.692 -45.237  0.00  0.00    -0.101 N 
ENDBRANCH   1  20
TORSDOF 3
ENDMDL
