MODEL 1
REMARK VINA RESULT:      70.8      0.000      0.000
REMARK  4 active torsions:
REMARK  status: ('A' for Active; 'I' for Inactive)
REMARK    1  A    between atoms: C_4  and  C_1 
REMARK    2  A    between atoms: N_8  and  C_4 
REMARK    3  A    between atoms: C_12  and  C_4 
REMARK    4  A    between atoms: C_5  and  N_8 
ROOT
ATOM      1  C   UNL d   1      60.712  49.206  50.780  0.00  0.00     0.085 C 
ENDROOT
BRANCH   1   2
ATOM      2  C   UNL d   1      61.062  48.537  50.443  0.00  0.00     0.037 A 
ATOM      3  C   UNL d   1      61.635  48.537  49.835  0.00  0.00     0.083 A 
ATOM      4  N   UNL d   1      61.823  47.758  49.676  0.00  0.00    -0.245 NA
ATOM      5  C   UNL d   1      61.953  49.203  49.463  0.00  0.00     0.021 C 
ATOM      6  C   UNL d   1      61.371  47.284  50.180  0.00  0.00     0.081 A 
ATOM      7  C   UNL d   1      60.910  47.767  50.643  0.00  0.00     0.021 A 
ATOM      8  C   UNL d   1      61.334  46.459  50.261  0.00  0.00     0.019 A 
ATOM      9  C   UNL d   1      60.404  47.436  51.198  0.00  0.00     0.002 A 
ATOM     10  C   UNL d   1      60.356  46.618  51.291  0.00  0.00     0.000 A 
ATOM     11  C   UNL d   1      60.816  46.134  50.827  0.00  0.00     0.002 A 
ENDBRANCH   1   2
BRANCH   1  12
ATOM     12  N   UNL d   1      60.285  49.699  50.352  0.00  0.00    -0.221 NA
BRANCH  12  13
ATOM     13  C   UNL d   1      59.514  49.667  50.405  0.00  0.00     0.194 A 
ATOM     14  N   UNL d   1      59.082  49.708  51.066  0.00  0.00    -0.219 NA
ATOM     15  C   UNL d   1      58.357  49.654  50.875  0.00  0.00     0.108 A 
ATOM     16  C   UNL d   1      58.308  49.580  50.107  0.00  0.00     0.059 A 
ATOM     17  S   UNL d   1      59.026  49.587  49.809  0.00  0.00    -0.046 SA
ENDBRANCH  12  13
ENDBRANCH   1  12
BRANCH   1  18
ATOM     18  C   UNL d   1      60.804  49.374  51.583  0.00  0.00     0.021 A 
ATOM     19  C   UNL d   1      61.565  49.378  51.904  0.00  0.00     0.022 A 
ATOM     20  C   UNL d   1      61.671  49.544  52.708  0.00  0.00     0.099 A 
ATOM     21  N   UNL d   1      61.019  49.704  53.182  0.00  0.00    -0.242 NA
ATOM     22  C   UNL d   1      60.255  49.699  52.859  0.00  0.00     0.099 A 
ATOM     23  C   UNL d   1      60.151  49.533  52.058  0.00  0.00     0.022 A 
ENDBRANCH   1  18
TORSDOF 4
ENDMDL
