MODEL 1
REMARK VINA RESULT:      -2.4      0.000      0.000
REMARK  5 active torsions:
REMARK  status: ('A' for Active; 'I' for Inactive)
REMARK    1  A    between atoms: C_2  and  C_1 
REMARK    2  A    between atoms: C_7  and  C_2 
REMARK    3  A    between atoms: O_17  and  C_6 
REMARK    4  A    between atoms: C_10  and  C_7 
REMARK    5  A    between atoms: O_18  and  C_8 
ROOT
ATOM      1  C   UNL d   1      32.499  20.350 -21.592  0.00  0.00     0.042 C 
ENDROOT
BRANCH   1   2
ATOM      2  C   UNL d   1      32.902  20.235 -22.297  0.00  0.00     0.199 C 
ATOM      3  O   UNL d   1      33.240  20.892 -22.689  0.00  0.00    -0.286 OA
BRANCH   2   4
ATOM      4  C   UNL d   1      32.982  19.481 -22.632  0.00  0.00     0.078 A 
ATOM      5  C   UNL d   1      32.966  19.402 -23.465  0.00  0.00     0.202 A 
ATOM      6  C   UNL d   1      33.045  18.657 -23.809  0.00  0.00     0.084 A 
ATOM      7  O   UNL d   1      32.871  20.078 -23.945  0.00  0.00    -0.286 OA
ATOM      8  C   UNL d   1      33.138  17.999 -23.334  0.00  0.00     0.199 A 
ATOM      9  C   UNL d   1      33.154  18.079 -22.501  0.00  0.00     0.042 A 
ATOM     10  O   UNL d   1      33.218  17.247 -23.678  0.00  0.00    -0.286 OA
ATOM     11  C   UNL d   1      33.076  18.814 -22.165  0.00  0.00     0.010 A 
ENDBRANCH   2   4
ENDBRANCH   1   2
BRANCH   1  12
ATOM     12  C   UNL d   1      32.583  21.046 -21.159  0.00  0.00     0.005 A 
ATOM     13  C   UNL d   1      32.198  21.722 -21.398  0.00  0.00     0.026 A 
ATOM     14  C   UNL d   1      32.289  22.421 -20.954  0.00  0.00     0.116 A 
ATOM     15  C   UNL d   1      32.758  22.436 -20.286  0.00  0.00     0.116 A 
ATOM     16  C   UNL d   1      33.152  21.737 -20.045  0.00  0.00     0.026 A 
ATOM     17  C   UNL d   1      33.066  21.033 -20.485  0.00  0.00     0.002 A 
BRANCH  14  18
ATOM     18  O   UNL d   1      31.898  23.113 -21.194  0.00  0.00    -0.326 OA
ATOM     19  C   UNL d   1      32.034  23.425 -21.948  0.00  0.00     0.181 C 
ENDBRANCH  14  18
BRANCH  15  20
ATOM     20  O   UNL d   1      32.857  23.120 -19.837  0.00  0.00    -0.326 OA
ATOM     21  C   UNL d   1      32.893  23.087 -19.020  0.00  0.00     0.181 C 
ENDBRANCH  15  20
ENDBRANCH   1  12
TORSDOF 5
ENDMDL
MODEL 2
REMARK VINA RESULT:      -2.2      1.273      4.760
REMARK  5 active torsions:
REMARK  status: ('A' for Active; 'I' for Inactive)
REMARK    1  A    between atoms: C_2  and  C_1 
REMARK    2  A    between atoms: C_7  and  C_2 
REMARK    3  A    between atoms: O_17  and  C_6 
REMARK    4  A    between atoms: C_10  and  C_7 
REMARK    5  A    between atoms: O_18  and  C_8 
ROOT
ATOM      1  C   UNL d   1      32.566  19.100 -22.678  0.00  0.00     0.042 C 
ENDROOT
BRANCH   1   2
ATOM      2  C   UNL d   1      32.930  19.825 -22.795  0.00  0.00     0.199 C 
ATOM      3  O   UNL d   1      33.241  20.013 -23.548  0.00  0.00    -0.286 OA
BRANCH   2   4
ATOM      4  C   UNL d   1      32.997  20.378 -22.181  0.00  0.00     0.078 A 
ATOM      5  C   UNL d   1      33.040  21.192 -22.371  0.00  0.00     0.202 A 
ATOM      6  C   UNL d   1      33.107  21.752 -21.769  0.00  0.00     0.084 A 
ATOM      7  O   UNL d   1      33.014  21.436 -23.169  0.00  0.00    -0.286 OA
ATOM      8  C   UNL d   1      33.132  21.508 -20.990  0.00  0.00     0.199 A 
ATOM      9  C   UNL d   1      33.089  20.694 -20.801  0.00  0.00     0.042 A 
ATOM     10  O   UNL d   1      33.199  22.070 -20.381  0.00  0.00    -0.286 OA
ATOM     11  C   UNL d   1      33.023  20.145 -21.396  0.00  0.00     0.010 A 
ENDBRANCH   2   4
ENDBRANCH   1   2
BRANCH   1  12
ATOM     12  C   UNL d   1      32.566  18.521 -23.266  0.00  0.00     0.005 A 
ATOM     13  C   UNL d   1      31.955  18.489 -23.803  0.00  0.00     0.026 A 
ATOM     14  C   UNL d   1      31.963  17.902 -24.394  0.00  0.00     0.116 A 
ATOM     15  C   UNL d   1      32.573  17.361 -24.439  0.00  0.00     0.116 A 
ATOM     16  C   UNL d   1      33.198  17.399 -23.884  0.00  0.00     0.026 A 
ATOM     17  C   UNL d   1      33.198  17.985 -23.289  0.00  0.00     0.002 A 
BRANCH  14  18
ATOM     18  O   UNL d   1      31.342  17.865 -24.944  0.00  0.00    -0.326 OA
ATOM     19  C   UNL d   1      30.565  18.015 -24.702  0.00  0.00     0.181 C 
ENDBRANCH  14  18
BRANCH  15  20
ATOM     20  O   UNL d   1      32.594  16.774 -25.018  0.00  0.00    -0.326 OA
ATOM     21  C   UNL d   1      32.697  15.987 -24.817  0.00  0.00     0.181 C 
ENDBRANCH  15  20
ENDBRANCH   1  12
TORSDOF 5
ENDMDL
MODEL 3
REMARK VINA RESULT:      -0.7      0.916      4.494
REMARK  5 active torsions:
REMARK  status: ('A' for Active; 'I' for Inactive)
REMARK    1  A    between atoms: C_2  and  C_1 
REMARK    2  A    between atoms: C_7  and  C_2 
REMARK    3  A    between atoms: O_17  and  C_6 
REMARK    4  A    between atoms: C_10  and  C_7 
REMARK    5  A    between atoms: O_18  and  C_8 
ROOT
ATOM      1  C   UNL d   1      32.501  20.912 -21.665  0.00  0.00     0.042 C 
ENDROOT
BRANCH   1   2
ATOM      2  C   UNL d   1      32.894  21.618 -21.524  0.00  0.00     0.199 C 
ATOM      3  O   UNL d   1      33.241  22.030 -22.164  0.00  0.00    -0.286 OA
BRANCH   2   4
ATOM      4  C   UNL d   1      32.955  21.933 -20.760  0.00  0.00     0.078 A 
ATOM      5  C   UNL d   1      33.008  22.763 -20.666  0.00  0.00     0.202 A 
ATOM      6  C   UNL d   1      33.070  23.089 -19.911  0.00  0.00     0.084 A 
ATOM      7  O   UNL d   1      32.999  23.260 -21.337  0.00  0.00    -0.286 OA
ATOM      8  C   UNL d   1      33.079  22.599 -19.258  0.00  0.00     0.199 A 
ATOM      9  C   UNL d   1      33.025  21.769 -19.353  0.00  0.00     0.042 A 
ATOM     10  O   UNL d   1      33.141  22.923 -18.495  0.00  0.00    -0.286 OA
ATOM     11  C   UNL d   1      32.965  21.451 -20.097  0.00  0.00     0.010 A 
ENDBRANCH   2   4
ENDBRANCH   1   2
BRANCH   1  12
ATOM     12  C   UNL d   1      32.684  20.443 -22.318  0.00  0.00     0.005 A 
ATOM     13  C   UNL d   1      32.863  19.655 -22.215  0.00  0.00     0.026 A 
ATOM     14  C   UNL d   1      33.046  19.190 -22.881  0.00  0.00     0.116 A 
ATOM     15  C   UNL d   1      33.049  19.512 -23.631  0.00  0.00     0.116 A 
ATOM     16  C   UNL d   1      32.865  20.322 -23.730  0.00  0.00     0.026 A 
ATOM     17  C   UNL d   1      32.680  20.796 -23.068  0.00  0.00     0.002 A 
BRANCH  14  18
ATOM     18  O   UNL d   1      33.229  18.385 -22.781  0.00  0.00    -0.326 OA
ATOM     19  C   UNL d   1      33.199  18.045 -22.027  0.00  0.00     0.181 C 
ENDBRANCH  14  18
BRANCH  15  20
ATOM     20  O   UNL d   1      33.229  19.062 -24.298  0.00  0.00    -0.326 OA
ATOM     21  C   UNL d   1      33.227  19.399 -25.045  0.00  0.00     0.181 C 
ENDBRANCH  15  20
ENDBRANCH   1  12
TORSDOF 5
ENDMDL
MODEL 4
REMARK VINA RESULT:       0.4      4.231      6.145
REMARK  5 active torsions:
REMARK  status: ('A' for Active; 'I' for Inactive)
REMARK    1  A    between atoms: C_2  and  C_1 
REMARK    2  A    between atoms: C_7  and  C_2 
REMARK    3  A    between atoms: O_17  and  C_6 
REMARK    4  A    between atoms: C_10  and  C_7 
REMARK    5  A    between atoms: O_18  and  C_8 
ROOT
ATOM      1  C   UNL d   1      30.210  16.578 -25.093  0.00  0.00     0.042 C 
ENDROOT
BRANCH   1   2
ATOM      2  C   UNL d   1      30.925  16.449 -24.712  0.00  0.00     0.199 C 
ATOM      3  O   UNL d   1      31.081  15.700 -24.373  0.00  0.00    -0.286 OA
BRANCH   2   4
ATOM      4  C   UNL d   1      31.497  17.046 -24.655  0.00  0.00     0.078 A 
ATOM      5  C   UNL d   1      32.143  16.941 -24.133  0.00  0.00     0.202 A 
ATOM      6  C   UNL d   1      32.719  17.527 -24.067  0.00  0.00     0.084 A 
ATOM      7  O   UNL d   1      32.203  16.242 -23.680  0.00  0.00    -0.286 OA
ATOM      8  C   UNL d   1      32.656  18.208 -24.513  0.00  0.00     0.199 A 
ATOM      9  C   UNL d   1      32.010  18.313 -25.034  0.00  0.00     0.042 A 
ATOM     10  O   UNL d   1      33.235  18.801 -24.449  0.00  0.00    -0.286 OA
ATOM     11  C   UNL d   1      31.444  17.734 -25.097  0.00  0.00     0.010 A 
ENDBRANCH   2   4
ENDBRANCH   1   2
BRANCH   1  12
ATOM     12  C   UNL d   1      29.492  16.485 -24.699  0.00  0.00     0.005 A 
ATOM     13  C   UNL d   1      29.088  17.140 -24.432  0.00  0.00     0.026 A 
ATOM     14  C   UNL d   1      28.363  17.036 -24.035  0.00  0.00     0.116 A 
ATOM     15  C   UNL d   1      28.055  16.290 -23.910  0.00  0.00     0.116 A 
ATOM     16  C   UNL d   1      28.475  15.621 -24.186  0.00  0.00     0.026 A 
ATOM     17  C   UNL d   1      29.202  15.716 -24.586  0.00  0.00     0.002 A 
BRANCH  14  18
ATOM     18  O   UNL d   1      27.947  17.701 -23.761  0.00  0.00    -0.326 OA
ATOM     19  C   UNL d   1      28.245  18.144 -23.129  0.00  0.00     0.181 C 
ENDBRANCH  14  18
BRANCH  15  20
ATOM     20  O   UNL d   1      27.339  16.173 -23.519  0.00  0.00    -0.326 OA
ATOM     21  C   UNL d   1      27.161  15.453 -23.172  0.00  0.00     0.181 C 
ENDBRANCH  15  20
ENDBRANCH   1  12
TORSDOF 5
ENDMDL
