MODEL 1
REMARK VINA RESULT:      -6.7      0.000      0.000
REMARK  4 active torsions:
REMARK  status: ('A' for Active; 'I' for Inactive)
REMARK    1  A    between atoms: N_8  and  C_7 
REMARK    2  A    between atoms: C_9  and  N_8 
REMARK    3  A    between atoms: O_15  and  C_10 
REMARK    4  A    between atoms: C_16  and  O_15 
ROOT
ATOM      1  C   UNL d   1     -47.341  13.238  23.064  0.00  0.00     0.082 A 
ATOM      2  C   UNL d   1     -46.099  12.191  23.320  0.00  0.00     0.100 A 
ATOM      3  C   UNL d   1     -46.609  13.375  22.712  0.00  0.00     0.021 A 
ATOM      4  C   UNL d   1     -47.456  12.581  23.542  0.00  0.00     0.021 A 
ATOM      5  C   UNL d   1     -45.985  12.850  22.840  0.00  0.00     0.026 A 
ATOM      6  C   UNL d   1     -46.832  12.052  23.673  0.00  0.00     0.026 A 
ENDROOT
BRANCH   1   7
ATOM      7  N   UNL d   1     -47.965  13.767  22.933  0.00  0.00    -0.245 NA
BRANCH   7   8
ATOM      8  C   UNL d   1     -48.614  13.647  22.423  0.00  0.00     0.093 A 
ATOM      9  C   UNL d   1     -48.893  13.194  21.787  0.00  0.00     0.118 A 
ATOM     10  S   UNL d   1     -49.644  13.454  21.609  0.00  0.00     0.213 S 
ATOM     11  C   UNL d   1     -49.841  14.067  22.125  0.00  0.00     0.100 A 
ATOM     12  O   UNL d   1     -50.414  13.721  21.426  0.00  0.00    -0.217 OA
ATOM     13  O   UNL d   1     -49.500  12.848  21.068  0.00  0.00    -0.217 OA
ATOM     14  C   UNL d   1     -49.202  14.186  22.629  0.00  0.00     0.032 A 
ENDBRANCH   7   8
ENDBRANCH   1   7
BRANCH   2  15
ATOM     15  O   UNL d   1     -45.475  11.662  23.451  0.00  0.00    -0.305 OA
BRANCH  15  16
ATOM     16  C   UNL d   1     -45.637  10.879  23.651  0.00  0.00     0.123 C 
ATOM     17  C   UNL d   1     -45.017  10.329  23.698  0.00  0.00     0.029 C 
ENDBRANCH  15  16
ENDBRANCH   2  15
TORSDOF 4
ENDMDL
MODEL 2
REMARK VINA RESULT:      -6.7      1.147      1.377
REMARK  4 active torsions:
REMARK  status: ('A' for Active; 'I' for Inactive)
REMARK    1  A    between atoms: N_8  and  C_7 
REMARK    2  A    between atoms: C_9  and  N_8 
REMARK    3  A    between atoms: O_15  and  C_10 
REMARK    4  A    between atoms: C_16  and  O_15 
ROOT
ATOM      1  C   UNL d   1     -47.746  13.503  23.081  0.00  0.00     0.082 A 
ATOM      2  C   UNL d   1     -46.132  13.353  22.802  0.00  0.00     0.100 A 
ATOM      3  C   UNL d   1     -47.318  14.146  22.799  0.00  0.00     0.021 A 
ATOM      4  C   UNL d   1     -47.374  12.785  23.225  0.00  0.00     0.021 A 
ATOM      5  C   UNL d   1     -46.507  14.072  22.658  0.00  0.00     0.026 A 
ATOM      6  C   UNL d   1     -46.561  12.708  23.085  0.00  0.00     0.026 A 
ENDROOT
BRANCH   1   7
ATOM      7  N   UNL d   1     -48.559  13.580  23.221  0.00  0.00    -0.245 NA
BRANCH   7   8
ATOM      8  C   UNL d   1     -49.171  13.413  22.680  0.00  0.00     0.093 A 
ATOM      9  C   UNL d   1     -49.333  13.133  21.917  0.00  0.00     0.118 A 
ATOM     10  S   UNL d   1     -50.141  13.145  21.815  0.00  0.00     0.213 S 
ATOM     11  C   UNL d   1     -50.490  13.431  22.506  0.00  0.00     0.100 A 
ATOM     12  O   UNL d   1     -50.970  13.159  21.712  0.00  0.00    -0.217 OA
ATOM     13  O   UNL d   1     -49.847  12.855  21.101  0.00  0.00    -0.217 OA
ATOM     14  C   UNL d   1     -49.888  13.597  23.042  0.00  0.00     0.032 A 
ENDBRANCH   7   8
ENDBRANCH   1   7
BRANCH   2  15
ATOM     15  O   UNL d   1     -45.319  13.276  22.662  0.00  0.00    -0.305 OA
BRANCH  15  16
ATOM     16  C   UNL d   1     -45.054  13.038  21.919  0.00  0.00     0.123 C 
ATOM     17  C   UNL d   1     -44.242  12.918  21.792  0.00  0.00     0.029 C 
ENDBRANCH  15  16
ENDBRANCH   2  15
TORSDOF 4
ENDMDL
MODEL 3
REMARK VINA RESULT:      -6.5      1.288      1.442
REMARK  4 active torsions:
REMARK  status: ('A' for Active; 'I' for Inactive)
REMARK    1  A    between atoms: N_8  and  C_7 
REMARK    2  A    between atoms: C_9  and  N_8 
REMARK    3  A    between atoms: O_15  and  C_10 
REMARK    4  A    between atoms: C_16  and  O_15 
ROOT
ATOM      1  C   UNL d   1     -48.148  12.891  22.706  0.00  0.00     0.082 A 
ATOM      2  C   UNL d   1     -46.808  12.202  23.365  0.00  0.00     0.100 A 
ATOM      3  C   UNL d   1     -47.403  13.078  22.410  0.00  0.00     0.021 A 
ATOM      4  C   UNL d   1     -48.228  12.362  23.329  0.00  0.00     0.021 A 
ATOM      5  C   UNL d   1     -46.730  12.733  22.740  0.00  0.00     0.026 A 
ATOM      6  C   UNL d   1     -47.554  12.014  23.662  0.00  0.00     0.026 A 
ENDROOT
BRANCH   1   7
ATOM      7  N   UNL d   1     -48.822  13.240  22.373  0.00  0.00    -0.245 NA
BRANCH   7   8
ATOM      8  C   UNL d   1     -49.147  13.980  22.577  0.00  0.00     0.093 A 
ATOM      9  C   UNL d   1     -49.088  14.615  23.106  0.00  0.00     0.118 A 
ATOM     10  S   UNL d   1     -49.660  15.159  22.906  0.00  0.00     0.213 S 
ATOM     11  C   UNL d   1     -50.080  14.872  22.255  0.00  0.00     0.100 A 
ATOM     12  O   UNL d   1     -50.248  15.715  22.699  0.00  0.00    -0.217 OA
ATOM     13  O   UNL d   1     -49.276  15.493  23.555  0.00  0.00    -0.217 OA
ATOM     14  C   UNL d   1     -49.761  14.142  22.053  0.00  0.00     0.032 A 
ENDBRANCH   7   8
ENDBRANCH   1   7
BRANCH   2  15
ATOM     15  O   UNL d   1     -46.134  11.854  23.698  0.00  0.00    -0.305 OA
BRANCH  15  16
ATOM     16  C   UNL d   1     -45.853  11.139  23.399  0.00  0.00     0.123 C 
ATOM     17  C   UNL d   1     -45.120  10.845  23.655  0.00  0.00     0.029 C 
ENDBRANCH  15  16
ENDBRANCH   2  15
TORSDOF 4
ENDMDL
MODEL 4
REMARK VINA RESULT:      -6.4      1.566      4.212
REMARK  4 active torsions:
REMARK  status: ('A' for Active; 'I' for Inactive)
REMARK    1  A    between atoms: N_8  and  C_7 
REMARK    2  A    between atoms: C_9  and  N_8 
REMARK    3  A    between atoms: O_15  and  C_10 
REMARK    4  A    between atoms: C_16  and  O_15 
ROOT
ATOM      1  C   UNL d   1     -48.007  14.195  22.324  0.00  0.00     0.082 A 
ATOM      2  C   UNL d   1     -49.421  15.001  22.562  0.00  0.00     0.100 A 
ATOM      3  C   UNL d   1     -48.029  14.843  22.830  0.00  0.00     0.021 A 
ATOM      4  C   UNL d   1     -48.687  13.946  21.936  0.00  0.00     0.021 A 
ATOM      5  C   UNL d   1     -48.738  15.249  22.951  0.00  0.00     0.026 A 
ATOM      6  C   UNL d   1     -49.400  14.351  22.054  0.00  0.00     0.026 A 
ENDROOT
BRANCH   1   7
ATOM      7  N   UNL d   1     -47.294  13.789  22.205  0.00  0.00    -0.245 NA
BRANCH   7   8
ATOM      8  C   UNL d   1     -47.022  13.133  22.640  0.00  0.00     0.093 A 
ATOM      9  C   UNL d   1     -47.261  12.500  23.120  0.00  0.00     0.118 A 
ATOM     10  S   UNL d   1     -46.593  12.086  23.335  0.00  0.00     0.213 S 
ATOM     11  C   UNL d   1     -45.935  12.451  22.995  0.00  0.00     0.100 A 
ATOM     12  O   UNL d   1     -45.908  11.662  23.554  0.00  0.00    -0.217 OA
ATOM     13  O   UNL d   1     -47.213  11.681  23.698  0.00  0.00    -0.217 OA
ATOM     14  C   UNL d   1     -46.203  13.100  22.565  0.00  0.00     0.032 A 
ENDBRANCH   7   8
ENDBRANCH   1   7
BRANCH   2  15
ATOM     15  O   UNL d   1     -50.134  15.406  22.681  0.00  0.00    -0.305 OA
BRANCH  15  16
ATOM     16  C   UNL d   1     -50.535  15.326  23.396  0.00  0.00     0.123 C 
ATOM     17  C   UNL d   1     -51.064  15.918  23.639  0.00  0.00     0.029 C 
ENDBRANCH  15  16
ENDBRANCH   2  15
TORSDOF 4
ENDMDL
MODEL 5
REMARK VINA RESULT:      -5.3      8.206      8.603
REMARK  4 active torsions:
REMARK  status: ('A' for Active; 'I' for Inactive)
REMARK    1  A    between atoms: N_8  and  C_7 
REMARK    2  A    between atoms: C_9  and  N_8 
REMARK    3  A    between atoms: O_15  and  C_10 
REMARK    4  A    between atoms: C_16  and  O_15 
ROOT
ATOM      1  C   UNL d   1     -39.612  14.798  20.367  0.00  0.00     0.082 A 
ATOM      2  C   UNL d   1     -39.190  13.828  21.625  0.00  0.00     0.100 A 
ATOM      3  C   UNL d   1     -38.863  14.456  20.388  0.00  0.00     0.021 A 
ATOM      4  C   UNL d   1     -40.151  14.659  20.970  0.00  0.00     0.021 A 
ATOM      5  C   UNL d   1     -38.650  13.968  21.019  0.00  0.00     0.026 A 
ATOM      6  C   UNL d   1     -39.940  14.170  21.605  0.00  0.00     0.026 A 
ENDROOT
BRANCH   1   7
ATOM      7  N   UNL d   1     -39.822  15.287  19.732  0.00  0.00    -0.245 NA
BRANCH   7   8
ATOM      8  C   UNL d   1     -40.182  15.044  19.020  0.00  0.00     0.093 A 
ATOM      9  C   UNL d   1     -40.447  14.384  18.594  0.00  0.00     0.118 A 
ATOM     10  S   UNL d   1     -40.754  14.651  17.889  0.00  0.00     0.213 S 
ATOM     11  C   UNL d   1     -40.685  15.474  17.866  0.00  0.00     0.100 A 
ATOM     12  O   UNL d   1     -41.069  14.927  17.166  0.00  0.00    -0.217 OA
ATOM     13  O   UNL d   1     -40.847  13.832  17.858  0.00  0.00    -0.217 OA
ATOM     14  C   UNL d   1     -40.331  15.716  18.568  0.00  0.00     0.032 A 
ENDBRANCH   7   8
ENDBRANCH   1   7
BRANCH   2  15
ATOM     15  O   UNL d   1     -38.979  13.339  22.260  0.00  0.00    -0.305 OA
BRANCH  15  16
ATOM     16  C   UNL d   1     -38.670  13.672  22.948  0.00  0.00     0.123 C 
ATOM     17  C   UNL d   1     -38.455  13.182  23.582  0.00  0.00     0.029 C 
ENDBRANCH  15  16
ENDBRANCH   2  15
TORSDOF 4
ENDMDL
MODEL 6
REMARK VINA RESULT:      -3.8      1.674      4.320
REMARK  4 active torsions:
REMARK  status: ('A' for Active; 'I' for Inactive)
REMARK    1  A    between atoms: N_8  and  C_7 
REMARK    2  A    between atoms: C_9  and  N_8 
REMARK    3  A    between atoms: O_15  and  C_10 
REMARK    4  A    between atoms: C_16  and  O_15 
ROOT
ATOM      1  C   UNL d   1     -48.942  11.855  23.216  0.00  0.00     0.082 A 
ATOM      2  C   UNL d   1     -50.122  12.752  22.504  0.00  0.00     0.100 A 
ATOM      3  C   UNL d   1     -49.077  11.787  22.407  0.00  0.00     0.021 A 
ATOM      4  C   UNL d   1     -49.393  12.368  23.672  0.00  0.00     0.021 A 
ATOM      5  C   UNL d   1     -49.669  12.237  22.048  0.00  0.00     0.026 A 
ATOM      6  C   UNL d   1     -49.988  12.821  23.315  0.00  0.00     0.026 A 
ENDROOT
BRANCH   1   7
ATOM      7  N   UNL d   1     -48.347  11.403  23.573  0.00  0.00    -0.245 NA
BRANCH   7   8
ATOM      8  C   UNL d   1     -47.534  11.587  23.596  0.00  0.00     0.093 A 
ATOM      9  C   UNL d   1     -46.986  12.209  23.571  0.00  0.00     0.118 A 
ATOM     10  S   UNL d   1     -46.242  11.886  23.634  0.00  0.00     0.213 S 
ATOM     11  C   UNL d   1     -46.314  11.067  23.698  0.00  0.00     0.100 A 
ATOM     12  O   UNL d   1     -45.478  11.554  23.698  0.00  0.00    -0.217 OA
ATOM     13  O   UNL d   1     -46.110  12.699  23.573  0.00  0.00    -0.217 OA
ATOM     14  C   UNL d   1     -47.115  10.883  23.675  0.00  0.00     0.032 A 
ENDBRANCH   7   8
ENDBRANCH   1   7
BRANCH   2  15
ATOM     15  O   UNL d   1     -50.718  13.205  22.147  0.00  0.00    -0.305 OA
BRANCH  15  16
ATOM     16  C   UNL d   1     -50.561  13.982  21.922  0.00  0.00     0.123 C 
ATOM     17  C   UNL d   1     -51.065  14.365  21.384  0.00  0.00     0.029 C 
ENDBRANCH  15  16
ENDBRANCH   2  15
TORSDOF 4
ENDMDL
