MODEL 1
REMARK VINA RESULT:      -8.4      0.000      0.000
REMARK  5 active torsions:
REMARK  status: ('A' for Active; 'I' for Inactive)
REMARK    1  A    between atoms: C_2  and  S_1 
REMARK    2  A    between atoms: N_4  and  S_1 
REMARK    3  A    between atoms: C_10  and  C_9 
REMARK       I    between atoms: N_15  and  C_10 
REMARK    4  A    between atoms: C_24  and  N_15 
REMARK    5  A    between atoms: C_16  and  C_24 
ROOT
ATOM      1  N   UNL d   1      53.274  33.316  53.901  0.00  0.00    -0.229 N 
ATOM      2  C   UNL d   1      53.530  32.001  53.415  0.00  0.00     0.076 A 
ATOM      3  C   UNL d   1      53.035  32.532  53.775  0.00  0.00     0.096 A 
ATOM      4  C   UNL d   1      54.016  33.549  53.658  0.00  0.00     0.092 A 
ATOM      5  C   UNL d   1      54.303  32.247  53.163  0.00  0.00     0.008 A 
ATOM      6  C   UNL d   1      54.529  33.030  53.294  0.00  0.00     0.020 A 
ENDROOT
BRANCH   1   7
ATOM      7  S   UNL d   1      52.756  33.851  54.272  0.00  0.00     0.273 S 
ATOM      8  O   UNL d   1      52.241  34.382  54.637  0.00  0.00    -0.200 OA
ATOM      9  O   UNL d   1      53.037  33.620  55.015  0.00  0.00    -0.200 OA
BRANCH   7  10
ATOM     10  C   UNL d   1      52.469  34.088  53.530  0.00  0.00     0.125 A 
ATOM     11  C   UNL d   1      51.684  33.972  53.324  0.00  0.00     0.142 A 
ATOM     12  C   UNL d   1      51.406  34.211  52.581  0.00  0.00     0.131 A 
ATOM     13  N   UNL d   1      51.058  33.635  53.745  0.00  0.00    -0.101 NA
ATOM     14  N   UNL d   1      50.604  34.020  52.544  0.00  0.00    -0.102 NA
ATOM     15  C   UNL d   1      51.909  34.562  52.050  0.00  0.00     0.023 A 
ATOM     16  O   UNL d   1      50.391  33.669  53.254  0.00  0.00    -0.106 OA
ATOM     17  C   UNL d   1      52.701  34.685  52.243  0.00  0.00     0.002 A 
ATOM     18  C   UNL d   1      52.982  34.446  52.988  0.00  0.00     0.015 A 
ENDBRANCH   7  10
ENDBRANCH   1   7
BRANCH   2  19
ATOM     19  C   UNL d   1      53.306  31.223  53.285  0.00  0.00     0.281 C 
ATOM     20  N   UNL d   1      53.417  30.648  53.862  0.00  0.00    -0.204 NA
ATOM     21  O   UNL d   1      52.962  31.024  52.557  0.00  0.00    -0.265 OA
BRANCH  20  22
ATOM     22  C   UNL d   1      53.180  29.848  53.714  0.00  0.00     0.127 C 
BRANCH  22  23
ATOM     23  C   UNL d   1      53.278  29.264  54.321  0.00  0.00     0.119 A 
ATOM     24  O   UNL d   1      52.907  29.269  55.057  0.00  0.00    -0.304 OA
ATOM     25  C   UNL d   1      53.157  28.601  55.475  0.00  0.00     0.123 A 
ATOM     26  C   UNL d   1      53.681  28.185  54.994  0.00  0.00     0.029 A 
ATOM     27  C   UNL d   1      53.754  28.598  54.279  0.00  0.00     0.028 A 
ENDBRANCH  22  23
ENDBRANCH  20  22
ENDBRANCH   2  19
TORSDOF 5
ENDMDL
MODEL 2
REMARK VINA RESULT:      -7.8      2.397      5.014
REMARK  5 active torsions:
REMARK  status: ('A' for Active; 'I' for Inactive)
REMARK    1  A    between atoms: C_2  and  S_1 
REMARK    2  A    between atoms: N_4  and  S_1 
REMARK    3  A    between atoms: C_10  and  C_9 
REMARK       I    between atoms: N_15  and  C_10 
REMARK    4  A    between atoms: C_24  and  N_15 
REMARK    5  A    between atoms: C_16  and  C_24 
ROOT
ATOM      1  N   UNL d   1      52.575  34.732  53.822  0.00  0.00    -0.229 N 
ATOM      2  C   UNL d   1      51.428  34.453  53.023  0.00  0.00     0.076 A 
ATOM      3  C   UNL d   1      51.760  34.605  53.747  0.00  0.00     0.096 A 
ATOM      4  C   UNL d   1      53.045  34.702  53.156  0.00  0.00     0.092 A 
ATOM      5  C   UNL d   1      51.921  34.423  52.331  0.00  0.00     0.008 A 
ATOM      6  C   UNL d   1      52.731  34.551  52.419  0.00  0.00     0.020 A 
ENDROOT
BRANCH   1   7
ATOM      7  S   UNL d   1      52.902  34.886  54.571  0.00  0.00     0.273 S 
ATOM      8  O   UNL d   1      53.226  35.037  55.314  0.00  0.00    -0.200 OA
ATOM      9  O   UNL d   1      52.549  35.634  54.579  0.00  0.00    -0.200 OA
BRANCH   7  10
ATOM     10  C   UNL d   1      53.259  34.137  54.570  0.00  0.00     0.125 A 
ATOM     11  C   UNL d   1      54.058  34.050  54.735  0.00  0.00     0.142 A 
ATOM     12  C   UNL d   1      54.406  33.299  54.732  0.00  0.00     0.131 A 
ATOM     13  N   UNL d   1      54.636  34.610  54.920  0.00  0.00    -0.101 NA
ATOM     14  N   UNL d   1      55.205  33.396  54.917  0.00  0.00    -0.102 NA
ATOM     15  C   UNL d   1      53.961  32.642  54.566  0.00  0.00     0.023 A 
ATOM     16  O   UNL d   1      55.345  34.196  55.031  0.00  0.00    -0.106 OA
ATOM     17  C   UNL d   1      53.156  32.713  54.398  0.00  0.00     0.002 A 
ATOM     18  C   UNL d   1      52.805  33.467  54.401  0.00  0.00     0.015 A 
ENDBRANCH   7  10
ENDBRANCH   1   7
BRANCH   2  19
ATOM     19  C   UNL d   1      50.623  34.326  52.936  0.00  0.00     0.281 C 
ATOM     20  N   UNL d   1      50.092  34.954  52.947  0.00  0.00    -0.204 NA
ATOM     21  O   UNL d   1      50.350  33.550  52.836  0.00  0.00    -0.265 OA
BRANCH  20  22
ATOM     22  C   UNL d   1      49.262  34.808  52.855  0.00  0.00     0.127 C 
BRANCH  22  23
ATOM     23  C   UNL d   1      48.714  35.450  52.931  0.00  0.00     0.119 A 
ATOM     24  O   UNL d   1      48.649  35.954  53.580  0.00  0.00    -0.304 OA
ATOM     25  C   UNL d   1      48.048  36.499  53.424  0.00  0.00     0.123 A 
ATOM     26  C   UNL d   1      47.743  36.330  52.677  0.00  0.00     0.029 A 
ATOM     27  C   UNL d   1      48.158  35.679  52.374  0.00  0.00     0.028 A 
ENDBRANCH  22  23
ENDBRANCH  20  22
ENDBRANCH   2  19
TORSDOF 5
ENDMDL
MODEL 3
REMARK VINA RESULT:      -7.7      1.712      4.552
REMARK  5 active torsions:
REMARK  status: ('A' for Active; 'I' for Inactive)
REMARK    1  A    between atoms: C_2  and  S_1 
REMARK    2  A    between atoms: N_4  and  S_1 
REMARK    3  A    between atoms: C_10  and  C_9 
REMARK       I    between atoms: N_15  and  C_10 
REMARK    4  A    between atoms: C_24  and  N_15 
REMARK    5  A    between atoms: C_16  and  C_24 
ROOT
ATOM      1  N   UNL d   1      53.108  33.989  54.216  0.00  0.00    -0.229 N 
ATOM      2  C   UNL d   1      52.087  34.296  53.270  0.00  0.00     0.076 A 
ATOM      3  C   UNL d   1      52.377  33.823  53.862  0.00  0.00     0.096 A 
ATOM      4  C   UNL d   1      53.536  34.635  53.962  0.00  0.00     0.092 A 
ATOM      5  C   UNL d   1      52.536  34.969  53.008  0.00  0.00     0.008 A 
ATOM      6  C   UNL d   1      53.262  35.122  53.369  0.00  0.00     0.020 A 
ENDROOT
BRANCH   1   7
ATOM      7  S   UNL d   1      53.394  33.496  54.822  0.00  0.00     0.273 S 
ATOM      8  O   UNL d   1      53.679  33.005  55.421  0.00  0.00    -0.200 OA
ATOM      9  O   UNL d   1      52.911  33.880  55.372  0.00  0.00    -0.200 OA
BRANCH   7  10
ATOM     10  C   UNL d   1      53.881  33.106  54.275  0.00  0.00     0.125 A 
ATOM     11  C   UNL d   1      53.775  32.310  54.106  0.00  0.00     0.142 A 
ATOM     12  C   UNL d   1      54.266  31.929  53.559  0.00  0.00     0.131 A 
ATOM     13  N   UNL d   1      53.228  31.764  54.397  0.00  0.00    -0.101 NA
ATOM     14  N   UNL d   1      54.020  31.142  53.512  0.00  0.00    -0.102 NA
ATOM     15  C   UNL d   1      54.857  32.339  53.184  0.00  0.00     0.023 A 
ATOM     16  O   UNL d   1      53.387  31.041  54.024  0.00  0.00    -0.106 OA
ATOM     17  C   UNL d   1      54.977  33.139  53.344  0.00  0.00     0.002 A 
ATOM     18  C   UNL d   1      54.484  33.524  53.893  0.00  0.00     0.015 A 
ENDBRANCH   7  10
ENDBRANCH   1   7
BRANCH   2  19
ATOM     19  C   UNL d   1      51.366  34.143  52.912  0.00  0.00     0.281 C 
ATOM     20  N   UNL d   1      50.705  34.605  53.076  0.00  0.00    -0.204 NA
ATOM     21  O   UNL d   1      51.312  33.512  52.377  0.00  0.00    -0.265 OA
BRANCH  20  22
ATOM     22  C   UNL d   1      49.965  34.436  52.698  0.00  0.00     0.127 C 
BRANCH  22  23
ATOM     23  C   UNL d   1      49.318  34.975  52.787  0.00  0.00     0.119 A 
ATOM     24  O   UNL d   1      49.158  35.429  53.457  0.00  0.00    -0.304 OA
ATOM     25  C   UNL d   1      48.478  35.876  53.307  0.00  0.00     0.123 A 
ATOM     26  C   UNL d   1      48.221  35.697  52.546  0.00  0.00     0.029 A 
ATOM     27  C   UNL d   1      48.744  35.138  52.225  0.00  0.00     0.028 A 
ENDBRANCH  22  23
ENDBRANCH  20  22
ENDBRANCH   2  19
TORSDOF 5
ENDMDL
MODEL 4
REMARK VINA RESULT:      -7.6      1.568      4.290
REMARK  5 active torsions:
REMARK  status: ('A' for Active; 'I' for Inactive)
REMARK    1  A    between atoms: C_2  and  S_1 
REMARK    2  A    between atoms: N_4  and  S_1 
REMARK    3  A    between atoms: C_10  and  C_9 
REMARK       I    between atoms: N_15  and  C_10 
REMARK    4  A    between atoms: C_24  and  N_15 
REMARK    5  A    between atoms: C_16  and  C_24 
ROOT
ATOM      1  N   UNL d   1      54.135  33.142  54.017  0.00  0.00    -0.229 N 
ATOM      2  C   UNL d   1      53.178  34.182  54.200  0.00  0.00     0.076 A 
ATOM      3  C   UNL d   1      53.551  33.648  53.717  0.00  0.00     0.096 A 
ATOM      4  C   UNL d   1      54.332  33.186  54.807  0.00  0.00     0.092 A 
ATOM      5  C   UNL d   1      53.385  34.225  55.023  0.00  0.00     0.008 A 
ATOM      6  C   UNL d   1      53.968  33.715  55.309  0.00  0.00     0.020 A 
ENDROOT
BRANCH   1   7
ATOM      7  S   UNL d   1      54.511  32.599  53.510  0.00  0.00     0.273 S 
ATOM      8  O   UNL d   1      54.881  32.059  53.009  0.00  0.00    -0.200 OA
ATOM      9  O   UNL d   1      55.003  33.198  53.222  0.00  0.00    -0.200 OA
BRANCH   7  10
ATOM     10  C   UNL d   1      54.019  31.994  53.795  0.00  0.00     0.125 A 
ATOM     11  C   UNL d   1      53.497  31.605  53.297  0.00  0.00     0.142 A 
ATOM     12  C   UNL d   1      53.010  31.002  53.589  0.00  0.00     0.131 A 
ATOM     13  N   UNL d   1      53.344  31.702  52.491  0.00  0.00    -0.101 NA
ATOM     14  N   UNL d   1      52.554  30.725  52.959  0.00  0.00    -0.102 NA
ATOM     15  C   UNL d   1      53.046  30.790  54.371  0.00  0.00     0.023 A 
ATOM     16  O   UNL d   1      52.758  31.152  52.289  0.00  0.00    -0.106 OA
ATOM     17  C   UNL d   1      53.566  31.172  54.884  0.00  0.00     0.002 A 
ATOM     18  C   UNL d   1      54.056  31.778  54.592  0.00  0.00     0.015 A 
ENDBRANCH   7  10
ENDBRANCH   1   7
BRANCH   2  19
ATOM     19  C   UNL d   1      52.598  34.688  53.915  0.00  0.00     0.281 C 
ATOM     20  N   UNL d   1      51.949  34.399  53.503  0.00  0.00    -0.204 NA
ATOM     21  O   UNL d   1      52.678  35.502  54.052  0.00  0.00    -0.265 OA
BRANCH  20  22
ATOM     22  C   UNL d   1      51.358  34.933  53.214  0.00  0.00     0.127 C 
BRANCH  22  23
ATOM     23  C   UNL d   1      50.737  34.641  52.716  0.00  0.00     0.119 A 
ATOM     24  O   UNL d   1      50.834  34.333  51.957  0.00  0.00    -0.304 OA
ATOM     25  C   UNL d   1      50.089  34.115  51.672  0.00  0.00     0.123 A 
ATOM     26  C   UNL d   1      49.535  34.289  52.256  0.00  0.00     0.029 A 
ATOM     27  C   UNL d   1      49.940  34.615  52.903  0.00  0.00     0.028 A 
ENDBRANCH  22  23
ENDBRANCH  20  22
ENDBRANCH   2  19
TORSDOF 5
ENDMDL
MODEL 5
REMARK VINA RESULT:      -7.6      2.012      4.732
REMARK  5 active torsions:
REMARK  status: ('A' for Active; 'I' for Inactive)
REMARK    1  A    between atoms: C_2  and  S_1 
REMARK    2  A    between atoms: N_4  and  S_1 
REMARK    3  A    between atoms: C_10  and  C_9 
REMARK       I    between atoms: N_15  and  C_10 
REMARK    4  A    between atoms: C_24  and  N_15 
REMARK    5  A    between atoms: C_16  and  C_24 
ROOT
ATOM      1  N   UNL d   1      53.042  32.913  53.127  0.00  0.00    -0.229 N 
ATOM      2  C   UNL d   1      51.704  33.403  53.115  0.00  0.00     0.076 A 
ATOM      3  C   UNL d   1      52.503  33.541  53.087  0.00  0.00     0.096 A 
ATOM      4  C   UNL d   1      52.762  32.151  53.194  0.00  0.00     0.092 A 
ATOM      5  C   UNL d   1      51.415  32.607  53.185  0.00  0.00     0.008 A 
ATOM      6  C   UNL d   1      51.963  31.991  53.224  0.00  0.00     0.020 A 
ENDROOT
BRANCH   1   7
ATOM      7  S   UNL d   1      53.859  33.069  53.098  0.00  0.00     0.273 S 
ATOM      8  O   UNL d   1      54.669  33.224  53.072  0.00  0.00    -0.200 OA
ATOM      9  O   UNL d   1      53.803  33.253  52.293  0.00  0.00    -0.200 OA
BRANCH   7  10
ATOM     10  C   UNL d   1      53.923  32.887  53.905  0.00  0.00     0.125 A 
ATOM     11  C   UNL d   1      54.166  33.452  54.447  0.00  0.00     0.142 A 
ATOM     12  C   UNL d   1      54.227  33.261  55.251  0.00  0.00     0.131 A 
ATOM     13  N   UNL d   1      54.382  34.242  54.345  0.00  0.00    -0.101 NA
ATOM     14  N   UNL d   1      54.483  33.939  55.647  0.00  0.00    -0.102 NA
ATOM     15  C   UNL d   1      54.047  32.514  55.509  0.00  0.00     0.023 A 
ATOM     16  O   UNL d   1      54.577  34.538  55.095  0.00  0.00    -0.106 OA
ATOM     17  C   UNL d   1      53.801  31.935  54.976  0.00  0.00     0.002 A 
ATOM     18  C   UNL d   1      53.739  32.125  54.168  0.00  0.00     0.015 A 
ENDBRANCH   7  10
ENDBRANCH   1   7
BRANCH   2  19
ATOM     19  C   UNL d   1      51.160  34.015  53.077  0.00  0.00     0.281 C 
ATOM     20  N   UNL d   1      50.571  34.022  52.503  0.00  0.00    -0.204 NA
ATOM     21  O   UNL d   1      51.212  34.630  53.629  0.00  0.00    -0.265 OA
BRANCH  20  22
ATOM     22  C   UNL d   1      50.014  34.661  52.474  0.00  0.00     0.127 C 
BRANCH  22  23
ATOM     23  C   UNL d   1      49.420  34.672  51.870  0.00  0.00     0.119 A 
ATOM     24  O   UNL d   1      49.525  34.429  51.089  0.00  0.00    -0.304 OA
ATOM     25  C   UNL d   1      48.807  34.532  50.691  0.00  0.00     0.123 A 
ATOM     26  C   UNL d   1      48.262  34.837  51.228  0.00  0.00     0.029 A 
ATOM     27  C   UNL d   1      48.645  34.923  51.958  0.00  0.00     0.028 A 
ENDBRANCH  22  23
ENDBRANCH  20  22
ENDBRANCH   2  19
TORSDOF 5
ENDMDL
MODEL 6
REMARK VINA RESULT:      -7.4      1.372      2.149
REMARK  5 active torsions:
REMARK  status: ('A' for Active; 'I' for Inactive)
REMARK    1  A    between atoms: C_2  and  S_1 
REMARK    2  A    between atoms: N_4  and  S_1 
REMARK    3  A    between atoms: C_10  and  C_9 
REMARK       I    between atoms: N_15  and  C_10 
REMARK    4  A    between atoms: C_24  and  N_15 
REMARK    5  A    between atoms: C_16  and  C_24 
ROOT
ATOM      1  N   UNL d   1      52.297  33.659  53.047  0.00  0.00    -0.229 N 
ATOM      2  C   UNL d   1      52.188  32.238  53.008  0.00  0.00     0.076 A 
ATOM      3  C   UNL d   1      52.606  32.915  52.852  0.00  0.00     0.096 A 
ATOM      4  C   UNL d   1      51.563  33.705  53.399  0.00  0.00     0.092 A 
ATOM      5  C   UNL d   1      51.423  32.290  53.375  0.00  0.00     0.008 A 
ATOM      6  C   UNL d   1      51.126  33.036  53.564  0.00  0.00     0.020 A 
ENDROOT
BRANCH   1   7
ATOM      7  S   UNL d   1      52.737  34.345  52.881  0.00  0.00     0.273 S 
ATOM      8  O   UNL d   1      53.176  35.025  52.719  0.00  0.00    -0.200 OA
ATOM      9  O   UNL d   1      52.399  34.389  52.127  0.00  0.00    -0.200 OA
BRANCH   7  10
ATOM     10  C   UNL d   1      53.081  34.307  53.635  0.00  0.00     0.125 A 
ATOM     11  C   UNL d   1      52.957  34.902  54.186  0.00  0.00     0.142 A 
ATOM     12  C   UNL d   1      53.304  34.856  54.937  0.00  0.00     0.131 A 
ATOM     13  N   UNL d   1      52.519  35.600  54.139  0.00  0.00    -0.101 NA
ATOM     14  N   UNL d   1      53.077  35.531  55.355  0.00  0.00    -0.102 NA
ATOM     15  C   UNL d   1      53.768  34.222  55.135  0.00  0.00     0.023 A 
ATOM     16  O   UNL d   1      52.598  35.985  54.868  0.00  0.00    -0.106 OA
ATOM     17  C   UNL d   1      53.902  33.615  54.592  0.00  0.00     0.002 A 
ATOM     18  C   UNL d   1      53.555  33.660  53.838  0.00  0.00     0.015 A 
ENDBRANCH   7  10
ENDBRANCH   1   7
BRANCH   2  19
ATOM     19  C   UNL d   1      52.482  31.496  52.821  0.00  0.00     0.281 C 
ATOM     20  N   UNL d   1      52.618  30.935  53.405  0.00  0.00    -0.204 NA
ATOM     21  O   UNL d   1      52.643  31.320  52.027  0.00  0.00    -0.265 OA
BRANCH  20  22
ATOM     22  C   UNL d   1      52.923  30.171  53.198  0.00  0.00     0.127 C 
BRANCH  22  23
ATOM     23  C   UNL d   1      53.113  29.617  53.809  0.00  0.00     0.119 A 
ATOM     24  O   UNL d   1      52.569  29.196  54.264  0.00  0.00    -0.304 OA
ATOM     25  C   UNL d   1      52.990  28.720  54.792  0.00  0.00     0.123 A 
ATOM     26  C   UNL d   1      53.793  28.848  54.662  0.00  0.00     0.029 A 
ATOM     27  C   UNL d   1      53.867  29.405  54.052  0.00  0.00     0.028 A 
ENDBRANCH  22  23
ENDBRANCH  20  22
ENDBRANCH   2  19
TORSDOF 5
ENDMDL
