MODEL 1
REMARK VINA RESULT:      77.6      0.000      0.000
REMARK  5 active torsions:
REMARK  status: ('A' for Active; 'I' for Inactive)
REMARK    1  A    between atoms: C_9  and  N_1 
REMARK    2  A    between atoms: C_10  and  C_2 
REMARK    3  A    between atoms: C_3  and  C_11 
REMARK    4  A    between atoms: O_14  and  C_9 
REMARK    5  A    between atoms: C_11  and  O_14 
ROOT
ATOM      1  C   UNL d   1     -48.115  29.523  34.473  0.00  0.00     0.305 C 
ATOM      2  O   UNL d   1     -47.635  29.659  33.811  0.00  0.00    -0.259 OA
ENDROOT
BRANCH   1   3
ATOM      3  C   UNL d   1     -47.924  29.869  35.193  0.00  0.00     0.108 A 
ATOM      4  C   UNL d   1     -47.861  30.679  35.347  0.00  0.00     0.116 A 
ATOM      5  N   UNL d   1     -47.661  30.771  36.131  0.00  0.00    -0.126 NA
ATOM      6  O   UNL d   1     -47.597  30.030  36.472  0.00  0.00    -0.211 OA
ATOM      7  C   UNL d   1     -47.761  29.471  35.889  0.00  0.00     0.132 A 
ATOM      8  C   UNL d   1     -47.761  28.649  35.986  0.00  0.00     0.029 C 
BRANCH   4   9
ATOM      9  C   UNL d   1     -47.980  31.285  34.800  0.00  0.00     0.031 A 
ATOM     10  C   UNL d   1     -47.385  31.834  34.666  0.00  0.00     0.059 A 
ATOM     11 CL   UNL d   1     -46.684  31.783  35.067  0.00  0.00    -0.082 Cl
ATOM     12  C   UNL d   1     -47.505  32.432  34.124  0.00  0.00     0.011 A 
ATOM     13  C   UNL d   1     -48.221  32.489  33.710  0.00  0.00     0.001 A 
ATOM     14  C   UNL d   1     -48.816  31.941  33.843  0.00  0.00     0.000 A 
ATOM     15  C   UNL d   1     -48.697  31.334  34.391  0.00  0.00     0.002 A 
ENDBRANCH   4   9
ENDBRANCH   1   3
BRANCH   1  16
ATOM     16  O   UNL d   1     -48.784  29.041  34.407  0.00  0.00    -0.252 OA
BRANCH  16  17
ATOM     17  C   UNL d   1     -49.053  28.809  33.659  0.00  0.00     0.216 C 
BRANCH  17  18
ATOM     18  N   UNL d   1     -49.592  28.186  33.590  0.00  0.00    -0.218 N 
ATOM     19  C   UNL d   1     -50.397  28.260  33.454  0.00  0.00     0.269 A 
ATOM     20  C   UNL d   1     -50.726  27.501  33.424  0.00  0.00     0.061 A 
ATOM     21  O   UNL d   1     -50.814  28.970  33.361  0.00  0.00    -0.267 OA
ATOM     22  C   UNL d   1     -51.495  27.231  33.306  0.00  0.00     0.005 A 
ATOM     23  C   UNL d   1     -50.114  26.958  33.544  0.00  0.00     0.061 A 
ATOM     24  C   UNL d   1     -51.654  26.428  33.306  0.00  0.00     0.000 A 
ATOM     25  C   UNL d   1     -51.043  25.885  33.425  0.00  0.00     0.000 A 
ATOM     26  C   UNL d   1     -50.271  26.145  33.545  0.00  0.00     0.005 A 
ATOM     27  C   UNL d   1     -49.405  27.380  33.648  0.00  0.00     0.269 A 
ATOM     28  O   UNL d   1     -48.660  27.059  33.782  0.00  0.00    -0.267 OA
ENDBRANCH  17  18
ENDBRANCH  16  17
ENDBRANCH   1  16
TORSDOF 5
ENDMDL
