MODEL 1
REMARK VINA RESULT:      -9.2      0.000      0.000
REMARK  2 active torsions:
REMARK  status: ('A' for Active; 'I' for Inactive)
REMARK    1  A    between atoms: C_7  and  C_1 
REMARK    2  A    between atoms: O_16  and  C_12 
ROOT
ATOM      1  C   UNL d   1     -48.468  13.758  22.935  0.00  0.00     0.105 A 
ATOM      2  C   UNL d   1     -46.995  13.011  23.187  0.00  0.00     0.064 A 
ATOM      3  O   UNL d   1     -48.444  12.966  23.190  0.00  0.00    -0.307 OA
ATOM      4  C   UNL d   1     -47.023  13.800  22.933  0.00  0.00     0.200 A 
ATOM      5  C   UNL d   1     -47.712  12.596  23.315  0.00  0.00     0.103 A 
ATOM      6  C   UNL d   1     -47.755  14.179  22.805  0.00  0.00     0.067 A 
ATOM      7  C   UNL d   1     -46.273  12.639  23.312  0.00  0.00     0.029 A 
ATOM      8  O   UNL d   1     -46.322  14.214  22.804  0.00  0.00    -0.286 OA
ATOM      9  C   UNL d   1     -47.683  11.806  23.570  0.00  0.00     0.027 A 
ATOM     10  C   UNL d   1     -46.249  11.857  23.565  0.00  0.00     0.094 A 
ATOM     11  C   UNL d   1     -46.952  11.442  23.693  0.00  0.00     0.026 A 
ENDROOT
BRANCH   1  12
ATOM     12  C   UNL d   1     -49.186  14.131  22.809  0.00  0.00     0.050 A 
ATOM     13  C   UNL d   1     -49.599  13.997  22.112  0.00  0.00     0.142 A 
ATOM     14  F   UNL d   1     -49.280  13.481  21.540  0.00  0.00    -0.204 F 
ATOM     15  C   UNL d   1     -50.322  14.369  21.979  0.00  0.00     0.030 A 
ATOM     16  C   UNL d   1     -50.632  14.877  22.547  0.00  0.00     0.002 A 
ATOM     17  C   UNL d   1     -50.220  15.015  23.248  0.00  0.00     0.000 A 
ATOM     18  C   UNL d   1     -49.498  14.643  23.382  0.00  0.00     0.004 A 
ENDBRANCH   1  12
BRANCH  10  19
ATOM     19  O   UNL d   1     -45.524  11.488  23.690  0.00  0.00    -0.328 OA
ATOM     20  C   UNL d   1     -45.476  10.664  23.696  0.00  0.00     0.181 C 
ENDBRANCH  10  19
TORSDOF 2
ENDMDL
MODEL 2
REMARK VINA RESULT:      -8.7      0.886      1.533
REMARK  2 active torsions:
REMARK  status: ('A' for Active; 'I' for Inactive)
REMARK    1  A    between atoms: C_7  and  C_1 
REMARK    2  A    between atoms: O_16  and  C_12 
ROOT
ATOM      1  C   UNL d   1     -49.082  12.959  22.716  0.00  0.00     0.105 A 
ATOM      2  C   UNL d   1     -47.750  12.107  23.256  0.00  0.00     0.064 A 
ATOM      3  O   UNL d   1     -48.320  13.282  22.626  0.00  0.00    -0.307 OA
ATOM      4  C   UNL d   1     -48.511  11.789  23.343  0.00  0.00     0.200 A 
ATOM      5  C   UNL d   1     -47.659  12.858  22.895  0.00  0.00     0.103 A 
ATOM      6  C   UNL d   1     -49.180  12.209  23.076  0.00  0.00     0.067 A 
ATOM      7  C   UNL d   1     -47.093  11.692  23.520  0.00  0.00     0.029 A 
ATOM      8  O   UNL d   1     -48.608  11.050  23.697  0.00  0.00    -0.286 OA
ATOM      9  C   UNL d   1     -46.897  13.176  22.808  0.00  0.00     0.027 A 
ATOM     10  C   UNL d   1     -46.339  12.010  23.432  0.00  0.00     0.094 A 
ATOM     11  C   UNL d   1     -46.242  12.750  23.077  0.00  0.00     0.026 A 
ENDROOT
BRANCH   1  12
ATOM     12  C   UNL d   1     -49.740  13.371  22.453  0.00  0.00     0.050 A 
ATOM     13  C   UNL d   1     -50.053  13.210  21.712  0.00  0.00     0.142 A 
ATOM     14  F   UNL d   1     -49.695  12.627  21.235  0.00  0.00    -0.204 F 
ATOM     15  C   UNL d   1     -50.714  13.620  21.442  0.00  0.00     0.030 A 
ATOM     16  C   UNL d   1     -51.063  14.194  21.917  0.00  0.00     0.002 A 
ATOM     17  C   UNL d   1     -50.751  14.359  22.663  0.00  0.00     0.000 A 
ATOM     18  C   UNL d   1     -50.090  13.949  22.933  0.00  0.00     0.004 A 
ENDBRANCH   1  12
BRANCH  10  19
ATOM     19  O   UNL d   1     -45.682  11.591  23.698  0.00  0.00    -0.328 OA
ATOM     20  C   UNL d   1     -45.094  11.364  23.166  0.00  0.00     0.181 C 
ENDBRANCH  10  19
TORSDOF 2
ENDMDL
MODEL 3
REMARK VINA RESULT:      -7.7      1.439      4.139
REMARK  2 active torsions:
REMARK  status: ('A' for Active; 'I' for Inactive)
REMARK    1  A    between atoms: C_7  and  C_1 
REMARK    2  A    between atoms: O_16  and  C_12 
ROOT
ATOM      1  C   UNL d   1     -47.410  13.319  22.484  0.00  0.00     0.105 A 
ATOM      2  C   UNL d   1     -48.928  13.984  22.273  0.00  0.00     0.064 A 
ATOM      3  O   UNL d   1     -47.606  14.032  22.867  0.00  0.00    -0.307 OA
ATOM      4  C   UNL d   1     -48.728  13.274  21.893  0.00  0.00     0.200 A 
ATOM      5  C   UNL d   1     -48.360  14.361  22.761  0.00  0.00     0.103 A 
ATOM      6  C   UNL d   1     -47.972  12.937  21.994  0.00  0.00     0.067 A 
ATOM      7  C   UNL d   1     -49.673  14.315  22.172  0.00  0.00     0.029 A 
ATOM      8  O   UNL d   1     -49.281  12.897  21.411  0.00  0.00    -0.286 OA
ATOM      9  C   UNL d   1     -48.560  15.072  23.141  0.00  0.00     0.027 A 
ATOM     10  C   UNL d   1     -49.867  15.019  22.550  0.00  0.00     0.094 A 
ATOM     11  C   UNL d   1     -49.313  15.396  23.032  0.00  0.00     0.026 A 
ENDROOT
BRANCH   1  12
ATOM     12  C   UNL d   1     -46.667  12.987  22.583  0.00  0.00     0.050 A 
ATOM     13  C   UNL d   1     -46.560  12.381  23.127  0.00  0.00     0.142 A 
ATOM     14  F   UNL d   1     -47.212  12.112  23.572  0.00  0.00    -0.204 F 
ATOM     15  C   UNL d   1     -45.817  12.043  23.231  0.00  0.00     0.030 A 
ATOM     16  C   UNL d   1     -45.178  12.312  22.788  0.00  0.00     0.002 A 
ATOM     17  C   UNL d   1     -45.282  12.920  22.241  0.00  0.00     0.000 A 
ATOM     18  C   UNL d   1     -46.024  13.259  22.136  0.00  0.00     0.004 A 
ENDBRANCH   1  12
BRANCH  10  19
ATOM     19  O   UNL d   1     -50.615  15.348  22.446  0.00  0.00    -0.328 OA
ATOM     20  C   UNL d   1     -51.063  15.570  23.103  0.00  0.00     0.181 C 
ENDBRANCH  10  19
TORSDOF 2
ENDMDL
MODEL 4
REMARK VINA RESULT:      -6.7      8.708      9.883
REMARK  2 active torsions:
REMARK  status: ('A' for Active; 'I' for Inactive)
REMARK    1  A    between atoms: C_7  and  C_1 
REMARK    2  A    between atoms: O_16  and  C_12 
ROOT
ATOM      1  C   UNL d   1     -40.244  14.960  18.768  0.00  0.00     0.105 A 
ATOM      2  C   UNL d   1     -39.704  14.743  17.202  0.00  0.00     0.064 A 
ATOM      3  O   UNL d   1     -39.455  14.734  18.630  0.00  0.00    -0.307 OA
ATOM      4  C   UNL d   1     -40.490  14.969  17.344  0.00  0.00     0.200 A 
ATOM      5  C   UNL d   1     -39.188  14.626  17.852  0.00  0.00     0.103 A 
ATOM      6  C   UNL d   1     -40.765  15.079  18.123  0.00  0.00     0.067 A 
ATOM      7  C   UNL d   1     -39.435  14.635  16.434  0.00  0.00     0.029 A 
ATOM      8  O   UNL d   1     -41.003  15.086  16.709  0.00  0.00    -0.286 OA
ATOM      9  C   UNL d   1     -38.402  14.400  17.709  0.00  0.00     0.027 A 
ATOM     10  C   UNL d   1     -38.655  14.411  16.297  0.00  0.00     0.094 A 
ATOM     11  C   UNL d   1     -38.141  14.293  16.932  0.00  0.00     0.026 A 
ENDROOT
BRANCH   1  12
ATOM     12  C   UNL d   1     -40.516  15.069  19.534  0.00  0.00     0.050 A 
ATOM     13  C   UNL d   1     -40.813  14.431  19.955  0.00  0.00     0.142 A 
ATOM     14  F   UNL d   1     -40.834  13.678  19.597  0.00  0.00    -0.204 F 
ATOM     15  C   UNL d   1     -41.088  14.533  20.725  0.00  0.00     0.030 A 
ATOM     16  C   UNL d   1     -41.065  15.278  21.073  0.00  0.00     0.002 A 
ATOM     17  C   UNL d   1     -40.767  15.922  20.652  0.00  0.00     0.000 A 
ATOM     18  C   UNL d   1     -40.492  15.821  19.883  0.00  0.00     0.004 A 
ENDBRANCH   1  12
BRANCH  10  19
ATOM     19  O   UNL d   1     -38.388  14.303  15.525  0.00  0.00    -0.328 OA
ATOM     20  C   UNL d   1     -37.979  13.616  15.322  0.00  0.00     0.181 C 
ENDBRANCH  10  19
TORSDOF 2
ENDMDL
MODEL 5
REMARK VINA RESULT:      -6.6      8.657      9.665
REMARK  2 active torsions:
REMARK  status: ('A' for Active; 'I' for Inactive)
REMARK    1  A    between atoms: C_7  and  C_1 
REMARK    2  A    between atoms: O_16  and  C_12 
ROOT
ATOM      1  C   UNL d   1     -39.680  14.564  19.694  0.00  0.00     0.105 A 
ATOM      2  C   UNL d   1     -40.293  14.639  18.142  0.00  0.00     0.064 A 
ATOM      3  O   UNL d   1     -40.152  15.210  19.467  0.00  0.00    -0.307 OA
ATOM      4  C   UNL d   1     -39.822  13.997  18.373  0.00  0.00     0.200 A 
ATOM      5  C   UNL d   1     -40.456  15.247  18.696  0.00  0.00     0.103 A 
ATOM      6  C   UNL d   1     -39.512  13.953  19.146  0.00  0.00     0.067 A 
ATOM      7  C   UNL d   1     -40.596  14.680  17.380  0.00  0.00     0.029 A 
ATOM      8  O   UNL d   1     -39.657  13.395  17.833  0.00  0.00    -0.286 OA
ATOM      9  C   UNL d   1     -40.927  15.890  18.465  0.00  0.00     0.027 A 
ATOM     10  C   UNL d   1     -41.063  15.319  17.155  0.00  0.00     0.094 A 
ATOM     11  C   UNL d   1     -41.228  15.922  17.695  0.00  0.00     0.026 A 
ENDROOT
BRANCH   1  12
ATOM     12  C   UNL d   1     -39.375  14.520  20.454  0.00  0.00     0.050 A 
ATOM     13  C   UNL d   1     -39.832  14.204  21.059  0.00  0.00     0.142 A 
ATOM     14  F   UNL d   1     -40.601  13.931  20.890  0.00  0.00    -0.204 F 
ATOM     15  C   UNL d   1     -39.532  14.157  21.824  0.00  0.00     0.030 A 
ATOM     16  C   UNL d   1     -38.772  14.428  21.985  0.00  0.00     0.002 A 
ATOM     17  C   UNL d   1     -38.310  14.746  21.379  0.00  0.00     0.000 A 
ATOM     18  C   UNL d   1     -38.609  14.793  20.614  0.00  0.00     0.004 A 
ENDBRANCH   1  12
BRANCH  10  19
ATOM     19  O   UNL d   1     -41.366  15.357  16.390  0.00  0.00    -0.328 OA
ATOM     20  C   UNL d   1     -41.940  15.919  16.201  0.00  0.00     0.181 C 
ENDBRANCH  10  19
TORSDOF 2
ENDMDL
MODEL 6
REMARK VINA RESULT:      -6.6      1.414      1.728
REMARK  2 active torsions:
REMARK  status: ('A' for Active; 'I' for Inactive)
REMARK    1  A    between atoms: C_7  and  C_1 
REMARK    2  A    between atoms: O_16  and  C_12 
ROOT
ATOM      1  C   UNL d   1     -48.736  14.261  22.695  0.00  0.00     0.105 A 
ATOM      2  C   UNL d   1     -47.374  13.393  22.270  0.00  0.00     0.064 A 
ATOM      3  O   UNL d   1     -48.003  14.444  23.044  0.00  0.00    -0.307 OA
ATOM      4  C   UNL d   1     -48.106  13.213  21.925  0.00  0.00     0.200 A 
ATOM      5  C   UNL d   1     -47.327  14.013  22.832  0.00  0.00     0.103 A 
ATOM      6  C   UNL d   1     -48.790  13.642  22.132  0.00  0.00     0.067 A 
ATOM      7  C   UNL d   1     -46.701  12.969  22.064  0.00  0.00     0.029 A 
ATOM      8  O   UNL d   1     -48.160  12.604  21.371  0.00  0.00    -0.286 OA
ATOM      9  C   UNL d   1     -46.594  14.193  23.177  0.00  0.00     0.027 A 
ATOM     10  C   UNL d   1     -45.976  13.150  22.408  0.00  0.00     0.094 A 
ATOM     11  C   UNL d   1     -45.923  13.760  22.963  0.00  0.00     0.026 A 
ENDROOT
BRANCH   1  12
ATOM     12  C   UNL d   1     -49.409  14.682  22.899  0.00  0.00     0.050 A 
ATOM     13  C   UNL d   1     -50.133  14.297  22.946  0.00  0.00     0.142 A 
ATOM     14  F   UNL d   1     -50.172  13.480  22.786  0.00  0.00    -0.204 F 
ATOM     15  C   UNL d   1     -50.813  14.715  23.150  0.00  0.00     0.030 A 
ATOM     16  C   UNL d   1     -50.767  15.521  23.307  0.00  0.00     0.002 A 
ATOM     17  C   UNL d   1     -50.042  15.911  23.260  0.00  0.00     0.000 A 
ATOM     18  C   UNL d   1     -49.362  15.495  23.057  0.00  0.00     0.004 A 
ENDBRANCH   1  12
BRANCH  10  19
ATOM     19  O   UNL d   1     -45.304  12.723  22.199  0.00  0.00    -0.328 OA
ATOM     20  C   UNL d   1     -44.675  13.101  21.822  0.00  0.00     0.181 C 
ENDBRANCH  10  19
TORSDOF 2
ENDMDL
MODEL 7
REMARK VINA RESULT:      -6.4      9.001     10.461
REMARK  2 active torsions:
REMARK  status: ('A' for Active; 'I' for Inactive)
REMARK    1  A    between atoms: C_7  and  C_1 
REMARK    2  A    between atoms: O_16  and  C_12 
ROOT
ATOM      1  C   UNL d   1     -39.305  14.394  17.558  0.00  0.00     0.105 A 
ATOM      2  C   UNL d   1     -40.241  14.868  18.858  0.00  0.00     0.064 A 
ATOM      3  O   UNL d   1     -38.996  14.925  18.119  0.00  0.00    -0.307 OA
ATOM      4  C   UNL d   1     -40.546  14.339  18.297  0.00  0.00     0.200 A 
ATOM      5  C   UNL d   1     -39.461  15.160  18.764  0.00  0.00     0.103 A 
ATOM      6  C   UNL d   1     -40.084  14.098  17.646  0.00  0.00     0.067 A 
ATOM      7  C   UNL d   1     -40.697  15.105  19.499  0.00  0.00     0.029 A 
ATOM      8  O   UNL d   1     -41.313  14.047  18.384  0.00  0.00    -0.286 OA
ATOM      9  C   UNL d   1     -39.156  15.690  19.325  0.00  0.00     0.027 A 
ATOM     10  C   UNL d   1     -40.391  15.630  20.053  0.00  0.00     0.094 A 
ATOM     11  C   UNL d   1     -39.624  15.922  19.967  0.00  0.00     0.026 A 
ENDROOT
BRANCH   1  12
ATOM     12  C   UNL d   1     -38.853  14.156  16.918  0.00  0.00     0.050 A 
ATOM     13  C   UNL d   1     -38.436  13.450  16.952  0.00  0.00     0.142 A 
ATOM     14  F   UNL d   1     -38.480  12.982  17.641  0.00  0.00    -0.204 F 
ATOM     15  C   UNL d   1     -37.979  13.205  16.312  0.00  0.00     0.030 A 
ATOM     16  C   UNL d   1     -37.940  13.670  15.635  0.00  0.00     0.002 A 
ATOM     17  C   UNL d   1     -38.357  14.381  15.597  0.00  0.00     0.000 A 
ATOM     18  C   UNL d   1     -38.814  14.626  16.236  0.00  0.00     0.004 A 
ENDBRANCH   1  12
BRANCH  10  19
ATOM     19  O   UNL d   1     -40.852  15.865  20.694  0.00  0.00    -0.328 OA
ATOM     20  C   UNL d   1     -40.517  15.912  21.447  0.00  0.00     0.181 C 
ENDBRANCH  10  19
TORSDOF 2
ENDMDL
MODEL 8
REMARK VINA RESULT:      -6.2      8.215      9.239
REMARK  2 active torsions:
REMARK  status: ('A' for Active; 'I' for Inactive)
REMARK    1  A    between atoms: C_7  and  C_1 
REMARK    2  A    between atoms: O_16  and  C_12 
ROOT
ATOM      1  C   UNL d   1     -40.192  15.415  19.313  0.00  0.00     0.105 A 
ATOM      2  C   UNL d   1     -40.005  15.684  20.951  0.00  0.00     0.064 A 
ATOM      3  O   UNL d   1     -39.433  15.389  19.653  0.00  0.00    -0.307 OA
ATOM      4  C   UNL d   1     -40.760  15.710  20.609  0.00  0.00     0.200 A 
ATOM      5  C   UNL d   1     -39.341  15.522  20.466  0.00  0.00     0.103 A 
ATOM      6  C   UNL d   1     -40.861  15.577  19.792  0.00  0.00     0.067 A 
ATOM      7  C   UNL d   1     -39.908  15.816  21.756  0.00  0.00     0.029 A 
ATOM      8  O   UNL d   1     -41.418  15.869  21.080  0.00  0.00    -0.286 OA
ATOM      9  C   UNL d   1     -38.585  15.497  20.809  0.00  0.00     0.027 A 
ATOM     10  C   UNL d   1     -39.158  15.790  22.092  0.00  0.00     0.094 A 
ATOM     11  C   UNL d   1     -38.499  15.631  21.620  0.00  0.00     0.026 A 
ENDROOT
BRANCH   1  12
ATOM     12  C   UNL d   1     -40.292  15.285  18.510  0.00  0.00     0.050 A 
ATOM     13  C   UNL d   1     -40.393  14.519  18.231  0.00  0.00     0.142 A 
ATOM     14  F   UNL d   1     -40.392  13.884  18.771  0.00  0.00    -0.204 F 
ATOM     15  C   UNL d   1     -40.494  14.381  17.426  0.00  0.00     0.030 A 
ATOM     16  C   UNL d   1     -40.494  15.012  16.898  0.00  0.00     0.002 A 
ATOM     17  C   UNL d   1     -40.393  15.782  17.175  0.00  0.00     0.000 A 
ATOM     18  C   UNL d   1     -40.292  15.922  17.980  0.00  0.00     0.004 A 
ENDBRANCH   1  12
BRANCH  10  19
ATOM     19  O   UNL d   1     -39.064  15.922  22.899  0.00  0.00    -0.328 OA
ATOM     20  C   UNL d   1     -38.548  15.450  23.338  0.00  0.00     0.181 C 
ENDBRANCH  10  19
TORSDOF 2
ENDMDL
MODEL 9
REMARK VINA RESULT:      -6.2      1.336      3.972
REMARK  2 active torsions:
REMARK  status: ('A' for Active; 'I' for Inactive)
REMARK    1  A    between atoms: C_7  and  C_1 
REMARK    2  A    between atoms: O_16  and  C_12 
ROOT
ATOM      1  C   UNL d   1     -47.635  12.781  22.886  0.00  0.00     0.105 A 
ATOM      2  C   UNL d   1     -48.943  13.737  22.479  0.00  0.00     0.064 A 
ATOM      3  O   UNL d   1     -48.317  12.432  22.560  0.00  0.00    -0.307 OA
ATOM      4  C   UNL d   1     -48.261  14.080  22.804  0.00  0.00     0.200 A 
ATOM      5  C   UNL d   1     -48.966  12.908  22.358  0.00  0.00     0.103 A 
ATOM      6  C   UNL d   1     -47.605  13.609  23.009  0.00  0.00     0.067 A 
ATOM      7  C   UNL d   1     -49.589  14.203  22.278  0.00  0.00     0.029 A 
ATOM      8  O   UNL d   1     -48.232  14.896  22.926  0.00  0.00    -0.286 OA
ATOM      9  C   UNL d   1     -49.648  12.565  22.033  0.00  0.00     0.027 A 
ATOM     10  C   UNL d   1     -50.263  13.859  21.956  0.00  0.00     0.094 A 
ATOM     11  C   UNL d   1     -50.293  13.043  21.834  0.00  0.00     0.026 A 
ENDROOT
BRANCH   1  12
ATOM     12  C   UNL d   1     -46.989  12.318  23.088  0.00  0.00     0.050 A 
ATOM     13  C   UNL d   1     -47.103  11.611  23.488  0.00  0.00     0.142 A 
ATOM     14  F   UNL d   1     -47.878  11.373  23.685  0.00  0.00    -0.204 F 
ATOM     15  C   UNL d   1     -46.459  11.141  23.694  0.00  0.00     0.030 A 
ATOM     16  C   UNL d   1     -45.697  11.382  23.498  0.00  0.00     0.002 A 
ATOM     17  C   UNL d   1     -45.578  12.092  23.095  0.00  0.00     0.000 A 
ATOM     18  C   UNL d   1     -46.222  12.562  22.889  0.00  0.00     0.004 A 
ENDBRANCH   1  12
BRANCH  10  19
ATOM     19  O   UNL d   1     -50.908  14.329  21.755  0.00  0.00    -0.328 OA
ATOM     20  C   UNL d   1     -51.034  14.543  20.968  0.00  0.00     0.181 C 
ENDBRANCH  10  19
TORSDOF 2
ENDMDL
