MODEL 1
REMARK VINA RESULT:      46.5      0.000      0.000
REMARK  6 active torsions:
REMARK  status: ('A' for Active; 'I' for Inactive)
REMARK    1  A    between atoms: C_2  and  C_4 
REMARK    2  A    between atoms: C_3  and  C_2 
REMARK       I    between atoms: N_8  and  C_3 
REMARK    3  A    between atoms: C_5  and  C_9 
REMARK    4  A    between atoms: O_16  and  C_5 
REMARK    5  A    between atoms: C_15  and  N_8 
REMARK    6  A    between atoms: C_21  and  O_16 
ROOT
ATOM      1  C   UNL d   1     -51.509  24.833  33.430  0.00  0.00     0.064 A 
ATOM      2  C   UNL d   1     -50.682  24.776  33.457  0.00  0.00     0.007 A 
ATOM      3  C   UNL d   1     -51.868  25.578  33.362  0.00  0.00     0.007 A 
ATOM      4  C   UNL d   1     -50.590  26.199  33.348  0.00  0.00     0.085 A 
ATOM      5  C   UNL d   1     -51.408  26.255  33.321  0.00  0.00     0.019 A 
ATOM      6  C   UNL d   1     -50.223  25.457  33.416  0.00  0.00     0.019 A 
ENDROOT
BRANCH   4   7
ATOM      7  N   UNL d   1     -50.130  26.880  33.306  0.00  0.00    -0.208 NA
ATOM      8  C   UNL d   1     -50.225  27.480  33.866  0.00  0.00     0.281 C 
ATOM      9  O   UNL d   1     -50.784  27.388  34.466  0.00  0.00    -0.265 OA
BRANCH   8  10
ATOM     10  C   UNL d   1     -49.766  28.158  33.824  0.00  0.00     0.086 C 
BRANCH  10  11
ATOM     11  C   UNL d   1     -49.178  28.301  34.392  0.00  0.00     0.144 A 
ATOM     12  C   UNL d   1     -48.962  29.077  34.570  0.00  0.00     0.297 A 
ATOM     13  N   UNL d   1     -48.380  29.231  35.131  0.00  0.00    -0.204 NA
ATOM     14  O   UNL d   1     -49.334  29.706  34.178  0.00  0.00    -0.264 OA
ATOM     15  C   UNL d   1     -48.018  28.598  35.514  0.00  0.00     0.123 A 
ATOM     16  C   UNL d   1     -48.235  27.822  35.336  0.00  0.00     0.120 A 
ATOM     17  N   UNL d   1     -48.814  27.675  34.776  0.00  0.00    -0.237 NA
ENDBRANCH  10  11
ENDBRANCH   8  10
ENDBRANCH   4   7
BRANCH   1  18
ATOM     18  C   UNL d   1     -51.969  24.146  33.472  0.00  0.00     0.300 C 
ATOM     19  O   UNL d   1     -51.621  23.427  33.677  0.00  0.00    -0.259 OA
BRANCH  18  20
ATOM     20  O   UNL d   1     -52.775  24.178  33.309  0.00  0.00    -0.271 OA
BRANCH  20  21
ATOM     21  C   UNL d   1     -53.219  23.488  33.306  0.00  0.00     0.126 C 
ATOM     22  C   UNL d   1     -53.699  23.305  33.944  0.00  0.00     0.029 C 
ENDBRANCH  20  21
ENDBRANCH  18  20
ENDBRANCH   1  18
TORSDOF 6
ENDMDL
MODEL 2
REMARK VINA RESULT:      48.4      0.869      1.308
REMARK  6 active torsions:
REMARK  status: ('A' for Active; 'I' for Inactive)
REMARK    1  A    between atoms: C_2  and  C_4 
REMARK    2  A    between atoms: C_3  and  C_2 
REMARK       I    between atoms: N_8  and  C_3 
REMARK    3  A    between atoms: C_5  and  C_9 
REMARK    4  A    between atoms: O_16  and  C_5 
REMARK    5  A    between atoms: C_15  and  N_8 
REMARK    6  A    between atoms: C_21  and  O_16 
ROOT
ATOM      1  C   UNL d   1     -50.738  25.662  33.467  0.00  0.00     0.064 A 
ATOM      2  C   UNL d   1     -51.155  26.362  33.312  0.00  0.00     0.007 A 
ATOM      3  C   UNL d   1     -49.922  25.694  33.617  0.00  0.00     0.007 A 
ATOM      4  C   UNL d   1     -49.942  27.106  33.459  0.00  0.00     0.085 A 
ATOM      5  C   UNL d   1     -49.530  26.414  33.612  0.00  0.00     0.019 A 
ATOM      6  C   UNL d   1     -50.758  27.083  33.308  0.00  0.00     0.019 A 
ENDROOT
BRANCH   4   7
ATOM      7  N   UNL d   1     -49.547  27.828  33.455  0.00  0.00    -0.208 NA
ATOM      8  C   UNL d   1     -49.371  28.210  34.167  0.00  0.00     0.281 C 
ATOM      9  O   UNL d   1     -49.597  27.859  34.879  0.00  0.00    -0.265 OA
BRANCH   8  10
ATOM     10  C   UNL d   1     -48.977  28.928  34.161  0.00  0.00     0.086 C 
BRANCH  10  11
ATOM     11  C   UNL d   1     -48.425  29.106  34.754  0.00  0.00     0.144 A 
ATOM     12  C   UNL d   1     -48.354  29.882  35.026  0.00  0.00     0.297 A 
ATOM     13  N   UNL d   1     -47.809  30.070  35.614  0.00  0.00    -0.204 NA
ATOM     14  O   UNL d   1     -48.835  30.475  34.704  0.00  0.00    -0.264 OA
ATOM     15  C   UNL d   1     -47.337  29.473  35.926  0.00  0.00     0.123 A 
ATOM     16  C   UNL d   1     -47.408  28.697  35.654  0.00  0.00     0.120 A 
ATOM     17  N   UNL d   1     -47.952  28.516  35.069  0.00  0.00    -0.237 NA
ENDBRANCH  10  11
ENDBRANCH   8  10
ENDBRANCH   4   7
BRANCH   1  18
ATOM     18  C   UNL d   1     -51.138  24.938  33.470  0.00  0.00     0.300 C 
ATOM     19  O   UNL d   1     -50.730  24.240  33.308  0.00  0.00    -0.259 OA
BRANCH  18  20
ATOM     20  O   UNL d   1     -51.944  24.910  33.634  0.00  0.00    -0.271 OA
BRANCH  20  21
ATOM     21  C   UNL d   1     -52.405  24.307  33.324  0.00  0.00     0.126 C 
ATOM     22  C   UNL d   1     -53.146  24.155  33.635  0.00  0.00     0.029 C 
ENDBRANCH  20  21
ENDBRANCH  18  20
ENDBRANCH   1  18
TORSDOF 6
ENDMDL
