MODEL 1
REMARK VINA RESULT:      88.8      0.000      0.000
REMARK  8 active torsions:
REMARK  status: ('A' for Active; 'I' for Inactive)
REMARK    1  A    between atoms: S_7  and  C_3 
REMARK    2  A    between atoms: C_8  and  C_4 
REMARK    3  A    between atoms: C_14  and  S_7 
REMARK    4  A    between atoms: C_17  and  C_8 
REMARK    5  A    between atoms: C_9  and  C_14 
REMARK       I    between atoms: N_12  and  C_9 
REMARK    6  A    between atoms: C_15  and  N_12 
REMARK    7  A    between atoms: O_22  and  C_16 
REMARK    8  A    between atoms: C_23  and  O_22 
ROOT
ATOM      1  N   UNL d   1      61.252  48.266  50.270  0.00  0.00    -0.149 N 
ATOM      2  C   UNL d   1      60.856  48.966  50.353  0.00  0.00     0.303 A 
ATOM      3  C   UNL d   1      60.954  47.572  50.599  0.00  0.00     0.220 A 
ATOM      4  C   UNL d   1      60.152  48.974  50.772  0.00  0.00     0.161 A 
ATOM      5  N   UNL d   1      59.841  48.300  51.104  0.00  0.00    -0.141 NA
ATOM      6  N   UNL d   1      60.237  47.601  51.020  0.00  0.00    -0.121 NA
ATOM      7  O   UNL d   1      61.160  49.665  50.020  0.00  0.00    -0.263 OA
ATOM      8  N   UNL d   1      61.977  48.223  49.847  0.00  0.00    -0.037 N 
ENDROOT
BRANCH   3   9
ATOM      9  S   UNL d   1      61.349  46.861  50.518  0.00  0.00    -0.041 SA
BRANCH   9  10
ATOM     10  C   UNL d   1      60.981  46.154  50.754  0.00  0.00     0.101 C 
BRANCH  10  11
ATOM     11  C   UNL d   1      61.396  45.452  50.705  0.00  0.00     0.286 C 
ATOM     12  N   UNL d   1      61.185  44.820  51.191  0.00  0.00    -0.208 NA
ATOM     13  O   UNL d   1      62.027  45.337  50.186  0.00  0.00    -0.265 OA
BRANCH  12  14
ATOM     14  C   UNL d   1      61.590  44.113  51.154  0.00  0.00     0.085 A 
ATOM     15  C   UNL d   1      61.386  43.467  51.638  0.00  0.00     0.021 A 
ATOM     16  C   UNL d   1      61.805  42.757  51.589  0.00  0.00     0.026 A 
ATOM     17  C   UNL d   1      62.427  42.664  51.072  0.00  0.00     0.100 A 
ATOM     18  C   UNL d   1      62.631  43.311  50.588  0.00  0.00     0.026 A 
ATOM     19  C   UNL d   1      62.233  44.005  50.624  0.00  0.00     0.021 A 
BRANCH  17  20
ATOM     20  O   UNL d   1      62.824  41.971  51.035  0.00  0.00    -0.305 OA
BRANCH  20  21
ATOM     21  C   UNL d   1      63.091  41.657  50.318  0.00  0.00     0.123 C 
ATOM     22  C   UNL d   1      63.047  40.850  50.152  0.00  0.00     0.029 C 
ENDBRANCH  20  21
ENDBRANCH  17  20
ENDBRANCH  12  14
ENDBRANCH  10  11
ENDBRANCH   9  10
ENDBRANCH   3   9
BRANCH   4  23
ATOM     23  C   UNL d   1      59.739  49.702  50.859  0.00  0.00     0.026 C 
BRANCH  23  24
ATOM     24  C   UNL d   1      58.926  49.703  50.832  0.00  0.00     0.002 A 
ATOM     25  C   UNL d   1      58.470  49.701  51.513  0.00  0.00     0.000 A 
ATOM     26  C   UNL d   1      57.665  49.701  51.483  0.00  0.00     0.000 A 
ATOM     27  C   UNL d   1      57.280  49.704  50.735  0.00  0.00     0.000 A 
ATOM     28  C   UNL d   1      57.728  49.706  50.039  0.00  0.00     0.000 A 
ATOM     29  C   UNL d   1      58.541  49.705  50.085  0.00  0.00     0.000 A 
ENDBRANCH  23  24
ENDBRANCH   4  23
TORSDOF 8
ENDMDL
