MODEL 1
REMARK VINA RESULT:      49.8      0.000      0.000
REMARK  3 active torsions:
REMARK  status: ('A' for Active; 'I' for Inactive)
REMARK    1  A    between atoms: C_5  and  C_4 
REMARK    2  A    between atoms: C_6  and  C_5 
REMARK       I    between atoms: N_9  and  C_6 
REMARK    3  A    between atoms: C_12  and  N_9 
ROOT
ATOM      1  N   UNL d   1      57.836  49.691  51.256  0.00  0.00    -0.205 NA
ATOM      2  C   UNL d   1      58.662  49.696  51.267  0.00  0.00     0.297 A 
ATOM      3  N   UNL d   1      58.714  49.697  49.828  0.00  0.00    -0.239 NA
ATOM      4  C   UNL d   1      59.093  49.699  50.565  0.00  0.00     0.144 A 
ATOM      5  C   UNL d   1      57.450  49.689  50.522  0.00  0.00     0.102 A 
ATOM      6  C   UNL d   1      57.881  49.692  49.820  0.00  0.00     0.099 A 
ATOM      7  O   UNL d   1      59.044  49.698  51.998  0.00  0.00    -0.264 OA
ATOM      8  C   UNL d   1      56.615  49.684  50.505  0.00  0.00     0.021 A 
ATOM      9  C   UNL d   1      57.492  49.690  49.077  0.00  0.00     0.021 A 
ATOM     10  C   UNL d   1      56.232  49.682  49.773  0.00  0.00     0.002 A 
ATOM     11  C   UNL d   1      56.663  49.685  49.071  0.00  0.00     0.002 A 
ENDROOT
BRANCH   4  12
ATOM     12  C   UNL d   1      59.922  49.704  50.570  0.00  0.00     0.086 C 
BRANCH  12  13
ATOM     13  C   UNL d   1      60.333  49.030  50.324  0.00  0.00     0.281 C 
ATOM     14  N   UNL d   1      60.567  48.497  50.876  0.00  0.00    -0.208 NA
ATOM     15  O   UNL d   1      60.500  48.905  49.537  0.00  0.00    -0.265 OA
BRANCH  14  16
ATOM     16  C   UNL d   1      60.986  47.806  50.646  0.00  0.00     0.085 A 
ATOM     17  C   UNL d   1      61.647  47.859  50.192  0.00  0.00     0.019 A 
ATOM     18  C   UNL d   1      62.058  47.173  49.967  0.00  0.00     0.002 A 
ATOM     19  C   UNL d   1      61.774  46.452  50.217  0.00  0.00     0.000 A 
ATOM     20  C   UNL d   1      61.114  46.392  50.670  0.00  0.00     0.002 A 
ATOM     21  C   UNL d   1      60.720  47.069  50.884  0.00  0.00     0.019 A 
ENDBRANCH  14  16
ENDBRANCH  12  13
ENDBRANCH   4  12
TORSDOF 3
ENDMDL
