MODEL 1
REMARK VINA RESULT:      -3.2      0.000      0.000
REMARK  3 active torsions:
REMARK  status: ('A' for Active; 'I' for Inactive)
REMARK    1  A    between atoms: N_2  and  S_1 
REMARK    2  A    between atoms: C_3  and  S_1 
REMARK    3  A    between atoms: C_11  and  C_6 
ROOT
ATOM      1  C   UNL d   1      32.817  20.973 -21.675  0.00  0.00     0.104 A 
ATOM      2  C   UNL d   1      32.605  22.318 -20.726  0.00  0.00     0.000 A 
ATOM      3  C   UNL d   1      33.241  21.662 -21.831  0.00  0.00     0.013 A 
ATOM      4  C   UNL d   1      32.287  20.956 -21.044  0.00  0.00     0.013 A 
ATOM      5  C   UNL d   1      32.181  21.627 -20.571  0.00  0.00     0.001 A 
ATOM      6  C   UNL d   1      33.135  22.333 -21.359  0.00  0.00     0.001 A 
ENDROOT
BRANCH   1   7
ATOM      7  S   UNL d   1      32.923  20.306 -22.145  0.00  0.00     0.271 S 
ATOM      8  O   UNL d   1      32.932  19.833 -21.473  0.00  0.00    -0.200 OA
ATOM      9  O   UNL d   1      32.913  20.785 -22.827  0.00  0.00    -0.200 OA
BRANCH   7  10
ATOM     10  N   UNL d   1      33.028  19.637 -22.617  0.00  0.00    -0.229 N 
ATOM     11  C   UNL d   1      33.130  18.912 -22.273  0.00  0.00     0.092 A 
ATOM     12  C   UNL d   1      33.238  18.229 -22.754  0.00  0.00     0.020 A 
ATOM     13  C   UNL d   1      33.241  18.294 -23.564  0.00  0.00     0.003 A 
ATOM     14  C   UNL d   1      33.136  19.040 -23.910  0.00  0.00     0.020 A 
ATOM     15  C   UNL d   1      33.033  19.691 -23.450  0.00  0.00     0.092 A 
ENDBRANCH   7  10
ENDBRANCH   1   7
BRANCH   2  16
ATOM     16  C   UNL d   1      32.499  22.983 -20.257  0.00  0.00     0.000 C 
ATOM     17  C   UNL d   1      32.739  22.972 -19.472  0.00  0.00     0.000 C 
ATOM     18  C   UNL d   1      32.154  23.664 -20.571  0.00  0.00     0.000 C 
ENDBRANCH   2  16
TORSDOF 3
ENDMDL
MODEL 2
REMARK VINA RESULT:      -2.8      4.096      5.631
REMARK  3 active torsions:
REMARK  status: ('A' for Active; 'I' for Inactive)
REMARK    1  A    between atoms: N_2  and  S_1 
REMARK    2  A    between atoms: C_3  and  S_1 
REMARK    3  A    between atoms: C_11  and  C_6 
ROOT
ATOM      1  C   UNL d   1      30.742  17.116 -24.213  0.00  0.00     0.104 A 
ATOM      2  C   UNL d   1      32.176  17.952 -24.179  0.00  0.00     0.000 A 
ATOM      3  C   UNL d   1      30.813  17.834 -24.611  0.00  0.00     0.013 A 
ATOM      4  C   UNL d   1      31.387  16.816 -23.799  0.00  0.00     0.013 A 
ATOM      5  C   UNL d   1      32.102  17.232 -23.782  0.00  0.00     0.001 A 
ATOM      6  C   UNL d   1      31.527  18.251 -24.594  0.00  0.00     0.001 A 
ENDROOT
BRANCH   1   7
ATOM      7  S   UNL d   1      30.031  16.702 -24.230  0.00  0.00     0.271 S 
ATOM      8  O   UNL d   1      29.625  17.403 -24.369  0.00  0.00    -0.200 OA
ATOM      9  O   UNL d   1      30.441  15.991 -24.089  0.00  0.00    -0.200 OA
BRANCH   7  10
ATOM     10  N   UNL d   1      29.318  16.287 -24.247  0.00  0.00    -0.229 N 
ATOM     11  C   UNL d   1      29.096  15.891 -24.917  0.00  0.00     0.092 A 
ATOM     12  C   UNL d   1      28.368  15.467 -24.935  0.00  0.00     0.020 A 
ATOM     13  C   UNL d   1      27.887  15.453 -24.281  0.00  0.00     0.003 A 
ATOM     14  C   UNL d   1      28.120  15.859 -23.598  0.00  0.00     0.020 A 
ATOM     15  C   UNL d   1      28.814  16.264 -23.581  0.00  0.00     0.092 A 
ENDBRANCH   7  10
ENDBRANCH   1   7
BRANCH   2  16
ATOM     16  C   UNL d   1      32.884  18.364 -24.163  0.00  0.00     0.000 C 
ATOM     17  C   UNL d   1      33.241  18.593 -24.866  0.00  0.00     0.000 C 
ATOM     18  C   UNL d   1      33.241  18.551 -23.443  0.00  0.00     0.000 C 
ENDBRANCH   2  16
TORSDOF 3
ENDMDL
MODEL 3
REMARK VINA RESULT:      -2.7      0.776      4.053
REMARK  3 active torsions:
REMARK  status: ('A' for Active; 'I' for Inactive)
REMARK    1  A    between atoms: N_2  and  S_1 
REMARK    2  A    between atoms: C_3  and  S_1 
REMARK    3  A    between atoms: C_11  and  C_6 
ROOT
ATOM      1  C   UNL d   1      32.919  19.733 -22.440  0.00  0.00     0.104 A 
ATOM      2  C   UNL d   1      32.989  18.235 -23.151  0.00  0.00     0.000 A 
ATOM      3  C   UNL d   1      32.666  19.630 -23.218  0.00  0.00     0.013 A 
ATOM      4  C   UNL d   1      33.206  19.086 -22.017  0.00  0.00     0.013 A 
ATOM      5  C   UNL d   1      33.241  18.339 -22.372  0.00  0.00     0.001 A 
ATOM      6  C   UNL d   1      32.701  18.884 -23.572  0.00  0.00     0.001 A 
ENDROOT
BRANCH   1   7
ATOM      7  S   UNL d   1      32.884  20.475 -22.087  0.00  0.00     0.271 S 
ATOM      8  O   UNL d   1      32.531  20.143 -21.423  0.00  0.00    -0.200 OA
ATOM      9  O   UNL d   1      33.241  20.812 -22.760  0.00  0.00    -0.200 OA
BRANCH   7  10
ATOM     10  N   UNL d   1      32.849  21.220 -21.733  0.00  0.00    -0.229 N 
ATOM     11  C   UNL d   1      32.436  21.321 -21.045  0.00  0.00     0.092 A 
ATOM     12  C   UNL d   1      32.400  22.082 -20.684  0.00  0.00     0.020 A 
ATOM     13  C   UNL d   1      32.778  22.715 -21.023  0.00  0.00     0.003 A 
ATOM     14  C   UNL d   1      33.199  22.605 -21.728  0.00  0.00     0.020 A 
ATOM     15  C   UNL d   1      33.233  21.879 -22.073  0.00  0.00     0.092 A 
ENDBRANCH   7  10
ENDBRANCH   1   7
BRANCH   2  16
ATOM     16  C   UNL d   1      33.024  17.494 -23.503  0.00  0.00     0.000 C 
ATOM     17  C   UNL d   1      33.238  16.839 -23.056  0.00  0.00     0.000 C 
ATOM     18  C   UNL d   1      32.845  17.404 -24.303  0.00  0.00     0.000 C 
ENDBRANCH   2  16
TORSDOF 3
ENDMDL
MODEL 4
REMARK VINA RESULT:      -2.7      2.687      4.721
REMARK  3 active torsions:
REMARK  status: ('A' for Active; 'I' for Inactive)
REMARK    1  A    between atoms: N_2  and  S_1 
REMARK    2  A    between atoms: C_3  and  S_1 
REMARK    3  A    between atoms: C_11  and  C_6 
ROOT
ATOM      1  C   UNL d   1      32.911  22.771 -19.790  0.00  0.00     0.104 A 
ATOM      2  C   UNL d   1      32.916  22.589 -21.440  0.00  0.00     0.000 A 
ATOM      3  C   UNL d   1      33.090  23.411 -20.278  0.00  0.00     0.013 A 
ATOM      4  C   UNL d   1      32.734  22.040 -20.128  0.00  0.00     0.013 A 
ATOM      5  C   UNL d   1      32.737  21.950 -20.950  0.00  0.00     0.001 A 
ATOM      6  C   UNL d   1      33.093  23.320 -21.100  0.00  0.00     0.001 A 
ENDROOT
BRANCH   1   7
ATOM      7  S   UNL d   1      32.908  22.861 -18.972  0.00  0.00     0.271 S 
ATOM      8  O   UNL d   1      32.958  22.046 -18.882  0.00  0.00    -0.200 OA
ATOM      9  O   UNL d   1      32.858  23.688 -19.063  0.00  0.00    -0.200 OA
BRANCH   7  10
ATOM     10  N   UNL d   1      32.906  22.951 -18.152  0.00  0.00    -0.229 N 
ATOM     11  C   UNL d   1      32.574  23.610 -17.819  0.00  0.00     0.092 A 
ATOM     12  C   UNL d   1      32.571  23.702 -16.981  0.00  0.00     0.020 A 
ATOM     13  C   UNL d   1      32.900  23.133 -16.505  0.00  0.00     0.003 A 
ATOM     14  C   UNL d   1      33.238  22.461 -16.853  0.00  0.00     0.020 A 
ATOM     15  C   UNL d   1      33.241  22.373 -17.652  0.00  0.00     0.092 A 
ENDBRANCH   7  10
ENDBRANCH   1   7
BRANCH   2  16
ATOM     16  C   UNL d   1      32.919  22.499 -22.255  0.00  0.00     0.000 C 
ATOM     17  C   UNL d   1      33.052  21.759 -22.585  0.00  0.00     0.000 C 
ATOM     18  C   UNL d   1      32.788  23.149 -22.747  0.00  0.00     0.000 C 
ENDBRANCH   2  16
TORSDOF 3
ENDMDL
MODEL 5
REMARK VINA RESULT:      -2.7      2.356      3.352
REMARK  3 active torsions:
REMARK  status: ('A' for Active; 'I' for Inactive)
REMARK    1  A    between atoms: N_2  and  S_1 
REMARK    2  A    between atoms: C_3  and  S_1 
REMARK    3  A    between atoms: C_11  and  C_6 
ROOT
ATOM      1  C   UNL d   1      32.941  22.954 -19.792  0.00  0.00     0.104 A 
ATOM      2  C   UNL d   1      32.838  23.080 -18.140  0.00  0.00     0.000 A 
ATOM      3  C   UNL d   1      33.240  22.356 -19.310  0.00  0.00     0.013 A 
ATOM      4  C   UNL d   1      32.590  23.615 -19.447  0.00  0.00     0.013 A 
ATOM      5  C   UNL d   1      32.539  23.678 -18.624  0.00  0.00     0.001 A 
ATOM      6  C   UNL d   1      33.189  22.418 -18.487  0.00  0.00     0.001 A 
ENDROOT
BRANCH   1   7
ATOM      7  S   UNL d   1      32.992  22.892 -20.611  0.00  0.00     0.271 S 
ATOM      8  O   UNL d   1      32.783  23.683 -20.684  0.00  0.00    -0.200 OA
ATOM      9  O   UNL d   1      33.204  22.089 -20.536  0.00  0.00    -0.200 OA
BRANCH   7  10
ATOM     10  N   UNL d   1      33.044  22.829 -21.432  0.00  0.00    -0.229 N 
ATOM     11  C   UNL d   1      32.989  22.104 -21.786  0.00  0.00     0.092 A 
ATOM     12  C   UNL d   1      33.042  22.040 -22.625  0.00  0.00     0.020 A 
ATOM     13  C   UNL d   1      33.147  22.703 -23.081  0.00  0.00     0.003 A 
ATOM     14  C   UNL d   1      33.201  23.443 -22.712  0.00  0.00     0.020 A 
ATOM     15  C   UNL d   1      33.151  23.504 -21.912  0.00  0.00     0.092 A 
ENDBRANCH   7  10
ENDBRANCH   1   7
BRANCH   2  16
ATOM     16  C   UNL d   1      32.787  23.142 -17.324  0.00  0.00     0.000 C 
ATOM     17  C   UNL d   1      33.234  22.645 -16.847  0.00  0.00     0.000 C 
ATOM     18  C   UNL d   1      32.289  23.702 -16.979  0.00  0.00     0.000 C 
ENDBRANCH   2  16
TORSDOF 3
ENDMDL
MODEL 6
REMARK VINA RESULT:      -2.5      3.815      5.815
REMARK  3 active torsions:
REMARK  status: ('A' for Active; 'I' for Inactive)
REMARK    1  A    between atoms: N_2  and  S_1 
REMARK    2  A    between atoms: C_3  and  S_1 
REMARK    3  A    between atoms: C_11  and  C_6 
ROOT
ATOM      1  C   UNL d   1      30.406  17.059 -24.143  0.00  0.00     0.104 A 
ATOM      2  C   UNL d   1      28.981  16.218 -24.000  0.00  0.00     0.000 A 
ATOM      3  C   UNL d   1      29.758  17.256 -24.614  0.00  0.00     0.013 A 
ATOM      4  C   UNL d   1      30.341  16.442 -23.601  0.00  0.00     0.013 A 
ATOM      5  C   UNL d   1      29.631  16.023 -23.529  0.00  0.00     0.001 A 
ATOM      6  C   UNL d   1      29.049  16.837 -24.542  0.00  0.00     0.001 A 
ENDROOT
BRANCH   1   7
ATOM      7  S   UNL d   1      31.112  17.476 -24.214  0.00  0.00     0.271 S 
ATOM      8  O   UNL d   1      30.738  18.026 -24.697  0.00  0.00    -0.200 OA
ATOM      9  O   UNL d   1      31.490  16.918 -23.725  0.00  0.00    -0.200 OA
BRANCH   7  10
ATOM     10  N   UNL d   1      31.819  17.894 -24.285  0.00  0.00    -0.229 N 
ATOM     11  C   UNL d   1      32.101  18.321 -23.659  0.00  0.00     0.092 A 
ATOM     12  C   UNL d   1      32.824  18.748 -23.731  0.00  0.00     0.020 A 
ATOM     13  C   UNL d   1      33.241  18.733 -24.428  0.00  0.00     0.003 A 
ATOM     14  C   UNL d   1      32.947  18.293 -25.065  0.00  0.00     0.020 A 
ATOM     15  C   UNL d   1      32.257  17.886 -24.996  0.00  0.00     0.092 A 
ENDBRANCH   7  10
ENDBRANCH   1   7
BRANCH   2  16
ATOM     16  C   UNL d   1      28.278  15.803 -23.929  0.00  0.00     0.000 C 
ATOM     17  C   UNL d   1      27.915  15.734 -23.196  0.00  0.00     0.000 C 
ATOM     18  C   UNL d   1      27.932  15.453 -24.591  0.00  0.00     0.000 C 
ENDBRANCH   2  16
TORSDOF 3
ENDMDL
