MODEL 1
REMARK VINA RESULT:      41.7      0.000      0.000
REMARK  3 active torsions:
REMARK  status: ('A' for Active; 'I' for Inactive)
REMARK    1  A    between atoms: N_10  and  C_3 
REMARK    2  A    between atoms: C_11  and  C_5 
REMARK    3  A    between atoms: C_15  and  N_10 
ROOT
ATOM      1  N   UNL d   1      13.999  14.015  -2.981  0.00  0.00    -0.184 N 
ATOM      2  C   UNL d   1      14.096  13.405  -2.408  0.00  0.00     0.168 A 
ATOM      3  C   UNL d   1      13.632  13.844  -3.706  0.00  0.00     0.217 A 
ATOM      4  N   UNL d   1      14.633  14.942  -2.101  0.00  0.00    -0.162 NA
ATOM      5  C   UNL d   1      14.455  13.572  -1.700  0.00  0.00     0.055 A 
ATOM      6  N   UNL d   1      13.821  12.645  -2.579  0.00  0.00    -0.227 NA
ATOM      7  C   UNL d   1      13.366  13.089  -3.861  0.00  0.00     0.066 A 
ATOM      8  C   UNL d   1      14.728  14.341  -1.537  0.00  0.00     0.104 A 
ATOM      9  C   UNL d   1      13.459  12.473  -3.293  0.00  0.00     0.087 A 
ATOM     10  C   UNL d   1      12.993  12.758  -4.505  0.00  0.00     0.006 A 
ATOM     11  C   UNL d   1      15.090  14.502  -0.817  0.00  0.00     0.023 C 
ATOM     12  C   UNL d   1      13.141  11.780  -3.602  0.00  0.00     0.019 A 
ATOM     13  C   UNL d   1      12.850  11.962  -4.362  0.00  0.00     0.002 A 
ENDROOT
BRANCH   5  14
ATOM     14  C   UNL d   1      14.549  12.974  -1.139  0.00  0.00     0.004 A 
ATOM     15  C   UNL d   1      15.235  12.516  -1.132  0.00  0.00     0.000 A 
ATOM     16  C   UNL d   1      15.332  11.920  -0.575  0.00  0.00     0.000 A 
ATOM     17  C   UNL d   1      14.738  11.779  -0.015  0.00  0.00     0.000 A 
ATOM     18  C   UNL d   1      14.058  12.228  -0.015  0.00  0.00     0.000 A 
ATOM     19  C   UNL d   1      13.962  12.831  -0.582  0.00  0.00     0.000 A 
ENDBRANCH   5  14
BRANCH   3  20
ATOM     20  N   UNL d   1      13.533  14.457  -4.287  0.00  0.00    -0.383 NA
BRANCH  20  21
ATOM     21  C   UNL d   1      13.435  15.068  -4.860  0.00  0.00     0.134 C 
ATOM     22  C   UNL d   1      13.989  15.136  -5.492  0.00  0.00     0.035 C 
ATOM     23  C   UNL d   1      12.780  15.610  -4.794  0.00  0.00     0.035 C 
ENDBRANCH  20  21
ENDBRANCH   3  20
TORSDOF 3
ENDMDL
