MODEL 1
REMARK VINA RESULT:      -5.6      0.000      0.000
REMARK  3 active torsions:
REMARK  status: ('A' for Active; 'I' for Inactive)
REMARK    1  A    between atoms: N_2  and  S_1 
REMARK    2  A    between atoms: C_4  and  S_1 
REMARK    3  A    between atoms: C_3  and  N_2 
ROOT
ATOM      1  N   UNL d   1      57.135   0.668  31.871  0.00  0.00    -0.157 NA
ENDROOT
BRANCH   1   2
ATOM      2  S   UNL d   1      57.658   0.671  31.233  0.00  0.00     0.285 S 
ATOM      3  O   UNL d   1      58.296   0.666  31.755  0.00  0.00    -0.198 OA
ATOM      4  O   UNL d   1      57.021   0.675  30.699  0.00  0.00    -0.198 OA
BRANCH   2   5
ATOM      5  C   UNL d   1      58.180   0.673  30.594  0.00  0.00     0.105 A 
ATOM      6  C   UNL d   1      57.886   0.675  29.815  0.00  0.00     0.013 A 
ATOM      7  C   UNL d   1      58.409   0.678  29.176  0.00  0.00     0.001 A 
ATOM      8  C   UNL d   1      59.222   0.679  29.305  0.00  0.00     0.000 A 
ATOM      9  C   UNL d   1      59.517   0.678  30.075  0.00  0.00     0.001 A 
ATOM     10  C   UNL d   1      59.741   0.682  28.659  0.00  0.00     0.000 C 
ATOM     11  C   UNL d   1      58.996   0.675  30.718  0.00  0.00     0.013 A 
ENDBRANCH   2   5
ENDBRANCH   1   2
BRANCH   1  12
ATOM     12  C   UNL d   1      56.775  -0.037  32.105  0.00  0.00     0.111 A 
ATOM     13  C   UNL d   1      56.224  -0.037  32.721  0.00  0.00     0.100 A 
ATOM     14  N   UNL d   1      56.031   0.677  33.107  0.00  0.00    -0.242 NA
ATOM     15  C   UNL d   1      55.864  -0.742  32.956  0.00  0.00     0.019 A 
ATOM     16  C   UNL d   1      55.477   0.679  33.727  0.00  0.00     0.099 A 
ATOM     17  C   UNL d   1      55.117  -0.026  33.961  0.00  0.00     0.021 A 
ATOM     18  C   UNL d   1      55.310  -0.734  33.578  0.00  0.00     0.003 A 
ATOM     19  C   UNL d   1      56.055  -1.448  32.576  0.00  0.00     0.002 A 
ATOM     20  C   UNL d   1      56.604  -1.451  31.960  0.00  0.00     0.002 A 
ATOM     21  C   UNL d   1      56.964  -0.747  31.726  0.00  0.00     0.021 A 
ENDBRANCH   1  12
TORSDOF 3
ENDMDL
MODEL 2
REMARK VINA RESULT:      -5.4      1.047      4.301
REMARK  3 active torsions:
REMARK  status: ('A' for Active; 'I' for Inactive)
REMARK    1  A    between atoms: N_2  and  S_1 
REMARK    2  A    between atoms: C_4  and  S_1 
REMARK    3  A    between atoms: C_3  and  N_2 
ROOT
ATOM      1  N   UNL d   1      57.316  -0.231  30.726  0.00  0.00    -0.157 NA
ENDROOT
BRANCH   1   2
ATOM      2  S   UNL d   1      56.878  -0.173  31.423  0.00  0.00     0.285 S 
ATOM      3  O   UNL d   1      56.689   0.608  31.239  0.00  0.00    -0.198 OA
ATOM      4  O   UNL d   1      57.064  -0.960  31.615  0.00  0.00    -0.198 OA
BRANCH   2   5
ATOM      5  C   UNL d   1      56.440  -0.116  32.120  0.00  0.00     0.105 A 
ATOM      6  C   UNL d   1      56.165   0.626  32.380  0.00  0.00     0.013 A 
ATOM      7  C   UNL d   1      55.727   0.682  33.078  0.00  0.00     0.001 A 
ATOM      8  C   UNL d   1      55.560   0.007  33.519  0.00  0.00     0.000 A 
ATOM      9  C   UNL d   1      55.831  -0.729  33.264  0.00  0.00     0.001 A 
ATOM     10  C   UNL d   1      55.120   0.071  34.218  0.00  0.00     0.000 C 
ATOM     11  C   UNL d   1      56.270  -0.790  32.566  0.00  0.00     0.013 A 
ENDBRANCH   2   5
ENDBRANCH   1   2
BRANCH   1  12
ATOM     12  C   UNL d   1      58.084   0.070  30.696  0.00  0.00     0.111 A 
ATOM     13  C   UNL d   1      58.506   0.062  29.986  0.00  0.00     0.100 A 
ATOM     14  N   UNL d   1      58.155  -0.251  29.296  0.00  0.00    -0.242 NA
ATOM     15  C   UNL d   1      59.274   0.363  29.956  0.00  0.00     0.019 A 
ATOM     16  C   UNL d   1      58.577  -0.260  28.581  0.00  0.00     0.099 A 
ATOM     17  C   UNL d   1      59.345   0.040  28.551  0.00  0.00     0.021 A 
ATOM     18  C   UNL d   1      59.693   0.351  29.236  0.00  0.00     0.003 A 
ATOM     19  C   UNL d   1      59.622   0.672  30.636  0.00  0.00     0.002 A 
ATOM     20  C   UNL d   1      59.203   0.682  31.347  0.00  0.00     0.002 A 
ATOM     21  C   UNL d   1      58.436   0.381  31.377  0.00  0.00     0.021 A 
ENDBRANCH   1  12
TORSDOF 3
ENDMDL
MODEL 3
REMARK VINA RESULT:      -4.6      1.031      1.421
REMARK  3 active torsions:
REMARK  status: ('A' for Active; 'I' for Inactive)
REMARK    1  A    between atoms: N_2  and  S_1 
REMARK    2  A    between atoms: C_4  and  S_1 
REMARK    3  A    between atoms: C_3  and  N_2 
ROOT
ATOM      1  N   UNL d   1      56.680  -0.239  31.644  0.00  0.00    -0.157 NA
ENDROOT
BRANCH   1   2
ATOM      2  S   UNL d   1      57.214  -0.181  31.018  0.00  0.00     0.285 S 
ATOM      3  O   UNL d   1      56.956   0.587  30.868  0.00  0.00    -0.198 OA
ATOM      4  O   UNL d   1      57.480  -0.955  31.162  0.00  0.00    -0.198 OA
BRANCH   2   5
ATOM      5  C   UNL d   1      57.748  -0.125  30.391  0.00  0.00     0.105 A 
ATOM      6  C   UNL d   1      58.153  -0.803  30.126  0.00  0.00     0.013 A 
ATOM      7  C   UNL d   1      58.687  -0.747  29.499  0.00  0.00     0.001 A 
ATOM      8  C   UNL d   1      58.823  -0.021  29.134  0.00  0.00     0.000 A 
ATOM      9  C   UNL d   1      58.424   0.652  29.394  0.00  0.00     0.001 A 
ATOM     10  C   UNL d   1      59.361   0.028  28.505  0.00  0.00     0.000 C 
ATOM     11  C   UNL d   1      57.888   0.599  30.021  0.00  0.00     0.013 A 
ENDBRANCH   2   5
ENDBRANCH   1   2
BRANCH   1  12
ATOM     12  C   UNL d   1      56.879   0.067  32.384  0.00  0.00     0.111 A 
ATOM     13  C   UNL d   1      56.313   0.105  32.985  0.00  0.00     0.100 A 
ATOM     14  N   UNL d   1      55.537  -0.168  32.842  0.00  0.00    -0.242 NA
ATOM     15  C   UNL d   1      56.512   0.411  33.725  0.00  0.00     0.019 A 
ATOM     16  C   UNL d   1      54.966  -0.131  33.444  0.00  0.00     0.099 A 
ATOM     17  C   UNL d   1      55.164   0.176  34.184  0.00  0.00     0.021 A 
ATOM     18  C   UNL d   1      55.935   0.446  34.325  0.00  0.00     0.003 A 
ATOM     19  C   UNL d   1      57.278   0.680  33.867  0.00  0.00     0.002 A 
ATOM     20  C   UNL d   1      57.846   0.644  33.269  0.00  0.00     0.002 A 
ATOM     21  C   UNL d   1      57.647   0.338  32.529  0.00  0.00     0.021 A 
ENDBRANCH   1  12
TORSDOF 3
ENDMDL
