MODEL 1
REMARK VINA RESULT:      -1.1      0.000      0.000
REMARK  6 active torsions:
REMARK  status: ('A' for Active; 'I' for Inactive)
REMARK    1  A    between atoms: C_12  and  N_4 
REMARK    2  A    between atoms: C_10  and  N_6 
REMARK    3  A    between atoms: C_11  and  C_10 
REMARK    4  A    between atoms: O_15  and  C_11 
REMARK    5  A    between atoms: C_16  and  O_15 
REMARK    6  A    between atoms: C_17  and  C_16 
ROOT
ATOM      1  C   UNL d   1     -41.818-122.653 -49.766  0.00  0.00     0.172 A 
ATOM      2  C   UNL d   1     -41.468-123.028 -50.412  0.00  0.00     0.113 A 
ATOM      3  N   UNL d   1     -42.172-121.918 -49.858  0.00  0.00    -0.206 NA
ATOM      4  N   UNL d   1     -41.723-123.150 -49.108  0.00  0.00    -0.212 N 
ATOM      5  C   UNL d   1     -41.473-122.670 -51.149  0.00  0.00     0.271 A 
ATOM      6  N   UNL d   1     -41.829-121.929 -51.247  0.00  0.00    -0.250 N 
ATOM      7  N   UNL d   1     -41.320-123.818 -49.357  0.00  0.00    -0.162 NA
ATOM      8  C   UNL d   1     -42.179-121.553 -50.601  0.00  0.00     0.187 A 
ATOM      9  C   UNL d   1     -41.163-123.751 -50.142  0.00  0.00     0.129 A 
ATOM     10  O   UNL d   1     -41.123-123.046 -51.795  0.00  0.00    -0.266 OA
ENDROOT
BRANCH   6  11
ATOM     11  C   UNL d   1     -41.838-121.557 -51.994  0.00  0.00     0.153 C 
BRANCH  11  12
ATOM     12  C   UNL d   1     -42.389-121.793 -52.570  0.00  0.00     0.318 C 
ATOM     13  O   UNL d   1     -43.178-121.867 -52.371  0.00  0.00    -0.257 OA
BRANCH  12  14
ATOM     14  O   UNL d   1     -42.126-121.949 -53.336  0.00  0.00    -0.270 OA
BRANCH  14  15
ATOM     15  C   UNL d   1     -42.587-121.699 -53.980  0.00  0.00     0.126 C 
BRANCH  15  16
ATOM     16  C   UNL d   1     -42.340-121.885 -54.737  0.00  0.00     0.025 A 
ATOM     17  C   UNL d   1     -41.720-122.430 -54.833  0.00  0.00     0.002 A 
ATOM     18  C   UNL d   1     -41.463-122.624 -55.599  0.00  0.00     0.000 A 
ATOM     19  C   UNL d   1     -41.822-122.279 -56.247  0.00  0.00     0.000 A 
ATOM     20  C   UNL d   1     -42.444-121.734 -56.152  0.00  0.00     0.000 A 
ATOM     21  C   UNL d   1     -42.695-121.545 -55.390  0.00  0.00     0.002 A 
ENDBRANCH  15  16
ENDBRANCH  14  15
ENDBRANCH  12  14
ENDBRANCH  11  12
ENDBRANCH   6  11
BRANCH   4  22
ATOM     22  C   UNL d   1     -41.969-123.034 -48.341  0.00  0.00     0.085 A 
ATOM     23  C   UNL d   1     -42.748-123.228 -48.118  0.00  0.00     0.019 A 
ATOM     24  C   UNL d   1     -42.989-123.109 -47.346  0.00  0.00     0.002 A 
ATOM     25  C   UNL d   1     -42.454-122.791 -46.778  0.00  0.00     0.000 A 
ATOM     26  C   UNL d   1     -41.698-122.606 -47.008  0.00  0.00     0.002 A 
ATOM     27  C   UNL d   1     -41.446-122.722 -47.782  0.00  0.00     0.019 A 
ENDBRANCH   4  22
TORSDOF 6
ENDMDL
