MODEL 1
REMARK VINA RESULT:      44.6      0.000      0.000
REMARK  4 active torsions:
REMARK  status: ('A' for Active; 'I' for Inactive)
REMARK    1  A    between atoms: C_7  and  C_1 
REMARK    2  A    between atoms: C_8  and  C_4 
REMARK    3  A    between atoms: O_9  and  C_7 
REMARK    4  A    between atoms: C_16  and  O_9 
ROOT
ATOM      1  C   UNL d   1      14.609  14.165  -1.674  0.00  0.00     0.098 A 
ATOM      2  C   UNL d   1      14.808  14.912  -1.960  0.00  0.00     0.075 A 
ATOM      3  C   UNL d   1      15.126  15.336  -0.632  0.00  0.00     0.354 A 
ATOM      4  C   UNL d   1      14.673  14.023  -0.874  0.00  0.00     0.093 A 
ATOM      5  N   UNL d   1      15.072  15.518  -1.447  0.00  0.00    -0.256 N 
ATOM      6  N   UNL d   1      14.927  14.589  -0.346  0.00  0.00    -0.192 NA
ATOM      7  O   UNL d   1      15.391  15.944  -0.114  0.00  0.00    -0.244 OA
ATOM      8  C   UNL d   1      14.754  15.094  -2.775  0.00  0.00     0.019 C 
ATOM      9  C   UNL d   1      15.272  16.266  -1.734  0.00  0.00     0.104 C 
ENDROOT
BRANCH   1  10
ATOM     10  C   UNL d   1      14.355  13.599  -2.203  0.00  0.00     0.303 C 
ATOM     11  O   UNL d   1      14.817  12.924  -2.311  0.00  0.00    -0.259 OA
BRANCH  10  12
ATOM     12  O   UNL d   1      13.665  13.672  -2.629  0.00  0.00    -0.273 OA
BRANCH  12  13
ATOM     13  C   UNL d   1      13.491  13.200  -3.270  0.00  0.00     0.103 A 
ATOM     14  C   UNL d   1      13.411  12.388  -3.152  0.00  0.00     0.025 A 
ATOM     15  C   UNL d   1      13.234  11.783  -3.713  0.00  0.00     0.002 A 
ATOM     16  C   UNL d   1      13.103  11.886  -4.510  0.00  0.00     0.000 A 
ATOM     17  C   UNL d   1      13.103  12.550  -4.970  0.00  0.00     0.000 A 
ATOM     18  C   UNL d   1      13.248  13.348  -4.722  0.00  0.00     0.002 A 
ATOM     19  C   UNL d   1      13.414  13.607  -3.978  0.00  0.00     0.025 A 
ENDBRANCH  12  13
ENDBRANCH  10  12
ENDBRANCH   1  10
BRANCH   4  20
ATOM     20  C   UNL d   1      14.474  13.276  -0.588  0.00  0.00     0.023 A 
ATOM     21  C   UNL d   1      15.062  12.725  -0.363  0.00  0.00     0.032 A 
ATOM     22  I   UNL d   1      15.861  12.962  -0.440  0.00  0.00    -0.043 I 
ATOM     23  C   UNL d   1      14.863  11.977  -0.077  0.00  0.00     0.006 A 
ATOM     24  C   UNL d   1      14.080  11.780  -0.015  0.00  0.00     0.000 A 
ATOM     25  C   UNL d   1      13.483  12.302  -0.228  0.00  0.00     0.000 A 
ATOM     26  C   UNL d   1      13.683  13.049  -0.515  0.00  0.00     0.002 A 
ENDBRANCH   4  20
TORSDOF 4
ENDMDL
MODEL 2
REMARK VINA RESULT:      45.2      1.517      3.493
REMARK  4 active torsions:
REMARK  status: ('A' for Active; 'I' for Inactive)
REMARK    1  A    between atoms: C_7  and  C_1 
REMARK    2  A    between atoms: C_8  and  C_4 
REMARK    3  A    between atoms: O_9  and  C_7 
REMARK    4  A    between atoms: C_16  and  O_9 
ROOT
ATOM      1  C   UNL d   1      14.102  13.342  -2.585  0.00  0.00     0.098 A 
ATOM      2  C   UNL d   1      13.861  13.597  -3.332  0.00  0.00     0.075 A 
ATOM      3  C   UNL d   1      13.311  12.303  -3.595  0.00  0.00     0.354 A 
ATOM      4  C   UNL d   1      13.941  12.575  -2.363  0.00  0.00     0.093 A 
ATOM      5  N   UNL d   1      13.459  13.084  -3.857  0.00  0.00    -0.256 N 
ATOM      6  N   UNL d   1      13.552  12.049  -2.848  0.00  0.00    -0.192 NA
ATOM      7  O   UNL d   1      12.907  11.786  -4.121  0.00  0.00    -0.244 OA
ATOM      8  C   UNL d   1      14.009  14.377  -3.594  0.00  0.00     0.019 C 
ATOM      9  C   UNL d   1      13.218  13.338  -4.604  0.00  0.00     0.104 C 
ENDROOT
BRANCH   1  10
ATOM     10  C   UNL d   1      14.491  13.869  -2.100  0.00  0.00     0.303 C 
ATOM     11  O   UNL d   1      15.272  13.708  -1.888  0.00  0.00    -0.259 OA
BRANCH  10  12
ATOM     12  O   UNL d   1      14.141  14.547  -1.816  0.00  0.00    -0.273 OA
BRANCH  12  13
ATOM     13  C   UNL d   1      14.563  15.142  -1.453  0.00  0.00     0.103 A 
ATOM     14  C   UNL d   1      14.873  15.004  -0.701  0.00  0.00     0.025 A 
ATOM     15  C   UNL d   1      15.325  15.519  -0.209  0.00  0.00     0.002 A 
ATOM     16  C   UNL d   1      15.553  16.280  -0.385  0.00  0.00     0.000 A 
ATOM     17  C   UNL d   1      15.423  16.739  -1.037  0.00  0.00     0.000 A 
ATOM     18  C   UNL d   1      14.995  16.528  -1.739  0.00  0.00     0.002 A 
ATOM     19  C   UNL d   1      14.629  15.829  -1.897  0.00  0.00     0.025 A 
ENDBRANCH  12  13
ENDBRANCH  10  12
ENDBRANCH   1  10
BRANCH   4  20
ATOM     20  C   UNL d   1      14.182  12.321  -1.616  0.00  0.00     0.023 A 
ATOM     21  C   UNL d   1      13.630  12.040  -1.054  0.00  0.00     0.032 A 
ATOM     22  I   UNL d   1      12.824  12.027  -1.278  0.00  0.00    -0.043 I 
ATOM     23  C   UNL d   1      13.871  11.785  -0.307  0.00  0.00     0.006 A 
ATOM     24  C   UNL d   1      14.659  11.811  -0.121  0.00  0.00     0.000 A 
ATOM     25  C   UNL d   1      15.220  12.082  -0.655  0.00  0.00     0.000 A 
ATOM     26  C   UNL d   1      14.979  12.336  -1.402  0.00  0.00     0.002 A 
ENDBRANCH   4  20
TORSDOF 4
ENDMDL
