MODEL 1
REMARK VINA RESULT:      -6.5      0.000      0.000
REMARK  2 active torsions:
REMARK  status: ('A' for Active; 'I' for Inactive)
REMARK    1  A    between atoms: C_10  and  C_4 
REMARK       I    between atoms: N_12  and  C_10 
REMARK       I    between atoms: C_11  and  N_13 
REMARK    2  A    between atoms: C_14  and  C_11 
ROOT
ATOM      1  C   UNL d   1     -49.449  12.791  22.531  0.00  0.00     0.154 A 
ATOM      2  C   UNL d   1     -49.040  13.279  23.053  0.00  0.00     0.093 A 
ATOM      3  N   UNL d   1     -50.063  13.106  22.064  0.00  0.00    -0.211 NA
ATOM      4  C   UNL d   1     -48.528  12.049  23.148  0.00  0.00     0.122 A 
ATOM      5  N   UNL d   1     -49.134  12.034  22.589  0.00  0.00    -0.285 N 
ATOM      6  C   UNL d   1     -49.237  14.081  23.116  0.00  0.00     0.269 A 
ATOM      7  N   UNL d   1     -49.842  14.395  22.658  0.00  0.00    -0.259 N 
ATOM      8  C   UNL d   1     -50.262  13.906  22.125  0.00  0.00     0.140 A 
ATOM      9  C   UNL d   1     -48.474  12.822  23.432  0.00  0.00     0.030 A 
ATOM     10  C   UNL d   1     -50.041  15.193  22.718  0.00  0.00     0.084 A 
ATOM     11  O   UNL d   1     -48.824  14.568  23.643  0.00  0.00    -0.266 OA
ATOM     12  C   UNL d   1     -50.862  14.213  21.668  0.00  0.00     0.064 A 
ATOM     13  C   UNL d   1     -50.647  15.500  22.256  0.00  0.00     0.018 A 
ATOM     14  C   UNL d   1     -51.062  15.005  21.726  0.00  0.00    -0.008 A 
ATOM     15  C   UNL d   1     -49.384  11.372  22.159  0.00  0.00     0.101 C 
ENDROOT
BRANCH   4  16
ATOM     16  C   UNL d   1     -48.060  11.407  23.382  0.00  0.00     0.281 C 
ATOM     17  N   UNL d   1     -47.242  11.445  23.296  0.00  0.00    -0.268 N 
ATOM     18  C   UNL d   1     -46.774  10.803  23.530  0.00  0.00     0.102 A 
ATOM     19  C   UNL d   1     -46.886  12.117  22.980  0.00  0.00     0.102 A 
ATOM     20  C   UNL d   1     -45.950  10.834  23.446  0.00  0.00     0.102 A 
ATOM     21  N   UNL d   1     -45.601  11.507  23.130  0.00  0.00    -0.267 N 
ATOM     22  C   UNL d   1     -44.780  11.541  23.046  0.00  0.00     0.288 C 
ATOM     23  C   UNL d   1     -46.079  12.143  22.900  0.00  0.00     0.102 A 
ATOM     24  O   UNL d   1     -44.431  12.214  22.729  0.00  0.00    -0.264 OA
ATOM     25  O   UNL d   1     -48.415  10.735  23.698  0.00  0.00    -0.265 OA
BRANCH  22  26
ATOM     26  C   UNL d   1     -44.323  10.893  23.282  0.00  0.00     0.156 A 
ATOM     27  O   UNL d   1     -44.619  10.155  23.504  0.00  0.00    -0.300 OA
ATOM     28  C   UNL d   1     -43.989   9.673  23.698  0.00  0.00     0.123 A 
ATOM     29  C   UNL d   1     -43.289  10.102  23.600  0.00  0.00     0.029 A 
ATOM     30  C   UNL d   1     -43.502  10.857  23.343  0.00  0.00     0.032 A 
ENDBRANCH  22  26
ENDBRANCH   4  16
TORSDOF 2
ENDMDL
MODEL 2
REMARK VINA RESULT:      -5.3      2.033      3.052
REMARK  2 active torsions:
REMARK  status: ('A' for Active; 'I' for Inactive)
REMARK    1  A    between atoms: C_10  and  C_4 
REMARK       I    between atoms: N_12  and  C_10 
REMARK       I    between atoms: C_11  and  N_13 
REMARK    2  A    between atoms: C_14  and  C_11 
ROOT
ATOM      1  C   UNL d   1     -48.367  13.477  22.869  0.00  0.00     0.154 A 
ATOM      2  C   UNL d   1     -47.934  12.832  23.142  0.00  0.00     0.093 A 
ATOM      3  N   UNL d   1     -49.199  13.448  22.871  0.00  0.00    -0.211 NA
ATOM      4  C   UNL d   1     -47.071  13.776  22.760  0.00  0.00     0.122 A 
ATOM      5  N   UNL d   1     -47.836  14.058  22.634  0.00  0.00    -0.285 N 
ATOM      6  C   UNL d   1     -48.324  12.155  23.419  0.00  0.00     0.269 A 
ATOM      7  N   UNL d   1     -49.145  12.123  23.422  0.00  0.00    -0.259 N 
ATOM      8  C   UNL d   1     -49.590  12.774  23.146  0.00  0.00     0.140 A 
ATOM      9  C   UNL d   1     -47.138  13.016  23.075  0.00  0.00     0.030 A 
ATOM     10  C   UNL d   1     -49.536  11.451  23.697  0.00  0.00     0.084 A 
ATOM     11  O   UNL d   1     -47.885  11.508  23.693  0.00  0.00    -0.266 OA
ATOM     12  C   UNL d   1     -50.404  12.748  23.148  0.00  0.00     0.064 A 
ATOM     13  C   UNL d   1     -50.357  11.427  23.697  0.00  0.00     0.018 A 
ATOM     14  C   UNL d   1     -50.796  12.082  23.420  0.00  0.00    -0.008 A 
ATOM     15  C   UNL d   1     -48.037  14.800  22.323  0.00  0.00     0.101 C 
ENDROOT
BRANCH   4  16
ATOM     16  C   UNL d   1     -46.366  14.181  22.600  0.00  0.00     0.281 C 
ATOM     17  N   UNL d   1     -45.705  13.764  22.341  0.00  0.00    -0.268 N 
ATOM     18  C   UNL d   1     -45.000  14.168  22.181  0.00  0.00     0.102 A 
ATOM     19  C   UNL d   1     -45.740  12.947  22.239  0.00  0.00     0.102 A 
ATOM     20  C   UNL d   1     -44.332  13.755  21.920  0.00  0.00     0.102 A 
ATOM     21  N   UNL d   1     -44.373  12.940  21.821  0.00  0.00    -0.267 N 
ATOM     22  C   UNL d   1     -43.707  12.526  21.560  0.00  0.00     0.288 C 
ATOM     23  C   UNL d   1     -45.083  12.546  21.983  0.00  0.00     0.102 A 
ATOM     24  O   UNL d   1     -43.749  11.711  21.461  0.00  0.00    -0.264 OA
ATOM     25  O   UNL d   1     -46.331  14.997  22.702  0.00  0.00    -0.265 OA
BRANCH  22  26
ATOM     26  C   UNL d   1     -43.009  12.941  21.404  0.00  0.00     0.156 A 
ATOM     27  O   UNL d   1     -42.394  13.060  21.941  0.00  0.00    -0.300 OA
ATOM     28  C   UNL d   1     -41.810  13.495  21.571  0.00  0.00     0.123 A 
ATOM     29  C   UNL d   1     -42.052  13.654  20.796  0.00  0.00     0.029 A 
ATOM     30  C   UNL d   1     -42.795  13.309  20.698  0.00  0.00     0.032 A 
ENDBRANCH  22  26
ENDBRANCH   4  16
TORSDOF 2
ENDMDL
MODEL 3
REMARK VINA RESULT:      -3.8      8.512     10.564
REMARK  2 active torsions:
REMARK  status: ('A' for Active; 'I' for Inactive)
REMARK    1  A    between atoms: C_10  and  C_4 
REMARK       I    between atoms: N_12  and  C_10 
REMARK       I    between atoms: C_11  and  N_13 
REMARK    2  A    between atoms: C_14  and  C_11 
ROOT
ATOM      1  C   UNL d   1     -38.897  14.799  20.993  0.00  0.00     0.154 A 
ATOM      2  C   UNL d   1     -39.530  14.285  20.885  0.00  0.00     0.093 A 
ATOM      3  N   UNL d   1     -38.511  14.833  21.730  0.00  0.00    -0.211 NA
ATOM      4  C   UNL d   1     -39.329  14.939  19.738  0.00  0.00     0.122 A 
ATOM      5  N   UNL d   1     -38.773  15.202  20.287  0.00  0.00    -0.285 N 
ATOM      6  C   UNL d   1     -39.785  13.801  21.507  0.00  0.00     0.269 A 
ATOM      7  N   UNL d   1     -39.407  13.831  22.236  0.00  0.00    -0.259 N 
ATOM      8  C   UNL d   1     -38.763  14.352  22.353  0.00  0.00     0.140 A 
ATOM      9  C   UNL d   1     -39.795  14.371  20.114  0.00  0.00     0.030 A 
ATOM     10  C   UNL d   1     -39.659  13.351  22.858  0.00  0.00     0.084 A 
ATOM     11  O   UNL d   1     -40.423  13.284  21.396  0.00  0.00    -0.266 OA
ATOM     12  C   UNL d   1     -38.385  14.386  23.073  0.00  0.00     0.064 A 
ATOM     13  C   UNL d   1     -39.275  13.388  23.584  0.00  0.00     0.018 A 
ATOM     14  C   UNL d   1     -38.632  13.911  23.693  0.00  0.00    -0.008 A 
ATOM     15  C   UNL d   1     -38.188  15.774  20.153  0.00  0.00     0.101 C 
ENDROOT
BRANCH   4  16
ATOM     16  C   UNL d   1     -39.406  15.196  18.955  0.00  0.00     0.281 C 
ATOM     17  N   UNL d   1     -39.127  14.724  18.340  0.00  0.00    -0.268 N 
ATOM     18  C   UNL d   1     -39.204  14.982  17.557  0.00  0.00     0.102 A 
ATOM     19  C   UNL d   1     -38.773  13.998  18.499  0.00  0.00     0.102 A 
ATOM     20  C   UNL d   1     -38.927  14.513  16.933  0.00  0.00     0.102 A 
ATOM     21  N   UNL d   1     -38.574  13.789  17.098  0.00  0.00    -0.267 N 
ATOM     22  C   UNL d   1     -38.296  13.319  16.479  0.00  0.00     0.288 C 
ATOM     23  C   UNL d   1     -38.502  13.542  17.885  0.00  0.00     0.102 A 
ATOM     24  O   UNL d   1     -37.943  12.595  16.644  0.00  0.00    -0.264 OA
ATOM     25  O   UNL d   1     -39.760  15.922  18.796  0.00  0.00    -0.265 OA
BRANCH  22  26
ATOM     26  C   UNL d   1     -38.378  13.587  15.701  0.00  0.00     0.156 A 
ATOM     27  O   UNL d   1     -38.926  14.149  15.444  0.00  0.00    -0.300 OA
ATOM     28  C   UNL d   1     -38.826  14.258  14.641  0.00  0.00     0.123 A 
ATOM     29  C   UNL d   1     -38.214  13.765  14.382  0.00  0.00     0.029 A 
ATOM     30  C   UNL d   1     -37.941  13.352  15.042  0.00  0.00     0.032 A 
ENDBRANCH  22  26
ENDBRANCH   4  16
TORSDOF 2
ENDMDL
MODEL 4
REMARK VINA RESULT:      -3.7      2.066      2.677
REMARK  2 active torsions:
REMARK  status: ('A' for Active; 'I' for Inactive)
REMARK    1  A    between atoms: C_10  and  C_4 
REMARK       I    between atoms: N_12  and  C_10 
REMARK       I    between atoms: C_11  and  N_13 
REMARK    2  A    between atoms: C_14  and  C_11 
ROOT
ATOM      1  C   UNL d   1     -48.296  12.918  22.824  0.00  0.00     0.154 A 
ATOM      2  C   UNL d   1     -48.335  13.559  22.309  0.00  0.00     0.093 A 
ATOM      3  N   UNL d   1     -48.963  12.430  22.928  0.00  0.00    -0.211 NA
ATOM      4  C   UNL d   1     -47.109  13.527  22.840  0.00  0.00     0.122 A 
ATOM      5  N   UNL d   1     -47.542  12.898  23.150  0.00  0.00    -0.285 N 
ATOM      6  C   UNL d   1     -49.033  13.721  21.894  0.00  0.00     0.269 A 
ATOM      7  N   UNL d   1     -49.693  13.242  21.995  0.00  0.00    -0.259 N 
ATOM      8  C   UNL d   1     -49.662  12.589  22.516  0.00  0.00     0.140 A 
ATOM      9  C   UNL d   1     -47.605  13.933  22.319  0.00  0.00     0.030 A 
ATOM     10  C   UNL d   1     -50.390  13.400  21.583  0.00  0.00     0.084 A 
ATOM     11  O   UNL d   1     -49.068  14.367  21.378  0.00  0.00    -0.266 OA
ATOM     12  C   UNL d   1     -50.313  12.111  22.618  0.00  0.00     0.064 A 
ATOM     13  C   UNL d   1     -51.046  12.916  21.689  0.00  0.00     0.018 A 
ATOM     14  C   UNL d   1     -51.007  12.265  22.212  0.00  0.00    -0.008 A 
ATOM     15  C   UNL d   1     -47.267  12.340  23.698  0.00  0.00     0.101 C 
ENDROOT
BRANCH   4  16
ATOM     16  C   UNL d   1     -46.323  13.717  23.017  0.00  0.00     0.281 C 
ATOM     17  N   UNL d   1     -45.719  13.472  22.513  0.00  0.00    -0.268 N 
ATOM     18  C   UNL d   1     -44.933  13.661  22.690  0.00  0.00     0.102 A 
ATOM     19  C   UNL d   1     -45.893  13.039  21.833  0.00  0.00     0.102 A 
ATOM     20  C   UNL d   1     -44.321  13.418  22.188  0.00  0.00     0.102 A 
ATOM     21  N   UNL d   1     -44.501  12.987  21.511  0.00  0.00    -0.267 N 
ATOM     22  C   UNL d   1     -43.892  12.743  21.008  0.00  0.00     0.288 C 
ATOM     23  C   UNL d   1     -45.291  12.803  21.344  0.00  0.00     0.102 A 
ATOM     24  O   UNL d   1     -44.072  12.312  20.332  0.00  0.00    -0.264 OA
ATOM     25  O   UNL d   1     -46.149  14.149  23.696  0.00  0.00    -0.265 OA
BRANCH  22  26
ATOM     26  C   UNL d   1     -43.111  12.939  21.196  0.00  0.00     0.156 A 
ATOM     27  O   UNL d   1     -42.609  12.495  21.678  0.00  0.00    -0.300 OA
ATOM     28  C   UNL d   1     -41.889  12.877  21.723  0.00  0.00     0.123 A 
ATOM     29  C   UNL d   1     -41.929  13.567  21.269  0.00  0.00     0.029 A 
ATOM     30  C   UNL d   1     -42.688  13.600  20.945  0.00  0.00     0.032 A 
ENDBRANCH  22  26
ENDBRANCH   4  16
TORSDOF 2
ENDMDL
