MODEL 1
REMARK VINA RESULT:      24.0      0.000      0.000
REMARK  5 active torsions:
REMARK  status: ('A' for Active; 'I' for Inactive)
REMARK    1  A    between atoms: C_2  and  C_1 
REMARK       I    between atoms: N_5  and  C_1 
REMARK    2  A    between atoms: C_3  and  C_14 
REMARK    3  A    between atoms: C_12  and  N_5 
REMARK    4  A    between atoms: O_13  and  C_9 
REMARK    5  A    between atoms: C_14  and  C_12 
ROOT
ATOM      1  C   UNL d   1      13.258  12.651  -3.963  0.00  0.00     0.279 C 
ATOM      2  O   UNL d   1      12.919  12.018  -4.350  0.00  0.00    -0.265 OA
ATOM      3  N   UNL d   1      13.552  12.581  -3.199  0.00  0.00    -0.206 NA
ENDROOT
BRANCH   1   4
ATOM      4  C   UNL d   1      13.308  13.380  -4.347  0.00  0.00     0.058 A 
ATOM      5  C   UNL d   1      13.476  13.407  -5.137  0.00  0.00     0.007 A 
ATOM      6  C   UNL d   1      13.524  14.152  -5.515  0.00  0.00     0.024 A 
ATOM      7  C   UNL d   1      13.408  14.822  -5.108  0.00  0.00     0.094 A 
ATOM      8  C   UNL d   1      13.236  14.798  -4.298  0.00  0.00     0.024 A 
ATOM      9  C   UNL d   1      13.185  14.072  -3.911  0.00  0.00     0.007 A 
BRANCH   7  10
ATOM     10  O   UNL d   1      13.456  15.536  -5.480  0.00  0.00    -0.328 OA
ATOM     11  C   UNL d   1      14.117  16.023  -5.360  0.00  0.00     0.181 C 
ENDBRANCH   7  10
ENDBRANCH   1   4
BRANCH   3  12
ATOM     12  C   UNL d   1      13.496  11.845  -2.825  0.00  0.00     0.102 C 
BRANCH  12  13
ATOM     13  C   UNL d   1      13.198  11.782  -2.084  0.00  0.00     0.021 C 
BRANCH  13  14
ATOM     14  C   UNL d   1      13.692  11.783  -1.432  0.00  0.00     0.002 A 
ATOM     15  C   UNL d   1      13.381  11.781  -0.674  0.00  0.00     0.000 A 
ATOM     16  C   UNL d   1      13.879  11.783  -0.015  0.00  0.00     0.000 A 
ATOM     17  C   UNL d   1      14.698  11.786  -0.100  0.00  0.00     0.000 A 
ATOM     18  C   UNL d   1      15.012  11.789  -0.871  0.00  0.00     0.000 A 
ATOM     19  C   UNL d   1      14.501  11.787  -1.532  0.00  0.00     0.000 A 
ENDBRANCH  13  14
ENDBRANCH  12  13
ENDBRANCH   3  12
TORSDOF 5
ENDMDL
