MODEL 1
REMARK VINA RESULT:      -1.2      0.000      0.000
REMARK  5 active torsions:
REMARK  status: ('A' for Active; 'I' for Inactive)
REMARK    1  A    between atoms: C_8  and  S_1 
REMARK    2  A    between atoms: N_10  and  S_1 
REMARK    3  A    between atoms: C_6  and  C_17 
REMARK    4  A    between atoms: C_18  and  N_10 
REMARK    5  A    between atoms: O_24  and  C_19 
ROOT
ATOM      1  C   UNL d   1      56.724   0.497  33.421  0.00  0.00     0.021 A 
ATOM      2  C   UNL d   1      57.324   0.565  32.118  0.00  0.00     0.094 A 
ATOM      3  C   UNL d   1      56.656   0.607  32.600  0.00  0.00     0.021 A 
ATOM      4  C   UNL d   1      57.463   0.345  33.748  0.00  0.00     0.002 A 
ATOM      5  C   UNL d   1      58.131   0.301  33.278  0.00  0.00     0.002 A 
ATOM      6  C   UNL d   1      58.062   0.411  32.457  0.00  0.00     0.020 A 
ENDROOT
BRANCH   2   7
ATOM      7  N   UNL d   1      57.257   0.674  31.308  0.00  0.00    -0.158 NA
BRANCH   7   8
ATOM      8  S   UNL d   1      57.589   0.127  30.794  0.00  0.00     0.285 S 
ATOM      9  O   UNL d   1      56.845  -0.227  30.713  0.00  0.00    -0.198 OA
ATOM     10  O   UNL d   1      58.337   0.477  30.870  0.00  0.00    -0.198 OA
BRANCH   8  11
ATOM     11  C   UNL d   1      57.919  -0.433  30.270  0.00  0.00     0.108 A 
ATOM     12  C   UNL d   1      58.358  -0.180  29.636  0.00  0.00     0.045 A 
ATOM     13  C   UNL d   1      58.690  -0.719  29.111  0.00  0.00     0.163 A 
ATOM     14  F   UNL d   1      59.131  -0.464  28.475  0.00  0.00    -0.202 F 
ATOM     15  C   UNL d   1      58.567  -1.530  29.238  0.00  0.00     0.121 A 
ATOM     16  C   UNL d   1      58.120  -1.787  29.881  0.00  0.00     0.027 A 
ATOM     17  C   UNL d   1      57.785  -1.238  30.413  0.00  0.00     0.015 A 
BRANCH  15  18
ATOM     18  O   UNL d   1      58.886  -2.070  28.730  0.00  0.00    -0.326 OA
ATOM     19  C   UNL d   1      59.004  -2.838  28.965  0.00  0.00     0.181 C 
ENDBRANCH  15  18
ENDBRANCH   8  11
ENDBRANCH   7   8
ENDBRANCH   2   7
BRANCH   1  20
ATOM     20  C   UNL d   1      56.049   0.542  33.892  0.00  0.00     0.102 A 
ATOM     21  N   UNL d   1      55.305   0.545  33.520  0.00  0.00    -0.162 NA
ATOM     22  N   UNL d   1      54.616   0.590  33.990  0.00  0.00    -0.189 N 
ATOM     23  C   UNL d   1      53.826   0.603  33.789  0.00  0.00     0.224 A 
ATOM     24  C   UNL d   1      54.674   0.632  34.819  0.00  0.00     0.187 A 
ATOM     25  N   UNL d   1      53.391   0.652  34.473  0.00  0.00    -0.124 NA
ATOM     26  N   UNL d   1      53.920   0.669  35.102  0.00  0.00    -0.127 NA
ATOM     27  C   UNL d   1      55.432   0.628  35.172  0.00  0.00     0.042 A 
ATOM     28  C   UNL d   1      56.116   0.583  34.703  0.00  0.00     0.024 A 
ENDBRANCH   1  20
TORSDOF 5
ENDMDL
