MODEL 1
REMARK VINA RESULT:      86.2      0.000      0.000
REMARK  5 active torsions:
REMARK  status: ('A' for Active; 'I' for Inactive)
REMARK    1  A    between atoms: C_7  and  C_1 
REMARK    2  A    between atoms: C_8  and  N_2 
REMARK    3  A    between atoms: C_13  and  C_7 
REMARK    4  A    between atoms: C_14  and  C_8 
REMARK    5  A    between atoms: O_22  and  C_15 
ROOT
ATOM      1  C   UNL d   1     -50.971  25.255  34.002  0.00  0.00     0.095 A 
ATOM      2  N   UNL d   1     -51.361  26.313  34.908  0.00  0.00    -0.304 N 
ATOM      3  C   UNL d   1     -50.266  25.661  33.839  0.00  0.00     0.202 A 
ATOM      4  C   UNL d   1     -51.525  25.577  34.538  0.00  0.00     0.087 A 
ATOM      5  C   UNL d   1     -50.114  26.386  34.209  0.00  0.00     0.057 A 
ATOM      6  C   UNL d   1     -50.662  26.715  34.746  0.00  0.00     0.067 A 
ATOM      7  C   UNL d   1     -50.508  27.432  35.110  0.00  0.00     0.020 A 
ATOM      8  C   UNL d   1     -49.411  26.794  34.048  0.00  0.00     0.029 A 
ATOM      9  O   UNL d   1     -49.715  25.341  33.306  0.00  0.00    -0.286 OA
ATOM     10  C   UNL d   1     -49.264  27.516  34.420  0.00  0.00     0.094 A 
ATOM     11  C   UNL d   1     -49.810  27.834  34.948  0.00  0.00     0.026 A 
ENDROOT
BRANCH   1  12
ATOM     12  C   UNL d   1     -51.126  24.532  33.635  0.00  0.00     0.200 C 
ATOM     13  O   UNL d   1     -50.509  24.066  33.380  0.00  0.00    -0.286 OA
BRANCH  12  14
ATOM     14  C   UNL d   1     -51.908  24.289  33.530  0.00  0.00     0.039 A 
ATOM     15  C   UNL d   1     -52.088  23.486  33.529  0.00  0.00     0.003 A 
ATOM     16  C   UNL d   1     -52.868  23.250  33.423  0.00  0.00     0.000 A 
ATOM     17  C   UNL d   1     -53.464  23.814  33.319  0.00  0.00     0.000 A 
ATOM     18  C   UNL d   1     -53.270  24.618  33.322  0.00  0.00     0.000 A 
ATOM     19  C   UNL d   1     -52.488  24.861  33.428  0.00  0.00     0.003 A 
ENDBRANCH  12  14
ENDBRANCH   1  12
BRANCH   2  20
ATOM     20  C   UNL d   1     -51.906  26.630  35.436  0.00  0.00     0.080 C 
BRANCH  20  21
ATOM     21  C   UNL d   1     -51.931  26.356  36.218  0.00  0.00     0.018 A 
ATOM     22  C   UNL d   1     -51.301  26.522  36.722  0.00  0.00     0.002 A 
ATOM     23  C   UNL d   1     -51.323  26.252  37.497  0.00  0.00     0.000 A 
ATOM     24  C   UNL d   1     -51.963  25.821  37.768  0.00  0.00     0.000 A 
ATOM     25  C   UNL d   1     -52.594  25.657  37.253  0.00  0.00     0.000 A 
ATOM     26  C   UNL d   1     -51.984  25.551  38.543  0.00  0.00     0.000 C 
ATOM     27  C   UNL d   1     -52.573  25.928  36.477  0.00  0.00     0.002 A 
ENDBRANCH  20  21
ENDBRANCH   2  20
BRANCH  10  28
ATOM     28  O   UNL d   1     -48.561  27.915  34.253  0.00  0.00    -0.328 OA
ATOM     29  C   UNL d   1     -48.373  28.594  34.676  0.00  0.00     0.181 C 
ENDBRANCH  10  28
TORSDOF 5
ENDMDL
MODEL 2
REMARK VINA RESULT:      88.7      1.220      1.771
REMARK  5 active torsions:
REMARK  status: ('A' for Active; 'I' for Inactive)
REMARK    1  A    between atoms: C_7  and  C_1 
REMARK    2  A    between atoms: C_8  and  N_2 
REMARK    3  A    between atoms: C_13  and  C_7 
REMARK    4  A    between atoms: C_14  and  C_8 
REMARK    5  A    between atoms: O_22  and  C_15 
ROOT
ATOM      1  C   UNL d   1     -50.630  26.886  34.322  0.00  0.00     0.095 A 
ATOM      2  N   UNL d   1     -50.047  26.935  35.644  0.00  0.00    -0.304 N 
ATOM      3  C   UNL d   1     -50.129  27.505  34.084  0.00  0.00     0.202 A 
ATOM      4  C   UNL d   1     -50.594  26.596  35.104  0.00  0.00     0.087 A 
ATOM      5  C   UNL d   1     -49.595  27.832  34.624  0.00  0.00     0.057 A 
ATOM      6  C   UNL d   1     -49.552  27.547  35.408  0.00  0.00     0.067 A 
ATOM      7  C   UNL d   1     -49.022  27.874  35.940  0.00  0.00     0.020 A 
ATOM      8  C   UNL d   1     -49.094  28.449  34.390  0.00  0.00     0.029 A 
ATOM      9  O   UNL d   1     -50.166  27.794  33.306  0.00  0.00    -0.286 OA
ATOM     10  C   UNL d   1     -48.563  28.772  34.934  0.00  0.00     0.094 A 
ATOM     11  C   UNL d   1     -48.527  28.486  35.705  0.00  0.00     0.026 A 
ENDROOT
BRANCH   1  12
ATOM     12  C   UNL d   1     -51.164  26.558  33.785  0.00  0.00     0.200 C 
ATOM     13  O   UNL d   1     -51.713  27.033  33.416  0.00  0.00    -0.286 OA
BRANCH  12  14
ATOM     14  C   UNL d   1     -51.135  25.748  33.627  0.00  0.00     0.039 A 
ATOM     15  C   UNL d   1     -50.408  25.384  33.498  0.00  0.00     0.003 A 
ATOM     16  C   UNL d   1     -50.386  24.577  33.341  0.00  0.00     0.000 A 
ATOM     17  C   UNL d   1     -51.086  24.138  33.313  0.00  0.00     0.000 A 
ATOM     18  C   UNL d   1     -51.811  24.516  33.444  0.00  0.00     0.000 A 
ATOM     19  C   UNL d   1     -51.839  25.326  33.602  0.00  0.00     0.003 A 
ENDBRANCH  12  14
ENDBRANCH   1  12
BRANCH   2  20
ATOM     20  C   UNL d   1     -50.011  26.649  36.415  0.00  0.00     0.080 C 
BRANCH  20  21
ATOM     21  C   UNL d   1     -50.703  26.600  36.869  0.00  0.00     0.018 A 
ATOM     22  C   UNL d   1     -50.791  27.091  37.523  0.00  0.00     0.002 A 
ATOM     23  C   UNL d   1     -51.475  27.044  37.975  0.00  0.00     0.000 A 
ATOM     24  C   UNL d   1     -52.066  26.515  37.778  0.00  0.00     0.000 A 
ATOM     25  C   UNL d   1     -51.970  26.022  37.115  0.00  0.00     0.000 A 
ATOM     26  C   UNL d   1     -52.750  26.468  38.229  0.00  0.00     0.000 C 
ATOM     27  C   UNL d   1     -51.285  26.068  36.663  0.00  0.00     0.002 A 
ENDBRANCH  20  21
ENDBRANCH   2  20
BRANCH  10  28
ATOM     28  O   UNL d   1     -48.068  29.386  34.690  0.00  0.00    -0.328 OA
ATOM     29  C   UNL d   1     -47.345  29.494  35.065  0.00  0.00     0.181 C 
ENDBRANCH  10  28
TORSDOF 5
ENDMDL
MODEL 3
REMARK VINA RESULT:      89.1      1.055      3.467
REMARK  5 active torsions:
REMARK  status: ('A' for Active; 'I' for Inactive)
REMARK    1  A    between atoms: C_7  and  C_1 
REMARK    2  A    between atoms: C_8  and  N_2 
REMARK    3  A    between atoms: C_13  and  C_7 
REMARK    4  A    between atoms: C_14  and  C_8 
REMARK    5  A    between atoms: O_22  and  C_15 
ROOT
ATOM      1  C   UNL d   1     -51.568  26.244  35.280  0.00  0.00     0.095 A 
ATOM      2  N   UNL d   1     -51.100  25.561  34.094  0.00  0.00    -0.304 N 
ATOM      3  C   UNL d   1     -50.956  26.799  35.195  0.00  0.00     0.202 A 
ATOM      4  C   UNL d   1     -51.645  25.620  34.730  0.00  0.00     0.087 A 
ATOM      5  C   UNL d   1     -50.425  26.732  34.565  0.00  0.00     0.057 A 
ATOM      6  C   UNL d   1     -50.495  26.111  34.011  0.00  0.00     0.067 A 
ATOM      7  C   UNL d   1     -49.966  26.047  33.389  0.00  0.00     0.020 A 
ATOM      8  C   UNL d   1     -49.813  27.284  34.478  0.00  0.00     0.029 A 
ATOM      9  O   UNL d   1     -50.879  27.420  35.742  0.00  0.00    -0.286 OA
ATOM     10  C   UNL d   1     -49.285  27.212  33.847  0.00  0.00     0.094 A 
ATOM     11  C   UNL d   1     -49.361  26.597  33.306  0.00  0.00     0.026 A 
ENDROOT
BRANCH   1  12
ATOM     12  C   UNL d   1     -52.100  26.308  35.907  0.00  0.00     0.200 C 
ATOM     13  O   UNL d   1     -52.883  26.477  35.761  0.00  0.00    -0.286 OA
BRANCH  12  14
ATOM     14  C   UNL d   1     -51.831  26.200  36.681  0.00  0.00     0.039 A 
ATOM     15  C   UNL d   1     -51.150  26.587  36.933  0.00  0.00     0.003 A 
ATOM     16  C   UNL d   1     -50.888  26.475  37.704  0.00  0.00     0.000 A 
ATOM     17  C   UNL d   1     -51.304  25.979  38.219  0.00  0.00     0.000 A 
ATOM     18  C   UNL d   1     -51.987  25.596  37.953  0.00  0.00     0.000 A 
ATOM     19  C   UNL d   1     -52.256  25.704  37.180  0.00  0.00     0.003 A 
ENDBRANCH  12  14
ENDBRANCH   1  12
BRANCH   2  20
ATOM     20  C   UNL d   1     -51.176  24.946  33.553  0.00  0.00     0.080 C 
BRANCH  20  21
ATOM     21  C   UNL d   1     -51.873  24.499  33.532  0.00  0.00     0.018 A 
ATOM     22  C   UNL d   1     -52.581  24.866  33.328  0.00  0.00     0.002 A 
ATOM     23  C   UNL d   1     -53.274  24.426  33.306  0.00  0.00     0.000 A 
ATOM     24  C   UNL d   1     -53.263  23.629  33.487  0.00  0.00     0.000 A 
ATOM     25  C   UNL d   1     -52.545  23.265  33.693  0.00  0.00     0.000 A 
ATOM     26  C   UNL d   1     -53.956  23.188  33.466  0.00  0.00     0.000 C 
ATOM     27  C   UNL d   1     -51.851  23.705  33.714  0.00  0.00     0.002 A 
ENDBRANCH  20  21
ENDBRANCH   2  20
BRANCH  10  28
ATOM     28  O   UNL d   1     -48.679  27.768  33.769  0.00  0.00    -0.328 OA
ATOM     29  C   UNL d   1     -48.370  28.124  34.442  0.00  0.00     0.181 C 
ENDBRANCH  10  28
TORSDOF 5
ENDMDL
