MODEL 1
REMARK VINA RESULT:      37.4      0.000      0.000
REMARK  7 active torsions:
REMARK  status: ('A' for Active; 'I' for Inactive)
REMARK    1  A    between atoms: C_2  and  N_1 
REMARK    2  A    between atoms: C_4  and  C_2 
REMARK    3  A    between atoms: O_3  and  C_9 
REMARK    4  A    between atoms: C_7  and  O_3 
REMARK    5  A    between atoms: C_9  and  C_4 
REMARK    6  A    between atoms: C_10  and  C_12 
REMARK    7  A    between atoms: C_17  and  C_10 
ROOT
ATOM      1  N   UNL d   1      13.301  12.179  -3.802  0.00  0.00    -0.300 N 
ATOM      2  C   UNL d   1      12.860  12.105  -3.146  0.00  0.00     0.080 A 
ATOM      3  C   UNL d   1      14.146  12.125  -3.762  0.00  0.00     0.080 A 
ATOM      4  C   UNL d   1      14.032  11.919  -2.355  0.00  0.00     0.003 A 
ATOM      5  C   UNL d   1      13.223  11.973  -2.412  0.00  0.00     0.019 A 
ATOM      6  C   UNL d   1      14.501  11.994  -3.029  0.00  0.00     0.019 A 
ENDROOT
BRANCH   1   7
ATOM      7  C   UNL d   1      12.893  12.312  -4.535  0.00  0.00     0.125 C 
BRANCH   7   8
ATOM      8  C   UNL d   1      12.942  13.066  -4.931  0.00  0.00     0.238 C 
ATOM      9  O   UNL d   1      12.895  13.113  -5.751  0.00  0.00    -0.283 OA
BRANCH   8  10
ATOM     10  C   UNL d   1      13.037  13.746  -4.476  0.00  0.00     0.166 C 
BRANCH  10  11
ATOM     11  O   UNL d   1      13.027  14.490  -4.828  0.00  0.00    -0.302 OA
BRANCH  11  12
ATOM     12  C   UNL d   1      13.557  15.083  -4.552  0.00  0.00     0.100 A 
ATOM     13  C   UNL d   1      14.044  15.511  -5.101  0.00  0.00     0.026 A 
ATOM     14  C   UNL d   1      14.565  16.093  -4.835  0.00  0.00     0.013 A 
ATOM     15  C   UNL d   1      14.615  16.264  -4.036  0.00  0.00     0.058 A 
ATOM     16  C   UNL d   1      14.145  15.855  -3.486  0.00  0.00     0.013 A 
ATOM     17 CL   UNL d   1      15.153  16.866  -3.761  0.00  0.00    -0.082 Cl
ATOM     18  C   UNL d   1      13.625  15.273  -3.747  0.00  0.00     0.026 A 
ENDBRANCH  11  12
ENDBRANCH  10  11
ENDBRANCH   8  10
ENDBRANCH   7   8
ENDBRANCH   1   7
BRANCH   4  19
ATOM     19  C   UNL d   1      14.399  11.780  -1.571  0.00  0.00     0.000 C 
BRANCH  19  20
ATOM     20  C   UNL d   1      14.509  12.420  -1.049  0.00  0.00     0.000 A 
ATOM     21  C   UNL d   1      13.921  12.648  -0.535  0.00  0.00     0.000 A 
ATOM     22  C   UNL d   1      14.041  13.292  -0.015  0.00  0.00     0.000 A 
ATOM     23  C   UNL d   1      14.762  13.686  -0.035  0.00  0.00     0.000 A 
ATOM     24  C   UNL d   1      15.349  13.459  -0.548  0.00  0.00     0.000 A 
ATOM     25  C   UNL d   1      15.233  12.829  -1.057  0.00  0.00     0.000 A 
ENDBRANCH  19  20
ENDBRANCH   4  19
TORSDOF 7
ENDMDL
MODEL 2
REMARK VINA RESULT:      38.6      2.449      4.310
REMARK  7 active torsions:
REMARK  status: ('A' for Active; 'I' for Inactive)
REMARK    1  A    between atoms: C_2  and  N_1 
REMARK    2  A    between atoms: C_4  and  C_2 
REMARK    3  A    between atoms: O_3  and  C_9 
REMARK    4  A    between atoms: C_7  and  O_3 
REMARK    5  A    between atoms: C_9  and  C_4 
REMARK    6  A    between atoms: C_10  and  C_12 
REMARK    7  A    between atoms: C_17  and  C_10 
ROOT
ATOM      1  N   UNL d   1      14.499  13.716  -0.163  0.00  0.00    -0.300 N 
ATOM      2  C   UNL d   1      15.268  13.860  -0.024  0.00  0.00     0.080 A 
ATOM      3  C   UNL d   1      13.969  14.348  -0.354  0.00  0.00     0.080 A 
ATOM      4  C   UNL d   1      15.066  15.254  -0.247  0.00  0.00     0.003 A 
ATOM      5  C   UNL d   1      15.560  14.634  -0.065  0.00  0.00     0.019 A 
ATOM      6  C   UNL d   1      14.267  15.117  -0.393  0.00  0.00     0.019 A 
ENDROOT
BRANCH   1   7
ATOM      7  C   UNL d   1      14.237  12.909  -0.112  0.00  0.00     0.125 C 
BRANCH   7   8
ATOM      8  C   UNL d   1      14.637  12.292  -0.543  0.00  0.00     0.238 C 
ATOM      9  O   UNL d   1      15.275  11.893  -0.209  0.00  0.00    -0.283 OA
BRANCH   8  10
ATOM     10  C   UNL d   1      14.373  12.102  -1.299  0.00  0.00     0.166 C 
BRANCH  10  11
ATOM     11  O   UNL d   1      13.907  12.630  -1.724  0.00  0.00    -0.302 OA
BRANCH  11  12
ATOM     12  C   UNL d   1      13.668  12.431  -2.507  0.00  0.00     0.100 A 
ATOM     13  C   UNL d   1      14.118  12.705  -3.174  0.00  0.00     0.026 A 
ATOM     14  C   UNL d   1      13.888  12.513  -3.943  0.00  0.00     0.013 A 
ATOM     15  C   UNL d   1      13.221  12.054  -4.068  0.00  0.00     0.058 A 
ATOM     16  C   UNL d   1      12.770  11.779  -3.427  0.00  0.00     0.013 A 
ATOM     17 CL   UNL d   1      12.983  11.856  -4.863  0.00  0.00    -0.082 Cl
ATOM     18  C   UNL d   1      12.996  11.969  -2.658  0.00  0.00     0.026 A 
ENDBRANCH  11  12
ENDBRANCH  10  11
ENDBRANCH   8  10
ENDBRANCH   7   8
ENDBRANCH   1   7
BRANCH   4  19
ATOM     19  C   UNL d   1      15.393  16.067  -0.285  0.00  0.00     0.000 C 
BRANCH  19  20
ATOM     20  C   UNL d   1      15.308  16.511  -0.985  0.00  0.00     0.000 A 
ATOM     21  C   UNL d   1      15.245  16.146  -1.709  0.00  0.00     0.000 A 
ATOM     22  C   UNL d   1      15.160  16.601  -2.406  0.00  0.00     0.000 A 
ATOM     23  C   UNL d   1      15.141  17.420  -2.343  0.00  0.00     0.000 A 
ATOM     24  C   UNL d   1      15.203  17.785  -1.619  0.00  0.00     0.000 A 
ATOM     25  C   UNL d   1      15.287  17.342  -0.938  0.00  0.00     0.000 A 
ENDBRANCH  19  20
ENDBRANCH   4  19
TORSDOF 7
ENDMDL
