MODEL 1
REMARK VINA RESULT:      44.7      0.000      0.000
REMARK  7 active torsions:
REMARK  status: ('A' for Active; 'I' for Inactive)
REMARK    1  A    between atoms: C_6  and  N_2 
REMARK    2  A    between atoms: C_7  and  C_3 
REMARK    3  A    between atoms: C_8  and  C_6 
REMARK    4  A    between atoms: O_13  and  C_7 
REMARK    5  A    between atoms: C_14  and  C_8 
REMARK    6  A    between atoms: C_9  and  O_12 
REMARK    7  A    between atoms: O_12  and  C_14 
ROOT
ATOM      1  N   UNL d   1     -50.699  25.325  33.330  0.00  0.00    -0.225 NA
ATOM      2  N   UNL d   1     -50.126  26.564  33.353  0.00  0.00    -0.287 N 
ATOM      3  C   UNL d   1     -49.963  25.736  33.347  0.00  0.00     0.172 A 
ATOM      4  C   UNL d   1     -50.951  26.673  33.341  0.00  0.00     0.083 A 
ATOM      5  C   UNL d   1     -51.306  25.907  33.327  0.00  0.00     0.099 A 
ATOM      6  C   UNL d   1     -51.432  27.346  33.340  0.00  0.00     0.019 A 
ATOM      7  C   UNL d   1     -52.132  25.834  33.312  0.00  0.00     0.021 A 
ATOM      8  C   UNL d   1     -52.262  27.266  33.325  0.00  0.00     0.002 A 
ATOM      9  C   UNL d   1     -52.611  26.512  33.311  0.00  0.00     0.002 A 
ENDROOT
BRANCH   2  10
ATOM     10  C   UNL d   1     -49.447  27.037  33.370  0.00  0.00     0.084 C 
BRANCH  10  11
ATOM     11  C   UNL d   1     -49.115  27.244  34.096  0.00  0.00     0.046 C 
BRANCH  11  12
ATOM     12  C   UNL d   1     -48.913  28.020  34.244  0.00  0.00     0.124 C 
BRANCH  12  13
ATOM     13  O   UNL d   1     -48.801  28.270  35.018  0.00  0.00    -0.305 OA
BRANCH  13  14
ATOM     14  C   UNL d   1     -48.287  28.891  35.178  0.00  0.00     0.100 A 
ATOM     15  C   UNL d   1     -47.634  28.764  35.648  0.00  0.00     0.025 A 
ATOM     16  C   UNL d   1     -47.126  29.375  35.807  0.00  0.00     0.002 A 
ATOM     17  C   UNL d   1     -47.268  30.131  35.492  0.00  0.00     0.000 A 
ATOM     18  C   UNL d   1     -47.930  30.247  35.020  0.00  0.00     0.002 A 
ATOM     19  C   UNL d   1     -48.437  29.625  34.866  0.00  0.00     0.025 A 
ENDBRANCH  13  14
ENDBRANCH  12  13
ENDBRANCH  11  12
ENDBRANCH  10  11
ENDBRANCH   2  10
BRANCH   3  20
ATOM     20  C   UNL d   1     -49.344  25.340  33.353  0.00  0.00     0.154 C 
BRANCH  20  21
ATOM     21  O   UNL d   1     -49.300  24.523  33.318  0.00  0.00    -0.323 OA
ATOM     22  C   UNL d   1     -48.918  23.955  33.782  0.00  0.00     0.182 C 
ENDBRANCH  20  21
ENDBRANCH   3  20
TORSDOF 7
ENDMDL
