MODEL 1
REMARK VINA RESULT:      36.6      0.000      0.000
REMARK  4 active torsions:
REMARK  status: ('A' for Active; 'I' for Inactive)
REMARK    1  A    between atoms: C_8  and  N_2 
REMARK    2  A    between atoms: C_7  and  O_14 
REMARK    3  A    between atoms: C_15  and  C_8 
REMARK    4  A    between atoms: O_14  and  C_15 
ROOT
ATOM      1  C   UNL d   1     -50.441  23.818  33.327  0.00  0.00     0.108 C 
ENDROOT
BRANCH   1   2
ATOM      2  N   UNL d   1     -49.886  24.425  33.445  0.00  0.00    -0.285 N 
ATOM      3  C   UNL d   1     -49.026  24.344  33.607  0.00  0.00     0.183 A 
ATOM      4  N   UNL d   1     -48.730  25.170  33.681  0.00  0.00    -0.224 NA
ATOM      5  C   UNL d   1     -49.348  25.717  33.575  0.00  0.00     0.099 A 
ATOM      6  C   UNL d   1     -50.078  25.287  33.427  0.00  0.00     0.083 A 
ATOM      7  C   UNL d   1     -49.355  26.499  33.590  0.00  0.00     0.021 A 
ATOM      8  C   UNL d   1     -50.758  25.673  33.307  0.00  0.00     0.019 A 
ATOM      9  C   UNL d   1     -50.751  26.538  33.326  0.00  0.00     0.002 A 
ATOM     10  C   UNL d   1     -50.052  26.950  33.468  0.00  0.00     0.002 A 
ENDBRANCH   1   2
BRANCH   1  11
ATOM     11  C   UNL d   1     -51.231  23.932  33.477  0.00  0.00     0.142 C 
BRANCH  11  12
ATOM     12  O   UNL d   1     -51.639  23.396  33.956  0.00  0.00    -0.304 OA
BRANCH  12  13
ATOM     13  C   UNL d   1     -52.470  23.391  33.973  0.00  0.00     0.100 A 
ATOM     14  C   UNL d   1     -52.861  23.589  34.671  0.00  0.00     0.026 A 
ATOM     15  C   UNL d   1     -53.676  23.594  34.721  0.00  0.00     0.013 A 
ATOM     16  C   UNL d   1     -54.145  23.391  34.048  0.00  0.00     0.058 A 
ATOM     17  C   UNL d   1     -53.737  23.190  33.343  0.00  0.00     0.013 A 
ATOM     18 CL   UNL d   1     -54.988  23.398  34.109  0.00  0.00    -0.082 Cl
ATOM     19  C   UNL d   1     -52.918  23.191  33.310  0.00  0.00     0.026 A 
ENDBRANCH  12  13
ENDBRANCH  11  12
ENDBRANCH   1  11
TORSDOF 4
ENDMDL
MODEL 2
REMARK VINA RESULT:      38.8      3.274      5.453
REMARK  4 active torsions:
REMARK  status: ('A' for Active; 'I' for Inactive)
REMARK    1  A    between atoms: C_8  and  N_2 
REMARK    2  A    between atoms: C_7  and  O_14 
REMARK    3  A    between atoms: C_15  and  C_8 
REMARK    4  A    between atoms: O_14  and  C_15 
ROOT
ATOM      1  C   UNL d   1     -49.780  26.923  33.332  0.00  0.00     0.108 C 
ENDROOT
BRANCH   1   2
ATOM      2  N   UNL d   1     -50.574  26.678  33.322  0.00  0.00    -0.285 N 
ATOM      3  C   UNL d   1     -51.293  27.182  33.313  0.00  0.00     0.183 A 
ATOM      4  N   UNL d   1     -51.968  26.616  33.306  0.00  0.00    -0.224 NA
ATOM      5  C   UNL d   1     -51.696  25.830  33.310  0.00  0.00     0.099 A 
ATOM      6  C   UNL d   1     -50.836  25.834  33.320  0.00  0.00     0.083 A 
ATOM      7  C   UNL d   1     -52.081  25.149  33.306  0.00  0.00     0.021 A 
ATOM      8  C   UNL d   1     -50.429  25.155  33.326  0.00  0.00     0.019 A 
ATOM      9  C   UNL d   1     -50.867  24.409  33.321  0.00  0.00     0.002 A 
ATOM     10  C   UNL d   1     -51.691  24.406  33.311  0.00  0.00     0.002 A 
ENDBRANCH   1   2
BRANCH   1  11
ATOM     11  C   UNL d   1     -49.557  27.620  33.684  0.00  0.00     0.142 C 
BRANCH  11  12
ATOM     12  O   UNL d   1     -48.754  27.792  33.777  0.00  0.00    -0.304 OA
BRANCH  12  13
ATOM     13  C   UNL d   1     -48.503  28.353  34.336  0.00  0.00     0.100 A 
ATOM     14  C   UNL d   1     -48.007  28.118  34.951  0.00  0.00     0.026 A 
ATOM     15  C   UNL d   1     -47.743  28.645  35.516  0.00  0.00     0.013 A 
ATOM     16  C   UNL d   1     -47.977  29.456  35.484  0.00  0.00     0.058 A 
ATOM     17  C   UNL d   1     -48.482  29.685  34.855  0.00  0.00     0.013 A 
ATOM     18 CL   UNL d   1     -47.699  29.995  36.074  0.00  0.00    -0.082 Cl
ATOM     19  C   UNL d   1     -48.738  29.143  34.296  0.00  0.00     0.026 A 
ENDBRANCH  12  13
ENDBRANCH  11  12
ENDBRANCH   1  11
TORSDOF 4
ENDMDL
