MODEL 1
REMARK VINA RESULT:     -11.0      0.000      0.000
REMARK  3 active torsions:
REMARK  status: ('A' for Active; 'I' for Inactive)
REMARK    1  A    between atoms: C_6  and  C_1 
REMARK    2  A    between atoms: C_2  and  C_8 
REMARK       I    between atoms: N_11  and  C_6 
REMARK    3  A    between atoms: C_12  and  N_11 
ROOT
ATOM      1  C   UNL d   1      54.075  32.923  54.480  0.00  0.00     0.054 A 
ATOM      2  C   UNL d   1      53.633  33.615  54.381  0.00  0.00     0.088 A 
ATOM      3  C   UNL d   1      54.763  32.918  54.940  0.00  0.00     0.005 A 
ATOM      4  C   UNL d   1      53.885  34.320  54.752  0.00  0.00     0.019 A 
ATOM      5  C   UNL d   1      55.014  33.623  55.311  0.00  0.00     0.000 A 
ATOM      6  C   UNL d   1      54.550  34.317  55.198  0.00  0.00     0.002 A 
ENDROOT
BRANCH   2   7
ATOM      7  N   UNL d   1      52.945  33.620  53.921  0.00  0.00    -0.207 NA
ATOM      8  C   UNL d   1      52.579  34.331  53.708  0.00  0.00     0.286 C 
ATOM      9  O   UNL d   1      52.877  35.036  53.940  0.00  0.00    -0.265 OA
BRANCH   8  10
ATOM     10  C   UNL d   1      51.882  34.315  53.241  0.00  0.00     0.098 A 
ATOM     11  S   UNL d   1      51.180  34.212  53.544  0.00  0.00    -0.081 SA
ATOM     12  C   UNL d   1      50.634  34.229  52.910  0.00  0.00     0.030 A 
ATOM     13  C   UNL d   1      49.846  34.156  52.868  0.00  0.00     0.006 A 
ATOM     14  C   UNL d   1      51.065  34.348  52.218  0.00  0.00     0.017 A 
ATOM     15  C   UNL d   1      49.465  34.200  52.131  0.00  0.00     0.001 A 
ATOM     16  C   UNL d   1      49.873  34.318  51.437  0.00  0.00     0.000 A 
ATOM     17  C   UNL d   1      50.696  34.394  51.481  0.00  0.00     0.001 A 
ATOM     18  C   UNL d   1      51.864  34.403  52.434  0.00  0.00     0.069 A 
ATOM     19 CL   UNL d   1      52.512  34.520  51.956  0.00  0.00    -0.082 Cl
ENDBRANCH   8  10
ENDBRANCH   2   7
BRANCH   1  20
ATOM     20  C   UNL d   1      53.824  32.219  54.109  0.00  0.00     0.164 A 
ATOM     21  N   UNL d   1      53.792  31.967  53.313  0.00  0.00    -0.225 NA
ATOM     22  C   UNL d   1      53.488  31.214  53.325  0.00  0.00     0.101 A 
ATOM     23  C   UNL d   1      53.336  30.704  52.708  0.00  0.00     0.021 A 
ATOM     24  C   UNL d   1      53.333  30.990  54.061  0.00  0.00     0.101 A 
ATOM     25  C   UNL d   1      53.022  29.955  52.846  0.00  0.00     0.002 A 
ATOM     26  C   UNL d   1      52.866  29.727  53.587  0.00  0.00     0.002 A 
ATOM     27  C   UNL d   1      53.019  30.239  54.200  0.00  0.00     0.021 A 
ATOM     28  N   UNL d   1      53.533  31.596  54.571  0.00  0.00    -0.225 NA
ENDBRANCH   1  20
TORSDOF 3
ENDMDL
MODEL 2
REMARK VINA RESULT:      -9.0      1.395      3.910
REMARK  3 active torsions:
REMARK  status: ('A' for Active; 'I' for Inactive)
REMARK    1  A    between atoms: C_6  and  C_1 
REMARK    2  A    between atoms: C_2  and  C_8 
REMARK       I    between atoms: N_11  and  C_6 
REMARK    3  A    between atoms: C_12  and  N_11 
ROOT
ATOM      1  C   UNL d   1      52.845  34.748  53.959  0.00  0.00     0.054 A 
ATOM      2  C   UNL d   1      53.297  34.116  54.247  0.00  0.00     0.088 A 
ATOM      3  C   UNL d   1      52.999  35.524  54.200  0.00  0.00     0.005 A 
ATOM      4  C   UNL d   1      53.916  34.265  54.787  0.00  0.00     0.019 A 
ATOM      5  C   UNL d   1      53.618  35.673  54.740  0.00  0.00     0.000 A 
ATOM      6  C   UNL d   1      54.066  35.017  55.020  0.00  0.00     0.002 A 
ENDROOT
BRANCH   2   7
ATOM      7  N   UNL d   1      53.143  33.338  54.006  0.00  0.00    -0.207 NA
ATOM      8  C   UNL d   1      53.682  32.730  54.164  0.00  0.00     0.286 C 
ATOM      9  O   UNL d   1      54.366  32.872  54.553  0.00  0.00    -0.265 OA
BRANCH   8  10
ATOM     10  C   UNL d   1      53.508  31.948  53.912  0.00  0.00     0.098 A 
ATOM     11  S   UNL d   1      53.379  31.768  53.173  0.00  0.00    -0.081 SA
ATOM     12  C   UNL d   1      53.227  30.946  53.143  0.00  0.00     0.030 A 
ATOM     13  C   UNL d   1      53.059  30.444  52.554  0.00  0.00     0.006 A 
ATOM     14  C   UNL d   1      53.275  30.659  53.915  0.00  0.00     0.017 A 
ATOM     15  C   UNL d   1      52.935  29.638  52.718  0.00  0.00     0.001 A 
ATOM     16  C   UNL d   1      52.979  29.337  53.473  0.00  0.00     0.000 A 
ATOM     17  C   UNL d   1      53.154  29.862  54.089  0.00  0.00     0.001 A 
ATOM     18  C   UNL d   1      53.455  31.304  54.404  0.00  0.00     0.069 A 
ATOM     19 CL   UNL d   1      53.562  31.315  55.211  0.00  0.00    -0.082 Cl
ENDBRANCH   8  10
ENDBRANCH   2   7
BRANCH   1  20
ATOM     20  C   UNL d   1      52.227  34.599  53.420  0.00  0.00     0.164 A 
ATOM     21  N   UNL d   1      52.203  34.452  52.597  0.00  0.00    -0.225 NA
ATOM     22  C   UNL d   1      51.421  34.350  52.407  0.00  0.00     0.101 A 
ATOM     23  C   UNL d   1      51.076  34.194  51.686  0.00  0.00     0.021 A 
ATOM     24  C   UNL d   1      50.969  34.422  53.046  0.00  0.00     0.101 A 
ATOM     25  C   UNL d   1      50.259  34.110  51.616  0.00  0.00     0.002 A 
ATOM     26  C   UNL d   1      49.803  34.182  52.259  0.00  0.00     0.002 A 
ATOM     27  C   UNL d   1      50.150  34.338  52.976  0.00  0.00     0.021 A 
ATOM     28  N   UNL d   1      51.445  34.577  53.691  0.00  0.00    -0.225 NA
ENDBRANCH   1  20
TORSDOF 3
ENDMDL
MODEL 3
REMARK VINA RESULT:      -8.3      1.659      4.337
REMARK  3 active torsions:
REMARK  status: ('A' for Active; 'I' for Inactive)
REMARK    1  A    between atoms: C_6  and  C_1 
REMARK    2  A    between atoms: C_2  and  C_8 
REMARK       I    between atoms: N_11  and  C_6 
REMARK    3  A    between atoms: C_12  and  N_11 
ROOT
ATOM      1  C   UNL d   1      52.568  33.722  53.332  0.00  0.00     0.054 A 
ATOM      2  C   UNL d   1      52.238  32.997  53.109  0.00  0.00     0.088 A 
ATOM      3  C   UNL d   1      52.308  34.430  52.993  0.00  0.00     0.005 A 
ATOM      4  C   UNL d   1      51.634  32.979  52.532  0.00  0.00     0.019 A 
ATOM      5  C   UNL d   1      51.704  34.413  52.416  0.00  0.00     0.000 A 
ATOM      6  C   UNL d   1      51.382  33.664  52.203  0.00  0.00     0.002 A 
ENDROOT
BRANCH   2   7
ATOM      7  N   UNL d   1      52.498  32.287  53.449  0.00  0.00    -0.207 NA
ATOM      8  C   UNL d   1      52.466  31.576  53.026  0.00  0.00     0.286 C 
ATOM      9  O   UNL d   1      52.184  31.550  52.279  0.00  0.00    -0.265 OA
BRANCH   8  10
ATOM     10  C   UNL d   1      52.734  30.868  53.389  0.00  0.00     0.098 A 
ATOM     11  S   UNL d   1      52.344  30.515  53.953  0.00  0.00    -0.081 SA
ATOM     12  C   UNL d   1      52.782  29.836  54.168  0.00  0.00     0.030 A 
ATOM     13  C   UNL d   1      52.671  29.262  54.703  0.00  0.00     0.006 A 
ATOM     14  C   UNL d   1      53.454  29.816  53.691  0.00  0.00     0.017 A 
ATOM     15  C   UNL d   1      53.229  28.650  54.777  0.00  0.00     0.001 A 
ATOM     16  C   UNL d   1      53.898  28.613  54.315  0.00  0.00     0.000 A 
ATOM     17  C   UNL d   1      54.014  29.213  53.756  0.00  0.00     0.001 A 
ATOM     18  C   UNL d   1      53.419  30.479  53.193  0.00  0.00     0.069 A 
ATOM     19 CL   UNL d   1      53.949  30.712  52.620  0.00  0.00    -0.082 Cl
ENDBRANCH   8  10
ENDBRANCH   2   7
BRANCH   1  20
ATOM     20  C   UNL d   1      53.171  33.739  53.908  0.00  0.00     0.164 A 
ATOM     21  N   UNL d   1      53.173  33.675  54.742  0.00  0.00    -0.225 NA
ATOM     22  C   UNL d   1      53.949  33.736  54.972  0.00  0.00     0.101 A 
ATOM     23  C   UNL d   1      54.274  33.712  55.719  0.00  0.00     0.021 A 
ATOM     24  C   UNL d   1      54.416  33.832  54.348  0.00  0.00     0.101 A 
ATOM     25  C   UNL d   1      55.088  33.787  55.829  0.00  0.00     0.002 A 
ATOM     26  C   UNL d   1      55.560  33.883  55.201  0.00  0.00     0.002 A 
ATOM     27  C   UNL d   1      55.231  33.907  54.458  0.00  0.00     0.021 A 
ATOM     28  N   UNL d   1      53.958  33.837  53.672  0.00  0.00    -0.225 NA
ENDBRANCH   1  20
TORSDOF 3
ENDMDL
