MODEL 1
REMARK VINA RESULT:      -3.4      0.000      0.000
REMARK  5 active torsions:
REMARK  status: ('A' for Active; 'I' for Inactive)
REMARK    1  A    between atoms: C_5  and  C_1 
REMARK    2  A    between atoms: O_8  and  C_2 
REMARK    3  A    between atoms: C_20  and  O_8 
REMARK    4  A    between atoms: C_11  and  O_14 
REMARK    5  A    between atoms: O_14  and  C_13 
ROOT
ATOM      1  C   UNL d   1      31.956  16.437 -23.846  0.00  0.00     0.197 A 
ATOM      2  C   UNL d   1      32.030  17.204 -24.145  0.00  0.00     0.165 A 
ATOM      3  O   UNL d   1      31.226  16.091 -23.814  0.00  0.00    -0.301 OA
ATOM      4  C   UNL d   1      31.368  17.616 -24.411  0.00  0.00     0.222 A 
ATOM      5  C   UNL d   1      30.560  16.494 -24.077  0.00  0.00     0.105 A 
ATOM      6  C   UNL d   1      30.635  17.261 -24.376  0.00  0.00     0.064 A 
ATOM      7  C   UNL d   1      29.817  16.140 -24.044  0.00  0.00     0.050 A 
ATOM      8  C   UNL d   1      29.962  17.668 -24.641  0.00  0.00     0.007 A 
ATOM      9  O   UNL d   1      31.443  18.376 -24.708  0.00  0.00    -0.284 OA
ATOM     10  C   UNL d   1      29.163  16.537 -24.303  0.00  0.00     0.105 A 
ATOM     11  C   UNL d   1      29.235  17.303 -24.602  0.00  0.00     0.025 A 
ENDROOT
BRANCH   2  12
ATOM     12  O   UNL d   1      32.774  17.581 -24.187  0.00  0.00    -0.302 OA
BRANCH  12  13
ATOM     13  C   UNL d   1      32.929  18.256 -23.743  0.00  0.00     0.100 A 
ATOM     14  C   UNL d   1      32.980  18.215 -22.926  0.00  0.00     0.025 A 
ATOM     15  C   UNL d   1      33.135  18.893 -22.484  0.00  0.00     0.002 A 
ATOM     16  C   UNL d   1      33.241  19.619 -22.866  0.00  0.00     0.000 A 
ATOM     17  C   UNL d   1      33.191  19.669 -23.695  0.00  0.00     0.002 A 
ATOM     18  C   UNL d   1      33.034  18.986 -24.135  0.00  0.00     0.025 A 
ENDBRANCH  12  13
ENDBRANCH   2  12
BRANCH   1  19
ATOM     19  C   UNL d   1      32.608  16.027 -23.582  0.00  0.00     0.442 C 
ATOM     20  F   UNL d   1      33.232  15.623 -23.247  0.00  0.00    -0.164 F 
ATOM     21  F   UNL d   1      33.241  15.741 -24.128  0.00  0.00    -0.164 F 
ATOM     22  F   UNL d   1      32.633  15.906 -22.825  0.00  0.00    -0.164 F 
ENDBRANCH   1  19
BRANCH  10  23
ATOM     23  O   UNL d   1      28.393  16.159 -24.264  0.00  0.00    -0.273 OA
BRANCH  23  24
ATOM     24  C   UNL d   1      27.991  16.135 -23.543  0.00  0.00     0.300 C 
ATOM     25  O   UNL d   1      27.567  16.814 -23.269  0.00  0.00    -0.259 OA
ATOM     26  C   UNL d   1      28.004  15.453 -23.097  0.00  0.00     0.074 C 
ENDBRANCH  23  24
ENDBRANCH  10  23
TORSDOF 5
ENDMDL
MODEL 2
REMARK VINA RESULT:      -1.0      1.704      2.318
REMARK  5 active torsions:
REMARK  status: ('A' for Active; 'I' for Inactive)
REMARK    1  A    between atoms: C_5  and  C_1 
REMARK    2  A    between atoms: O_8  and  C_2 
REMARK    3  A    between atoms: C_20  and  O_8 
REMARK    4  A    between atoms: C_11  and  O_14 
REMARK    5  A    between atoms: O_14  and  C_13 
ROOT
ATOM      1  C   UNL d   1      32.206  18.757 -24.402  0.00  0.00     0.197 A 
ATOM      2  C   UNL d   1      32.586  18.449 -23.736  0.00  0.00     0.165 A 
ATOM      3  O   UNL d   1      31.574  18.365 -24.718  0.00  0.00    -0.301 OA
ATOM      4  C   UNL d   1      32.325  17.746 -23.393  0.00  0.00     0.222 A 
ATOM      5  C   UNL d   1      31.306  17.665 -24.383  0.00  0.00     0.105 A 
ATOM      6  C   UNL d   1      31.686  17.356 -23.716  0.00  0.00     0.064 A 
ATOM      7  C   UNL d   1      30.661  17.266 -24.705  0.00  0.00     0.050 A 
ATOM      8  C   UNL d   1      31.416  16.649 -23.378  0.00  0.00     0.007 A 
ATOM      9  O   UNL d   1      32.701  17.441 -22.733  0.00  0.00    -0.284 OA
ATOM     10  C   UNL d   1      30.399  16.577 -24.374  0.00  0.00     0.105 A 
ATOM     11  C   UNL d   1      30.776  16.267 -23.710  0.00  0.00     0.025 A 
ENDROOT
BRANCH   2  12
ATOM     12  O   UNL d   1      33.241  18.836 -23.393  0.00  0.00    -0.302 OA
BRANCH  12  13
ATOM     13  C   UNL d   1      33.158  19.266 -22.696  0.00  0.00     0.100 A 
ATOM     14  C   UNL d   1      33.227  18.896 -21.968  0.00  0.00     0.025 A 
ATOM     15  C   UNL d   1      33.144  19.330 -21.271  0.00  0.00     0.002 A 
ATOM     16  C   UNL d   1      32.990  20.142 -21.307  0.00  0.00     0.000 A 
ATOM     17  C   UNL d   1      32.919  20.524 -22.042  0.00  0.00     0.002 A 
ATOM     18  C   UNL d   1      33.003  20.086 -22.739  0.00  0.00     0.025 A 
ENDBRANCH  12  13
ENDBRANCH   2  12
BRANCH   1  19
ATOM     19  C   UNL d   1      32.461  19.451 -24.744  0.00  0.00     0.442 C 
ATOM     20  F   UNL d   1      32.785  20.111 -25.097  0.00  0.00    -0.164 F 
ATOM     21  F   UNL d   1      31.939  20.159 -24.827  0.00  0.00    -0.164 F 
ATOM     22  F   UNL d   1      33.188  19.446 -24.989  0.00  0.00    -0.164 F 
ENDBRANCH   1  19
BRANCH  10  23
ATOM     23  O   UNL d   1      29.727  16.170 -24.718  0.00  0.00    -0.273 OA
BRANCH  23  24
ATOM     24  C   UNL d   1      28.971  16.313 -24.418  0.00  0.00     0.300 C 
ATOM     25  O   UNL d   1      28.615  17.076 -24.506  0.00  0.00    -0.259 OA
ATOM     26  C   UNL d   1      28.569  15.716 -24.036  0.00  0.00     0.074 C 
ENDBRANCH  23  24
ENDBRANCH  10  23
TORSDOF 5
ENDMDL
MODEL 3
REMARK VINA RESULT:      -0.9      1.291      3.975
REMARK  5 active torsions:
REMARK  status: ('A' for Active; 'I' for Inactive)
REMARK    1  A    between atoms: C_5  and  C_1 
REMARK    2  A    between atoms: O_8  and  C_2 
REMARK    3  A    between atoms: C_20  and  O_8 
REMARK    4  A    between atoms: C_11  and  O_14 
REMARK    5  A    between atoms: O_14  and  C_13 
ROOT
ATOM      1  C   UNL d   1      32.344  16.998 -23.504  0.00  0.00     0.197 A 
ATOM      2  C   UNL d   1      31.821  17.197 -24.112  0.00  0.00     0.165 A 
ATOM      3  O   UNL d   1      32.718  17.584 -23.092  0.00  0.00    -0.301 OA
ATOM      4  C   UNL d   1      31.679  17.986 -24.302  0.00  0.00     0.222 A 
ATOM      5  C   UNL d   1      32.584  18.374 -23.274  0.00  0.00     0.105 A 
ATOM      6  C   UNL d   1      32.061  18.572 -23.883  0.00  0.00     0.064 A 
ATOM      7  C   UNL d   1      32.965  18.971 -22.855  0.00  0.00     0.050 A 
ATOM      8  C   UNL d   1      31.925  19.370 -24.066  0.00  0.00     0.007 A 
ATOM      9  O   UNL d   1      31.161  18.182 -24.905  0.00  0.00    -0.284 OA
ATOM     10  C   UNL d   1      32.832  19.747 -23.034  0.00  0.00     0.105 A 
ATOM     11  C   UNL d   1      32.311  19.948 -23.641  0.00  0.00     0.025 A 
ENDROOT
BRANCH   2  12
ATOM     12  O   UNL d   1      31.423  16.607 -24.550  0.00  0.00    -0.302 OA
BRANCH  12  13
ATOM     13  C   UNL d   1      30.607  16.521 -24.495  0.00  0.00     0.100 A 
ATOM     14  C   UNL d   1      30.118  16.790 -25.095  0.00  0.00     0.025 A 
ATOM     15  C   UNL d   1      29.300  16.702 -25.037  0.00  0.00     0.002 A 
ATOM     16  C   UNL d   1      28.971  16.340 -24.370  0.00  0.00     0.000 A 
ATOM     17  C   UNL d   1      29.461  16.065 -23.757  0.00  0.00     0.002 A 
ATOM     18  C   UNL d   1      30.281  16.155 -23.818  0.00  0.00     0.025 A 
ENDBRANCH  12  13
ENDBRANCH   2  12
BRANCH   1  19
ATOM     19  C   UNL d   1      32.486  16.219 -23.313  0.00  0.00     0.442 C 
ATOM     20  F   UNL d   1      32.594  15.453 -23.056  0.00  0.00    -0.164 F 
ATOM     21  F   UNL d   1      32.899  15.664 -23.863  0.00  0.00    -0.164 F 
ATOM     22  F   UNL d   1      32.235  16.001 -22.622  0.00  0.00    -0.164 F 
ENDBRANCH   1  19
BRANCH  10  23
ATOM     23  O   UNL d   1      33.236  20.361 -22.591  0.00  0.00    -0.273 OA
BRANCH  23  24
ATOM     24  C   UNL d   1      32.791  20.952 -22.222  0.00  0.00     0.300 C 
ATOM     25  O   UNL d   1      32.230  20.750 -21.621  0.00  0.00    -0.259 OA
ATOM     26  C   UNL d   1      32.896  21.730 -22.441  0.00  0.00     0.074 C 
ENDBRANCH  23  24
ENDBRANCH  10  23
TORSDOF 5
ENDMDL
MODEL 4
REMARK VINA RESULT:      -0.8      2.060      4.538
REMARK  5 active torsions:
REMARK  status: ('A' for Active; 'I' for Inactive)
REMARK    1  A    between atoms: C_5  and  C_1 
REMARK    2  A    between atoms: O_8  and  C_2 
REMARK    3  A    between atoms: C_20  and  O_8 
REMARK    4  A    between atoms: C_11  and  O_14 
REMARK    5  A    between atoms: O_14  and  C_13 
ROOT
ATOM      1  C   UNL d   1      29.651  17.718 -24.551  0.00  0.00     0.197 A 
ATOM      2  C   UNL d   1      29.701  16.893 -24.573  0.00  0.00     0.165 A 
ATOM      3  O   UNL d   1      30.324  18.161 -24.620  0.00  0.00    -0.301 OA
ATOM      4  C   UNL d   1      30.430  16.520 -24.665  0.00  0.00     0.222 A 
ATOM      5  C   UNL d   1      31.055  17.798 -24.712  0.00  0.00     0.105 A 
ATOM      6  C   UNL d   1      31.105  16.972 -24.734  0.00  0.00     0.064 A 
ATOM      7  C   UNL d   1      31.741  18.249 -24.782  0.00  0.00     0.050 A 
ATOM      8  C   UNL d   1      31.843  16.606 -24.826  0.00  0.00     0.007 A 
ATOM      9  O   UNL d   1      30.478  15.703 -24.687  0.00  0.00    -0.284 OA
ATOM     10  C   UNL d   1      32.459  17.891 -24.872  0.00  0.00     0.105 A 
ATOM     11  C   UNL d   1      32.511  17.068 -24.894  0.00  0.00     0.025 A 
ENDROOT
BRANCH   2  12
ATOM     12  O   UNL d   1      29.019  16.417 -24.504  0.00  0.00    -0.302 OA
BRANCH  12  13
ATOM     13  C   UNL d   1      28.802  16.095 -23.778  0.00  0.00     0.100 A 
ATOM     14  C   UNL d   1      29.371  15.799 -23.268  0.00  0.00     0.025 A 
ATOM     15  C   UNL d   1      29.151  15.477 -22.541  0.00  0.00     0.002 A 
ATOM     16  C   UNL d   1      28.352  15.453 -22.326  0.00  0.00     0.000 A 
ATOM     17  C   UNL d   1      27.770  15.751 -22.839  0.00  0.00     0.002 A 
ATOM     18  C   UNL d   1      27.994  16.073 -23.567  0.00  0.00     0.025 A 
ENDBRANCH  12  13
ENDBRANCH   2  12
BRANCH   1  19
ATOM     19  C   UNL d   1      28.932  18.090 -24.461  0.00  0.00     0.442 C 
ATOM     20  F   UNL d   1      28.200  18.449 -24.445  0.00  0.00    -0.164 F 
ATOM     21  F   UNL d   1      28.665  18.424 -23.688  0.00  0.00    -0.164 F 
ATOM     22  F   UNL d   1      28.504  18.131 -25.096  0.00  0.00    -0.164 F 
ENDBRANCH   1  19
BRANCH  10  23
ATOM     23  O   UNL d   1      33.166  18.371 -24.944  0.00  0.00    -0.273 OA
BRANCH  23  24
ATOM     24  C   UNL d   1      33.178  19.127 -24.612  0.00  0.00     0.300 C 
ATOM     25  O   UNL d   1      33.236  19.222 -23.773  0.00  0.00    -0.259 OA
ATOM     26  C   UNL d   1      33.132  19.781 -25.097  0.00  0.00     0.074 C 
ENDBRANCH  23  24
ENDBRANCH  10  23
TORSDOF 5
ENDMDL
