MODEL 1
REMARK VINA RESULT:       9.7      0.000      0.000
REMARK  1 active torsions:
REMARK  status: ('A' for Active; 'I' for Inactive)
REMARK    1  A    between atoms: C_6  and  CA_1 
ROOT
ATOM      1  CA  UNL d   1      58.464  49.695  50.553  0.00  0.00     0.147 A 
ATOM      2  N   UNL d   1      57.807  49.688  51.043  0.00  0.00    -0.237 NA
ATOM      3  C   UNL d   1      58.205  49.700  49.768  0.00  0.00     0.052 A 
ATOM      4  C   UNL d   1      57.136  49.689  50.563  0.00  0.00     0.106 A 
ATOM      5  C   UNL d   1      57.382  49.696  49.777  0.00  0.00     0.119 A 
ATOM      6  C   UNL d   1      56.311  49.685  50.571  0.00  0.00     0.048 A 
ATOM      7  O   UNL d   1      56.709  49.697  49.297  0.00  0.00    -0.303 OA
ATOM      8  C   UNL d   1      56.045  49.690  49.787  0.00  0.00     0.124 A 
ENDROOT
BRANCH   1   9
ATOM      9  C   UNL d   1      59.253  49.697  50.803  0.00  0.00     0.230 C 
ATOM     10  O   UNL d   1      59.861  49.694  50.249  0.00  0.00    -0.643 OA
ATOM     11  OXT UNL d   1      59.430  49.701  51.605  0.00  0.00    -0.643 OA
ENDBRANCH   1   9
TORSDOF 1
ENDMDL
MODEL 2
REMARK VINA RESULT:      11.1      0.872      1.283
REMARK  1 active torsions:
REMARK  status: ('A' for Active; 'I' for Inactive)
REMARK    1  A    between atoms: C_6  and  CA_1 
ROOT
ATOM      1  CA  UNL d   1      59.581  49.693  50.573  0.00  0.00     0.147 A 
ATOM      2  N   UNL d   1      59.031  49.686  51.180  0.00  0.00    -0.237 NA
ATOM      3  C   UNL d   1      59.177  49.704  49.853  0.00  0.00     0.052 A 
ATOM      4  C   UNL d   1      58.280  49.691  50.838  0.00  0.00     0.106 A 
ATOM      5  C   UNL d   1      58.370  49.702  50.020  0.00  0.00     0.119 A 
ATOM      6  C   UNL d   1      57.472  49.690  51.005  0.00  0.00     0.048 A 
ATOM      7  O   UNL d   1      57.619  49.708  49.678  0.00  0.00    -0.303 OA
ATOM      8  C   UNL d   1      57.060  49.700  50.286  0.00  0.00     0.124 A 
ENDROOT
BRANCH   1   9
ATOM      9  C   UNL d   1      60.404  49.691  50.667  0.00  0.00     0.230 C 
ATOM     10  O   UNL d   1      60.734  49.706  51.419  0.00  0.00    -0.643 OA
ATOM     11  OXT UNL d   1      60.893  49.674  50.005  0.00  0.00    -0.643 OA
ENDBRANCH   1   9
TORSDOF 1
ENDMDL
