MODEL 1
REMARK VINA RESULT:      -3.0      0.000      0.000
REMARK  1 active torsions:
REMARK  status: ('A' for Active; 'I' for Inactive)
REMARK    1  A    between atoms: C_10  and  N_2 
ROOT
ATOM      1  C   UNL d   1      32.898  21.975 -21.321  0.00  0.00     0.166 A 
ATOM      2  N   UNL d   1      32.815  22.780 -21.131  0.00  0.00    -0.291 N 
ATOM      3  C   UNL d   1      33.071  21.588 -20.615  0.00  0.00     0.117 A 
ATOM      4  C   UNL d   1      32.935  22.871 -20.332  0.00  0.00     0.067 A 
ATOM      5  N   UNL d   1      32.837  21.559 -22.041  0.00  0.00    -0.225 NA
ATOM      6  C   UNL d   1      33.095  22.128 -20.011  0.00  0.00     0.037 A 
ATOM      7  N   UNL d   1      33.183  20.765 -20.650  0.00  0.00    -0.241 NA
ATOM      8  C   UNL d   1      32.949  20.757 -22.056  0.00  0.00     0.101 A 
ATOM      9  C   UNL d   1      33.124  20.361 -21.346  0.00  0.00     0.099 A 
ATOM     10  C   UNL d   1      32.922  23.541 -19.842  0.00  0.00     0.018 A 
ATOM     11  C   UNL d   1      33.241  22.055 -19.199  0.00  0.00     0.003 A 
ATOM     12  C   UNL d   1      33.238  19.551 -21.355  0.00  0.00     0.021 A 
ATOM     13  C   UNL d   1      32.892  20.347 -22.747  0.00  0.00     0.021 A 
ATOM     14  C   UNL d   1      33.068  23.464 -19.029  0.00  0.00     0.002 A 
ATOM     15  C   UNL d   1      33.228  22.721 -18.707  0.00  0.00     0.000 A 
ATOM     16  C   UNL d   1      33.012  19.511 -22.747  0.00  0.00     0.002 A 
ATOM     17  C   UNL d   1      33.183  19.108 -22.064  0.00  0.00     0.002 A 
ENDROOT
BRANCH   2  18
ATOM     18  C   UNL d   1      32.643  23.371 -21.657  0.00  0.00     0.066 C 
ATOM     19  C   UNL d   1      31.855  23.677 -21.676  0.00  0.00     0.019 C 
ATOM     20  C   UNL d   1      33.230  23.657 -22.154  0.00  0.00     0.019 C 
ENDBRANCH   2  18
TORSDOF 1
ENDMDL
MODEL 2
REMARK VINA RESULT:      -2.7      1.154      2.454
REMARK  1 active torsions:
REMARK  status: ('A' for Active; 'I' for Inactive)
REMARK    1  A    between atoms: C_10  and  N_2 
ROOT
ATOM      1  C   UNL d   1      32.888  20.888 -22.071  0.00  0.00     0.166 A 
ATOM      2  N   UNL d   1      32.801  21.533 -21.554  0.00  0.00    -0.291 N 
ATOM      3  C   UNL d   1      33.067  21.205 -22.809  0.00  0.00     0.117 A 
ATOM      4  C   UNL d   1      32.925  22.219 -21.972  0.00  0.00     0.067 A 
ATOM      5  N   UNL d   1      32.825  20.064 -21.955  0.00  0.00    -0.225 NA
ATOM      6  C   UNL d   1      33.090  22.014 -22.754  0.00  0.00     0.037 A 
ATOM      7  N   UNL d   1      33.182  20.671 -23.435  0.00  0.00    -0.241 NA
ATOM      8  C   UNL d   1      32.942  19.559 -22.577  0.00  0.00     0.101 A 
ATOM      9  C   UNL d   1      33.122  19.874 -23.325  0.00  0.00     0.099 A 
ATOM     10  C   UNL d   1      32.910  23.017 -21.746  0.00  0.00     0.018 A 
ATOM     11  C   UNL d   1      33.241  22.609 -23.310  0.00  0.00     0.003 A 
ATOM     12  C   UNL d   1      33.241  19.369 -23.957  0.00  0.00     0.021 A 
ATOM     13  C   UNL d   1      32.884  18.762 -22.476  0.00  0.00     0.021 A 
ATOM     14  C   UNL d   1      33.062  23.610 -22.307  0.00  0.00     0.002 A 
ATOM     15  C   UNL d   1      33.227  23.406 -23.089  0.00  0.00     0.000 A 
ATOM     16  C   UNL d   1      33.007  18.247 -23.134  0.00  0.00     0.002 A 
ATOM     17  C   UNL d   1      33.185  18.537 -23.870  0.00  0.00     0.002 A 
ENDROOT
BRANCH   2  18
ATOM     18  C   UNL d   1      32.623  21.482 -20.766  0.00  0.00     0.066 C 
ATOM     19  C   UNL d   1      31.810  21.456 -20.536  0.00  0.00     0.019 C 
ATOM     20  C   UNL d   1      33.229  21.458 -20.213  0.00  0.00     0.019 C 
ENDBRANCH   2  18
TORSDOF 1
ENDMDL
MODEL 3
REMARK VINA RESULT:      -2.6      0.791      3.330
REMARK  1 active torsions:
REMARK  status: ('A' for Active; 'I' for Inactive)
REMARK    1  A    between atoms: C_10  and  N_2 
ROOT
ATOM      1  C   UNL d   1      32.801  22.555 -20.274  0.00  0.00     0.166 A 
ATOM      2  N   UNL d   1      32.694  22.491 -21.095  0.00  0.00    -0.291 N 
ATOM      3  C   UNL d   1      33.023  21.807 -20.011  0.00  0.00     0.117 A 
ATOM      4  C   UNL d   1      32.849  21.724 -21.318  0.00  0.00     0.067 A 
ATOM      5  N   UNL d   1      32.723  23.196 -19.746  0.00  0.00    -0.225 NA
ATOM      6  C   UNL d   1      33.054  21.298 -20.642  0.00  0.00     0.037 A 
ATOM      7  N   UNL d   1      33.166  21.716 -19.197  0.00  0.00    -0.241 NA
ATOM      8  C   UNL d   1      32.867  23.088 -18.956  0.00  0.00     0.101 A 
ATOM      9  C   UNL d   1      33.091  22.335 -18.685  0.00  0.00     0.099 A 
ATOM     10  C   UNL d   1      32.831  21.347 -22.057  0.00  0.00     0.018 A 
ATOM     11  C   UNL d   1      33.241  20.494 -20.705  0.00  0.00     0.003 A 
ATOM     12  C   UNL d   1      33.238  22.221 -17.888  0.00  0.00     0.021 A 
ATOM     13  C   UNL d   1      32.794  23.702 -18.439  0.00  0.00     0.021 A 
ATOM     14  C   UNL d   1      33.019  20.540 -22.116  0.00  0.00     0.002 A 
ATOM     15  C   UNL d   1      33.224  20.114 -21.440  0.00  0.00     0.000 A 
ATOM     16  C   UNL d   1      32.947  23.575 -17.618  0.00  0.00     0.002 A 
ATOM     17  C   UNL d   1      33.167  22.847 -17.336  0.00  0.00     0.002 A 
ENDROOT
BRANCH   2  18
ATOM     18  C   UNL d   1      32.474  23.094 -21.588  0.00  0.00     0.066 C 
ATOM     19  C   UNL d   1      33.069  23.471 -22.056  0.00  0.00     0.019 C 
ATOM     20  C   UNL d   1      31.687  23.323 -21.623  0.00  0.00     0.019 C 
ENDBRANCH   2  18
TORSDOF 1
ENDMDL
MODEL 4
REMARK VINA RESULT:      -2.3      4.613      6.345
REMARK  1 active torsions:
REMARK  status: ('A' for Active; 'I' for Inactive)
REMARK    1  A    between atoms: C_10  and  N_2 
ROOT
ATOM      1  C   UNL d   1      31.256  17.444 -24.225  0.00  0.00     0.166 A 
ATOM      2  N   UNL d   1      32.064  17.561 -24.071  0.00  0.00    -0.291 N 
ATOM      3  C   UNL d   1      31.068  16.702 -23.924  0.00  0.00     0.117 A 
ATOM      4  C   UNL d   1      32.352  16.905 -23.687  0.00  0.00     0.067 A 
ATOM      5  N   UNL d   1      30.681  17.920 -24.598  0.00  0.00    -0.225 NA
ATOM      6  C   UNL d   1      31.731  16.369 -23.595  0.00  0.00     0.037 A 
ATOM      7  N   UNL d   1      30.282  16.445 -24.006  0.00  0.00    -0.241 NA
ATOM      8  C   UNL d   1      29.920  17.653 -24.669  0.00  0.00     0.101 A 
ATOM      9  C   UNL d   1      29.725  16.904 -24.367  0.00  0.00     0.099 A 
ATOM     10  C   UNL d   1      33.109  16.716 -23.402  0.00  0.00     0.018 A 
ATOM     11  C   UNL d   1      31.867  15.645 -23.219  0.00  0.00     0.003 A 
ATOM     12  C   UNL d   1      28.957  16.629 -24.436  0.00  0.00     0.021 A 
ATOM     13  C   UNL d   1      29.358  18.106 -25.027  0.00  0.00     0.021 A 
ATOM     14  C   UNL d   1      33.241  15.988 -23.025  0.00  0.00     0.002 A 
ATOM     15  C   UNL d   1      32.620  15.453 -22.934  0.00  0.00     0.000 A 
ATOM     16  C   UNL d   1      28.568  17.815 -25.094  0.00  0.00     0.002 A 
ATOM     17  C   UNL d   1      28.360  17.086 -24.805  0.00  0.00     0.002 A 
ENDROOT
BRANCH   2  18
ATOM     18  C   UNL d   1      32.489  18.220 -24.271  0.00  0.00     0.066 C 
ATOM     19  C   UNL d   1      32.563  18.842 -23.702  0.00  0.00     0.019 C 
ATOM     20  C   UNL d   1      32.836  18.271 -25.012  0.00  0.00     0.019 C 
ENDBRANCH   2  18
TORSDOF 1
ENDMDL
MODEL 5
REMARK VINA RESULT:      -2.1      5.547      6.658
REMARK  1 active torsions:
REMARK  status: ('A' for Active; 'I' for Inactive)
REMARK    1  A    between atoms: C_10  and  N_2 
ROOT
ATOM      1  C   UNL d   1      31.492  16.526 -23.895  0.00  0.00     0.166 A 
ATOM      2  N   UNL d   1      32.318  16.600 -23.939  0.00  0.00    -0.291 N 
ATOM      3  C   UNL d   1      31.181  17.199 -24.254  0.00  0.00     0.117 A 
ATOM      4  C   UNL d   1      32.497  17.298 -24.315  0.00  0.00     0.067 A 
ATOM      5  N   UNL d   1      30.997  15.936 -23.576  0.00  0.00    -0.225 NA
ATOM      6  C   UNL d   1      31.788  17.672 -24.510  0.00  0.00     0.037 A 
ATOM      7  N   UNL d   1      30.353  17.266 -24.285  0.00  0.00    -0.241 NA
ATOM      8  C   UNL d   1      30.192  16.018 -23.616  0.00  0.00     0.101 A 
ATOM      9  C   UNL d   1      29.873  16.695 -23.976  0.00  0.00     0.099 A 
ATOM     10  C   UNL d   1      33.221  17.654 -24.509  0.00  0.00     0.018 A 
ATOM     11  C   UNL d   1      31.803  18.402 -24.901  0.00  0.00     0.003 A 
ATOM     12  C   UNL d   1      29.061  16.784 -24.019  0.00  0.00     0.021 A 
ATOM     13  C   UNL d   1      29.706  15.453 -23.310  0.00  0.00     0.021 A 
ATOM     14  C   UNL d   1      33.232  18.386 -24.901  0.00  0.00     0.002 A 
ATOM     15  C   UNL d   1      32.523  18.760 -25.097  0.00  0.00     0.000 A 
ATOM     16  C   UNL d   1      28.869  15.552 -23.358  0.00  0.00     0.002 A 
ATOM     17  C   UNL d   1      28.540  16.207 -23.707  0.00  0.00     0.002 A 
ENDROOT
BRANCH   2  18
ATOM     18  C   UNL d   1      32.853  16.062 -23.655  0.00  0.00     0.066 C 
ATOM     19  C   UNL d   1      33.128  16.149 -22.860  0.00  0.00     0.019 C 
ATOM     20  C   UNL d   1      33.113  15.453 -24.138  0.00  0.00     0.019 C 
ENDBRANCH   2  18
TORSDOF 1
ENDMDL
MODEL 6
REMARK VINA RESULT:      -2.0      1.880      4.668
REMARK  1 active torsions:
REMARK  status: ('A' for Active; 'I' for Inactive)
REMARK    1  A    between atoms: C_10  and  N_2 
ROOT
ATOM      1  C   UNL d   1      32.895  19.220 -23.217  0.00  0.00     0.166 A 
ATOM      2  N   UNL d   1      32.809  18.753 -23.899  0.00  0.00    -0.291 N 
ATOM      3  C   UNL d   1      33.063  18.700 -22.600  0.00  0.00     0.117 A 
ATOM      4  C   UNL d   1      32.921  17.974 -23.695  0.00  0.00     0.067 A 
ATOM      5  N   UNL d   1      32.842  20.042 -23.089  0.00  0.00    -0.225 NA
ATOM      6  C   UNL d   1      33.080  17.941 -22.886  0.00  0.00     0.037 A 
ATOM      7  N   UNL d   1      33.176  19.028 -21.845  0.00  0.00    -0.241 NA
ATOM      8  C   UNL d   1      32.956  20.344 -22.346  0.00  0.00     0.101 A 
ATOM      9  C   UNL d   1      33.125  19.824 -21.721  0.00  0.00     0.099 A 
ATOM     10  C   UNL d   1      32.902  17.275 -24.143  0.00  0.00     0.018 A 
ATOM     11  C   UNL d   1      33.218  17.209 -22.525  0.00  0.00     0.003 A 
ATOM     12  C   UNL d   1      33.241  20.123 -20.968  0.00  0.00     0.021 A 
ATOM     13  C   UNL d   1      32.906  21.137 -22.214  0.00  0.00     0.021 A 
ATOM     14  C   UNL d   1      33.041  16.543 -23.777  0.00  0.00     0.002 A 
ATOM     15  C   UNL d   1      33.199  16.510 -22.968  0.00  0.00     0.000 A 
ATOM     16  C   UNL d   1      33.027  21.438 -21.434  0.00  0.00     0.002 A 
ATOM     17  C   UNL d   1      33.193  20.945 -20.811  0.00  0.00     0.002 A 
ENDROOT
BRANCH   2  18
ATOM     18  C   UNL d   1      32.640  19.031 -24.640  0.00  0.00     0.066 C 
ATOM     19  C   UNL d   1      31.845  18.974 -24.921  0.00  0.00     0.019 C 
ATOM     20  C   UNL d   1      33.237  19.359 -25.097  0.00  0.00     0.019 C 
ENDBRANCH   2  18
TORSDOF 1
ENDMDL
MODEL 7
REMARK VINA RESULT:      -0.5      1.217      2.521
REMARK  1 active torsions:
REMARK  status: ('A' for Active; 'I' for Inactive)
REMARK    1  A    between atoms: C_10  and  N_2 
ROOT
ATOM      1  C   UNL d   1      32.858  22.593 -21.577  0.00  0.00     0.166 A 
ATOM      2  N   UNL d   1      32.757  22.561 -20.753  0.00  0.00    -0.291 N 
ATOM      3  C   UNL d   1      32.995  21.820 -21.824  0.00  0.00     0.117 A 
ATOM      4  C   UNL d   1      32.833  21.788 -20.512  0.00  0.00     0.067 A 
ATOM      5  N   UNL d   1      32.840  23.226 -22.120  0.00  0.00    -0.225 NA
ATOM      6  C   UNL d   1      32.981  21.326 -21.180  0.00  0.00     0.037 A 
ATOM      7  N   UNL d   1      33.115  21.695 -22.636  0.00  0.00    -0.241 NA
ATOM      8  C   UNL d   1      32.959  23.085 -22.908  0.00  0.00     0.101 A 
ATOM      9  C   UNL d   1      33.098  22.306 -23.163  0.00  0.00     0.099 A 
ATOM     10  C   UNL d   1      32.786  21.432 -19.764  0.00  0.00     0.018 A 
ATOM     11  C   UNL d   1      33.083  20.509 -21.098  0.00  0.00     0.003 A 
ATOM     12  C   UNL d   1      33.220  22.158 -23.958  0.00  0.00     0.021 A 
ATOM     13  C   UNL d   1      32.944  23.690 -23.441  0.00  0.00     0.021 A 
ATOM     14  C   UNL d   1      32.889  20.612 -19.686  0.00  0.00     0.002 A 
ATOM     15  C   UNL d   1      33.037  20.150 -20.354  0.00  0.00     0.000 A 
ATOM     16  C   UNL d   1      33.070  23.528 -24.260  0.00  0.00     0.002 A 
ATOM     17  C   UNL d   1      33.207  22.774 -24.526  0.00  0.00     0.002 A 
ENDROOT
BRANCH   2  18
ATOM     18  C   UNL d   1      32.609  23.196 -20.273  0.00  0.00     0.066 C 
ATOM     19  C   UNL d   1      31.809  23.355 -20.050  0.00  0.00     0.019 C 
ATOM     20  C   UNL d   1      33.231  23.665 -20.016  0.00  0.00     0.019 C 
ENDBRANCH   2  18
TORSDOF 1
ENDMDL
MODEL 8
REMARK VINA RESULT:      -0.2      1.116      1.713
REMARK  1 active torsions:
REMARK  status: ('A' for Active; 'I' for Inactive)
REMARK    1  A    between atoms: C_10  and  N_2 
ROOT
ATOM      1  C   UNL d   1      32.977  20.914 -22.597  0.00  0.00     0.166 A 
ATOM      2  N   UNL d   1      32.925  21.697 -22.325  0.00  0.00    -0.291 N 
ATOM      3  C   UNL d   1      33.103  20.446 -21.932  0.00  0.00     0.117 A 
ATOM      4  C   UNL d   1      33.018  21.698 -21.517  0.00  0.00     0.067 A 
ATOM      5  N   UNL d   1      32.925  20.580 -23.360  0.00  0.00    -0.225 NA
ATOM      6  C   UNL d   1      33.129  20.918 -21.272  0.00  0.00     0.037 A 
ATOM      7  N   UNL d   1      33.177  19.626 -22.051  0.00  0.00    -0.241 NA
ATOM      8  C   UNL d   1      32.999  19.779 -23.456  0.00  0.00     0.101 A 
ATOM      9  C   UNL d   1      33.126  19.302 -22.788  0.00  0.00     0.099 A 
ATOM     10  C   UNL d   1      33.017  22.312 -20.959  0.00  0.00     0.018 A 
ATOM     11  C   UNL d   1      33.239  20.752 -20.469  0.00  0.00     0.003 A 
ATOM     12  C   UNL d   1      33.202  18.493 -22.880  0.00  0.00     0.021 A 
ATOM     13  C   UNL d   1      32.950  19.448 -24.189  0.00  0.00     0.021 A 
ATOM     14  C   UNL d   1      33.128  22.141 -20.154  0.00  0.00     0.002 A 
ATOM     15  C   UNL d   1      33.239  21.361 -19.909  0.00  0.00     0.000 A 
ATOM     16  C   UNL d   1      33.029  18.612 -24.275  0.00  0.00     0.002 A 
ATOM     17  C   UNL d   1      33.153  18.131 -23.633  0.00  0.00     0.002 A 
ENDROOT
BRANCH   2  18
ATOM     18  C   UNL d   1      32.803  22.348 -22.790  0.00  0.00     0.066 C 
ATOM     19  C   UNL d   1      32.221  22.913 -22.548  0.00  0.00     0.019 C 
ATOM     20  C   UNL d   1      33.240  22.446 -23.477  0.00  0.00     0.019 C 
ENDBRANCH   2  18
TORSDOF 1
ENDMDL
