MODEL 1
REMARK VINA RESULT:      -2.5      0.000      0.000
REMARK  5 active torsions:
REMARK  status: ('A' for Active; 'I' for Inactive)
REMARK    1  A    between atoms: C_7  and  C_1 
REMARK       I    between atoms: C_3  and  N_8 
REMARK       I    between atoms: N_10  and  C_3 
REMARK    2  A    between atoms: N_8  and  C_6 
REMARK    3  A    between atoms: O_14  and  C_7 
REMARK    4  A    between atoms: C_13  and  N_10 
REMARK    5  A    between atoms: C_23  and  O_14 
ROOT
ATOM      1  C   UNL d   1      32.672  22.366 -21.742  0.00  0.00     0.083 A 
ATOM      2  N   UNL d   1      32.152  21.714 -20.588  0.00  0.00    -0.244 NA
ATOM      3  C   UNL d   1      32.250  22.391 -21.039  0.00  0.00     0.087 A 
ATOM      4  C   UNL d   1      33.000  21.664 -21.998  0.00  0.00     0.028 A 
ATOM      5  C   UNL d   1      32.907  20.974 -21.551  0.00  0.00     0.104 A 
ATOM      6  C   UNL d   1      32.485  20.998 -20.848  0.00  0.00     0.099 A 
ATOM      7  C   UNL d   1      31.916  23.106 -20.779  0.00  0.00     0.021 C 
ATOM      8  C   UNL d   1      32.390  20.309 -20.395  0.00  0.00     0.022 C 
ENDROOT
BRANCH   5   9
ATOM      9  N   UNL d   1      33.240  20.258 -21.811  0.00  0.00    -0.189 NA
ATOM     10  C   UNL d   1      32.881  19.827 -22.407  0.00  0.00     0.369 C 
ATOM     11  N   UNL d   1      33.204  19.116 -22.672  0.00  0.00    -0.191 NA
ATOM     12  O   UNL d   1      32.179  20.105 -22.755  0.00  0.00    -0.242 OA
BRANCH  11  13
ATOM     13  C   UNL d   1      32.845  18.689 -23.264  0.00  0.00     0.086 A 
ATOM     14  C   UNL d   1      32.963  18.902 -24.053  0.00  0.00     0.020 A 
ATOM     15  C   UNL d   1      32.595  18.463 -24.655  0.00  0.00     0.008 A 
ATOM     16  C   UNL d   1      32.114  17.820 -24.463  0.00  0.00     0.035 A 
ATOM     17  C   UNL d   1      31.997  17.608 -23.675  0.00  0.00     0.008 A 
ATOM     18 BR   UNL d   1      31.756  17.394 -25.056  0.00  0.00    -0.049 Br
ATOM     19  C   UNL d   1      32.361  18.041 -23.071  0.00  0.00     0.020 A 
ENDBRANCH  11  13
ENDBRANCH   5   9
BRANCH   1  20
ATOM     20  C   UNL d   1      32.765  23.049 -22.188  0.00  0.00     0.302 C 
ATOM     21  O   UNL d   1      33.127  23.700 -21.863  0.00  0.00    -0.259 OA
BRANCH  20  22
ATOM     22  O   UNL d   1      32.495  23.070 -22.953  0.00  0.00    -0.271 OA
BRANCH  22  23
ATOM     23  C   UNL d   1      32.912  23.488 -23.516  0.00  0.00     0.126 C 
ATOM     24  C   UNL d   1      32.614  23.561 -24.279  0.00  0.00     0.029 C 
ENDBRANCH  22  23
ENDBRANCH  20  22
ENDBRANCH   1  20
TORSDOF 5
ENDMDL
MODEL 2
REMARK VINA RESULT:      -2.3      2.345      5.479
REMARK  5 active torsions:
REMARK  status: ('A' for Active; 'I' for Inactive)
REMARK    1  A    between atoms: C_7  and  C_1 
REMARK       I    between atoms: C_3  and  N_8 
REMARK       I    between atoms: N_10  and  C_3 
REMARK    2  A    between atoms: N_8  and  C_6 
REMARK    3  A    between atoms: O_14  and  C_7 
REMARK    4  A    between atoms: C_13  and  N_10 
REMARK    5  A    between atoms: C_23  and  O_14 
ROOT
ATOM      1  C   UNL d   1      31.253  16.750 -23.860  0.00  0.00     0.083 A 
ATOM      2  N   UNL d   1      31.652  17.414 -25.054  0.00  0.00    -0.244 NA
ATOM      3  C   UNL d   1      31.171  16.876 -24.666  0.00  0.00     0.087 A 
ATOM      4  C   UNL d   1      31.816  17.161 -23.436  0.00  0.00     0.028 A 
ATOM      5  C   UNL d   1      32.308  17.707 -23.817  0.00  0.00     0.104 A 
ATOM      6  C   UNL d   1      32.226  17.833 -24.624  0.00  0.00     0.099 A 
ATOM      7  C   UNL d   1      30.597  16.457 -25.097  0.00  0.00     0.021 C 
ATOM      8  C   UNL d   1      32.717  18.380 -25.011  0.00  0.00     0.022 C 
ENDROOT
BRANCH   5   9
ATOM      9  N   UNL d   1      32.881  18.126 -23.387  0.00  0.00    -0.189 NA
ATOM     10  C   UNL d   1      32.679  18.807 -22.982  0.00  0.00     0.369 C 
ATOM     11  N   UNL d   1      33.241  19.230 -22.551  0.00  0.00    -0.191 NA
ATOM     12  O   UNL d   1      31.894  19.084 -23.000  0.00  0.00    -0.242 OA
BRANCH  11  13
ATOM     13  C   UNL d   1      33.037  19.907 -22.150  0.00  0.00     0.086 A 
ATOM     14  C   UNL d   1      32.827  19.865 -21.353  0.00  0.00     0.020 A 
ATOM     15  C   UNL d   1      32.619  20.559 -20.946  0.00  0.00     0.008 A 
ATOM     16  C   UNL d   1      32.623  21.285 -21.338  0.00  0.00     0.035 A 
ATOM     17  C   UNL d   1      32.833  21.327 -22.134  0.00  0.00     0.008 A 
ATOM     18 BR   UNL d   1      32.419  21.962 -20.936  0.00  0.00    -0.049 Br
ATOM     19  C   UNL d   1      33.041  20.640 -22.545  0.00  0.00     0.020 A 
ENDBRANCH  11  13
ENDBRANCH   5   9
BRANCH   1  20
ATOM     20  C   UNL d   1      30.766  16.208 -23.479  0.00  0.00     0.302 C 
ATOM     21  O   UNL d   1      31.071  15.499 -23.223  0.00  0.00    -0.259 OA
BRANCH  20  22
ATOM     22  O   UNL d   1      29.984  16.386 -23.358  0.00  0.00    -0.271 OA
BRANCH  22  23
ATOM     23  C   UNL d   1      29.491  15.825 -23.029  0.00  0.00     0.126 C 
ATOM     24  C   UNL d   1      28.742  16.041 -22.764  0.00  0.00     0.029 C 
ENDBRANCH  22  23
ENDBRANCH  20  22
ENDBRANCH   1  20
TORSDOF 5
ENDMDL
MODEL 3
REMARK VINA RESULT:      -2.0      3.182      5.463
REMARK  5 active torsions:
REMARK  status: ('A' for Active; 'I' for Inactive)
REMARK    1  A    between atoms: C_7  and  C_1 
REMARK       I    between atoms: C_3  and  N_8 
REMARK       I    between atoms: N_10  and  C_3 
REMARK    2  A    between atoms: N_8  and  C_6 
REMARK    3  A    between atoms: O_14  and  C_7 
REMARK    4  A    between atoms: C_13  and  N_10 
REMARK    5  A    between atoms: C_23  and  O_14 
ROOT
ATOM      1  C   UNL d   1      29.927  16.469 -23.998  0.00  0.00     0.083 A 
ATOM      2  N   UNL d   1      30.636  15.469 -23.274  0.00  0.00    -0.244 NA
ATOM      3  C   UNL d   1      29.929  15.801 -23.523  0.00  0.00     0.087 A 
ATOM      4  C   UNL d   1      30.633  16.811 -24.227  0.00  0.00     0.028 A 
ATOM      5  C   UNL d   1      31.352  16.484 -23.982  0.00  0.00     0.104 A 
ATOM      6  C   UNL d   1      31.354  15.815 -23.507  0.00  0.00     0.099 A 
ATOM      7  C   UNL d   1      29.211  15.454 -23.290  0.00  0.00     0.021 C 
ATOM      8  C   UNL d   1      32.074  15.484 -23.258  0.00  0.00     0.022 C 
ENDROOT
BRANCH   5   9
ATOM      9  N   UNL d   1      32.070  16.830 -24.215  0.00  0.00    -0.189 NA
ATOM     10  C   UNL d   1      32.165  17.643 -24.190  0.00  0.00     0.369 C 
ATOM     11  N   UNL d   1      32.874  17.997 -24.419  0.00  0.00    -0.191 NA
ATOM     12  O   UNL d   1      31.539  18.127 -23.931  0.00  0.00    -0.242 OA
BRANCH  11  13
ATOM     13  C   UNL d   1      32.965  18.805 -24.394  0.00  0.00     0.086 A 
ATOM     14  C   UNL d   1      33.102  19.180 -23.672  0.00  0.00     0.020 A 
ATOM     15  C   UNL d   1      33.194  20.006 -23.651  0.00  0.00     0.008 A 
ATOM     16  C   UNL d   1      33.149  20.445 -24.347  0.00  0.00     0.035 A 
ATOM     17  C   UNL d   1      33.013  20.069 -25.068  0.00  0.00     0.008 A 
ATOM     18 BR   UNL d   1      33.241  21.253 -24.322  0.00  0.00    -0.049 Br
ATOM     19  C   UNL d   1      32.920  19.248 -25.096  0.00  0.00     0.020 A 
ENDBRANCH  11  13
ENDBRANCH   5   9
BRANCH   1  20
ATOM     20  C   UNL d   1      29.215  16.796 -24.243  0.00  0.00     0.302 C 
ATOM     21  O   UNL d   1      28.874  16.550 -24.939  0.00  0.00    -0.259 OA
BRANCH  20  22
ATOM     22  O   UNL d   1      28.855  17.364 -23.789  0.00  0.00    -0.271 OA
BRANCH  22  23
ATOM     23  C   UNL d   1      28.306  17.863 -24.129  0.00  0.00     0.126 C 
ATOM     24  C   UNL d   1      28.063  18.540 -23.730  0.00  0.00     0.029 C 
ENDBRANCH  22  23
ENDBRANCH  20  22
ENDBRANCH   1  20
TORSDOF 5
ENDMDL
MODEL 4
REMARK VINA RESULT:      -1.5      2.663      5.536
REMARK  5 active torsions:
REMARK  status: ('A' for Active; 'I' for Inactive)
REMARK    1  A    between atoms: C_7  and  C_1 
REMARK       I    between atoms: C_3  and  N_8 
REMARK       I    between atoms: N_10  and  C_3 
REMARK    2  A    between atoms: N_8  and  C_6 
REMARK    3  A    between atoms: O_14  and  C_7 
REMARK    4  A    between atoms: C_13  and  N_10 
REMARK    5  A    between atoms: C_23  and  O_14 
ROOT
ATOM      1  C   UNL d   1      30.669  16.938 -24.696  0.00  0.00     0.083 A 
ATOM      2  N   UNL d   1      31.706  16.016 -25.013  0.00  0.00    -0.244 NA
ATOM      3  C   UNL d   1      30.911  16.186 -24.917  0.00  0.00     0.087 A 
ATOM      4  C   UNL d   1      31.222  17.525 -24.570  0.00  0.00     0.028 A 
ATOM      5  C   UNL d   1      32.029  17.364 -24.664  0.00  0.00     0.104 A 
ATOM      6  C   UNL d   1      32.270  16.612 -24.885  0.00  0.00     0.099 A 
ATOM      7  C   UNL d   1      30.347  15.589 -25.046  0.00  0.00     0.021 C 
ATOM      8  C   UNL d   1      33.078  16.446 -24.980  0.00  0.00     0.022 C 
ENDROOT
BRANCH   5   9
ATOM      9  N   UNL d   1      32.592  17.961 -24.535  0.00  0.00    -0.189 NA
ATOM     10  C   UNL d   1      32.589  18.390 -23.838  0.00  0.00     0.369 C 
ATOM     11  N   UNL d   1      33.144  18.984 -23.702  0.00  0.00    -0.191 NA
ATOM     12  O   UNL d   1      32.019  18.230 -23.254  0.00  0.00    -0.242 OA
BRANCH  11  13
ATOM     13  C   UNL d   1      33.139  19.410 -23.008  0.00  0.00     0.086 A 
ATOM     14  C   UNL d   1      33.220  19.019 -22.286  0.00  0.00     0.020 A 
ATOM     15  C   UNL d   1      33.214  19.457 -21.580  0.00  0.00     0.008 A 
ATOM     16  C   UNL d   1      33.127  20.277 -21.603  0.00  0.00     0.035 A 
ATOM     17  C   UNL d   1      33.045  20.667 -22.325  0.00  0.00     0.008 A 
ATOM     18 BR   UNL d   1      33.121  20.702 -20.909  0.00  0.00    -0.049 Br
ATOM     19  C   UNL d   1      33.050  20.237 -23.031  0.00  0.00     0.020 A 
ENDBRANCH  11  13
ENDBRANCH   5   9
BRANCH   1  20
ATOM     20  C   UNL d   1      29.870  17.101 -24.602  0.00  0.00     0.302 C 
ATOM     21  O   UNL d   1      29.503  17.631 -25.097  0.00  0.00    -0.259 OA
BRANCH  20  22
ATOM     22  O   UNL d   1      29.450  16.730 -24.015  0.00  0.00    -0.271 OA
BRANCH  22  23
ATOM     23  C   UNL d   1      28.773  17.080 -23.723  0.00  0.00     0.126 C 
ATOM     24  C   UNL d   1      28.281  16.660 -23.214  0.00  0.00     0.029 C 
ENDBRANCH  22  23
ENDBRANCH  20  22
ENDBRANCH   1  20
TORSDOF 5
ENDMDL
