MODEL 1
REMARK VINA RESULT:      -3.4      0.000      0.000
REMARK  7 active torsions:
REMARK  status: ('A' for Active; 'I' for Inactive)
REMARK    1  A    between atoms: N_2  and  S_1 
REMARK    2  A    between atoms: C_3  and  S_1 
REMARK    3  A    between atoms: C_9  and  N_2 
REMARK    4  A    between atoms: C_6  and  O_7 
REMARK    5  A    between atoms: O_7  and  C_14 
REMARK    6  A    between atoms: C_13  and  C_9 
REMARK    7  A    between atoms: O_17  and  C_10 
ROOT
ATOM      1  C   UNL d   1      33.229  20.029 -22.662  0.00  0.00     0.105 A 
ATOM      2  C   UNL d   1      33.219  19.343 -22.217  0.00  0.00     0.015 A 
ATOM      3  C   UNL d   1      33.239  19.987 -23.489  0.00  0.00     0.015 A 
ATOM      4  C   UNL d   1      33.229  18.573 -23.417  0.00  0.00     0.100 A 
ATOM      5  C   UNL d   1      33.219  18.615 -22.590  0.00  0.00     0.025 A 
ATOM      6  C   UNL d   1      33.239  19.260 -23.861  0.00  0.00     0.025 A 
ENDROOT
BRANCH   1   7
ATOM      7  S   UNL d   1      33.228  20.762 -22.276  0.00  0.00     0.285 S 
ATOM      8  O   UNL d   1      33.241  21.460 -22.717  0.00  0.00    -0.198 OA
ATOM      9  O   UNL d   1      33.215  20.791 -21.453  0.00  0.00    -0.198 OA
BRANCH   7  10
ATOM     10  N   UNL d   1      33.224  21.375 -21.719  0.00  0.00    -0.155 NA
BRANCH  10  11
ATOM     11  C   UNL d   1      32.505  21.597 -21.352  0.00  0.00     0.131 C 
BRANCH  11  12
ATOM     12  C   UNL d   1      32.490  22.259 -20.850  0.00  0.00     0.101 A 
ATOM     13  N   UNL d   1      32.877  22.227 -20.121  0.00  0.00    -0.242 NA
ATOM     14  C   UNL d   1      32.869  22.878 -19.616  0.00  0.00     0.099 A 
ATOM     15  C   UNL d   1      32.468  23.574 -19.843  0.00  0.00     0.021 A 
ATOM     16  C   UNL d   1      32.078  23.598 -20.583  0.00  0.00     0.003 A 
ATOM     17  C   UNL d   1      32.091  22.943 -21.082  0.00  0.00     0.021 A 
ENDBRANCH  11  12
ENDBRANCH  10  11
ENDBRANCH   7  10
ENDBRANCH   1   7
BRANCH   4  18
ATOM     18  O   UNL d   1      33.230  17.833 -23.794  0.00  0.00    -0.305 OA
BRANCH  18  19
ATOM     19  C   UNL d   1      32.516  17.463 -23.993  0.00  0.00     0.122 A 
ATOM     20  C   UNL d   1      32.515  16.675 -24.227  0.00  0.00     0.117 A 
ATOM     21  C   UNL d   1      31.803  16.308 -24.425  0.00  0.00     0.026 A 
ATOM     22  C   UNL d   1      31.100  16.728 -24.387  0.00  0.00     0.002 A 
ATOM     23  C   UNL d   1      31.102  17.520 -24.152  0.00  0.00     0.002 A 
ATOM     24  C   UNL d   1      31.814  17.887 -23.954  0.00  0.00     0.027 A 
BRANCH  20  25
ATOM     25  O   UNL d   1      33.222  16.263 -24.262  0.00  0.00    -0.326 OA
ATOM     26  C   UNL d   1      33.225  15.453 -24.335  0.00  0.00     0.181 C 
ENDBRANCH  20  25
ENDBRANCH  18  19
ENDBRANCH   4  18
TORSDOF 7
ENDMDL
