MODEL 1
REMARK VINA RESULT:      64.8      0.000      0.000
REMARK  6 active torsions:
REMARK  status: ('A' for Active; 'I' for Inactive)
REMARK    1  A    between atoms: C_21  and  N_1 
REMARK       I    between atoms: N_7  and  C_10 
REMARK    2  A    between atoms: C_15  and  N_8 
REMARK    3  A    between atoms: C_10  and  C_27 
REMARK    4  A    between atoms: C_29  and  C_21 
REMARK    5  A    between atoms: O_28  and  C_24 
REMARK    6  A    between atoms: C_27  and  C_29 
ROOT
ATOM      1  N   UNL d   1     -48.529  28.568  34.719  0.00  0.00    -0.269 N 
ATOM      2  N   UNL d   1     -48.228  30.166  34.571  0.00  0.00    -0.301 N 
ATOM      3  C   UNL d   1     -48.691  27.751  34.790  0.00  0.00     0.265 C 
ATOM      4  C   UNL d   1     -47.879  28.884  35.096  0.00  0.00     0.102 A 
ATOM      5  C   UNL d   1     -49.038  29.027  34.267  0.00  0.00     0.102 A 
ATOM      6  C   UNL d   1     -47.719  29.693  35.027  0.00  0.00     0.100 A 
ATOM      7  C   UNL d   1     -48.876  29.845  34.196  0.00  0.00     0.100 A 
ATOM      8  O   UNL d   1     -48.196  27.258  35.241  0.00  0.00    -0.267 OA
ENDROOT
BRANCH   3   9
ATOM      9  C   UNL d   1     -49.359  27.445  34.398  0.00  0.00     0.063 C 
BRANCH   9  10
ATOM     10  C   UNL d   1     -49.288  26.699  34.020  0.00  0.00     0.024 C 
BRANCH  10  11
ATOM     11  C   UNL d   1     -49.707  26.570  33.307  0.00  0.00     0.088 C 
BRANCH  11  12
ATOM     12  N   UNL d   1     -50.391  26.091  33.308  0.00  0.00    -0.224 N 
ATOM     13  C   UNL d   1     -50.328  25.257  33.309  0.00  0.00     0.276 A 
ATOM     14  C   UNL d   1     -51.013  24.798  33.310  0.00  0.00     0.104 A 
ATOM     15  O   UNL d   1     -49.594  24.909  33.310  0.00  0.00    -0.266 OA
ATOM     16  S   UNL d   1     -51.122  23.983  33.312  0.00  0.00    -0.080 SA
ATOM     17  C   UNL d   1     -51.760  25.153  33.310  0.00  0.00     0.097 A 
ATOM     18  C   UNL d   1     -51.919  23.847  33.312  0.00  0.00     0.037 A 
ATOM     19  C   UNL d   1     -52.324  24.560  33.311  0.00  0.00     0.027 A 
ATOM     20  N   UNL d   1     -51.822  25.975  33.308  0.00  0.00    -0.191 NA
ATOM     21  C   UNL d   1     -51.146  26.446  33.307  0.00  0.00     0.356 A 
ATOM     22  O   UNL d   1     -51.200  27.280  33.306  0.00  0.00    -0.244 OA
ENDBRANCH  11  12
ENDBRANCH  10  11
ENDBRANCH   9  10
ENDBRANCH   3   9
BRANCH   2  23
ATOM     23  C   UNL d   1     -48.079  30.976  34.492  0.00  0.00     0.064 A 
ATOM     24  C   UNL d   1     -47.481  31.352  34.917  0.00  0.00     0.020 A 
ATOM     25  C   UNL d   1     -47.344  32.151  34.832  0.00  0.00     0.026 A 
ATOM     26  C   UNL d   1     -47.804  32.600  34.316  0.00  0.00     0.094 A 
ATOM     27  C   UNL d   1     -48.407  32.223  33.888  0.00  0.00     0.026 A 
ATOM     28  C   UNL d   1     -48.547  31.414  33.974  0.00  0.00     0.020 A 
BRANCH  26  29
ATOM     29  O   UNL d   1     -47.688  33.413  34.209  0.00  0.00    -0.328 OA
ATOM     30  C   UNL d   1     -47.038  33.672  33.754  0.00  0.00     0.181 C 
ENDBRANCH  26  29
ENDBRANCH   2  23
TORSDOF 6
ENDMDL
