MODEL 1
REMARK VINA RESULT:      -7.8      0.000      0.000
REMARK  2 active torsions:
REMARK  status: ('A' for Active; 'I' for Inactive)
REMARK    1  A    between atoms: C_6  and  N_1 
REMARK    2  A    between atoms: C_7  and  C_6 
ROOT
ATOM      1  N   UNL d   1     -47.834  12.330  23.343  0.00  0.00    -0.287 N 
ATOM      2  N   UNL d   1     -46.549  12.045  23.655  0.00  0.00    -0.224 NA
ATOM      3  C   UNL d   1     -47.345  11.752  23.674  0.00  0.00     0.183 A 
ATOM      4  C   UNL d   1     -47.377  12.960  23.124  0.00  0.00     0.083 A 
ATOM      5  C   UNL d   1     -46.566  12.779  23.320  0.00  0.00     0.099 A 
ATOM      6  C   UNL d   1     -47.565  13.680  22.771  0.00  0.00     0.019 A 
ATOM      7  C   UNL d   1     -45.990  13.359  23.140  0.00  0.00     0.021 A 
ATOM      8  C   UNL d   1     -46.970  14.228  22.608  0.00  0.00     0.002 A 
ATOM      9  C   UNL d   1     -46.187  14.054  22.798  0.00  0.00     0.002 A 
ENDROOT
BRANCH   1  10
ATOM     10  C   UNL d   1     -48.358  12.839  23.039  0.00  0.00     0.082 C 
BRANCH  10  11
ATOM     11  C   UNL d   1     -49.152  12.618  23.009  0.00  0.00     0.018 A 
ATOM     12  C   UNL d   1     -49.608  12.621  23.697  0.00  0.00     0.002 A 
ATOM     13  C   UNL d   1     -50.406  12.399  23.670  0.00  0.00     0.000 A 
ATOM     14  C   UNL d   1     -50.745  12.174  22.953  0.00  0.00     0.000 A 
ATOM     15  C   UNL d   1     -50.286  12.171  22.262  0.00  0.00     0.000 A 
ATOM     16  C   UNL d   1     -49.491  12.393  22.292  0.00  0.00     0.002 A 
ENDBRANCH  10  11
ENDBRANCH   1  10
TORSDOF 2
ENDMDL
MODEL 2
REMARK VINA RESULT:      -7.7      1.442      2.046
REMARK  2 active torsions:
REMARK  status: ('A' for Active; 'I' for Inactive)
REMARK    1  A    between atoms: C_6  and  N_1 
REMARK    2  A    between atoms: C_7  and  C_6 
ROOT
ATOM      1  N   UNL d   1     -47.420  13.708  22.964  0.00  0.00    -0.287 N 
ATOM      2  N   UNL d   1     -46.122  13.390  23.173  0.00  0.00    -0.224 NA
ATOM      3  C   UNL d   1     -46.652  14.011  22.939  0.00  0.00     0.183 A 
ATOM      4  C   UNL d   1     -47.386  12.936  23.201  0.00  0.00     0.083 A 
ATOM      5  C   UNL d   1     -46.567  12.736  23.333  0.00  0.00     0.099 A 
ATOM      6  C   UNL d   1     -47.973  12.371  23.322  0.00  0.00     0.019 A 
ATOM      7  C   UNL d   1     -46.399  11.956  23.585  0.00  0.00     0.021 A 
ATOM      8  C   UNL d   1     -47.770  11.610  23.570  0.00  0.00     0.002 A 
ATOM      9  C   UNL d   1     -46.978  11.417  23.698  0.00  0.00     0.002 A 
ENDROOT
BRANCH   1  10
ATOM     10  C   UNL d   1     -48.179  13.484  22.966  0.00  0.00     0.082 C 
BRANCH  10  11
ATOM     11  C   UNL d   1     -48.755  14.040  22.770  0.00  0.00     0.018 A 
ATOM     12  C   UNL d   1     -48.988  14.607  23.323  0.00  0.00     0.002 A 
ATOM     13  C   UNL d   1     -49.567  15.167  23.128  0.00  0.00     0.000 A 
ATOM     14  C   UNL d   1     -49.912  15.156  22.378  0.00  0.00     0.000 A 
ATOM     15  C   UNL d   1     -49.677  14.586  21.823  0.00  0.00     0.000 A 
ATOM     16  C   UNL d   1     -49.100  14.030  22.020  0.00  0.00     0.002 A 
ENDBRANCH  10  11
ENDBRANCH   1  10
TORSDOF 2
ENDMDL
