MODEL 1
REMARK VINA RESULT:      57.2      0.000      0.000
REMARK  2 active torsions:
REMARK  status: ('A' for Active; 'I' for Inactive)
REMARK    1  A    between atoms: C_8  and  C_1 
REMARK    2  A    between atoms: N_5  and  C_8 
ROOT
ATOM      1  C   UNL d   1     -51.073  25.168  33.348  0.00  0.00     0.059 A 
ATOM      2  C   UNL d   1     -52.096  24.188  33.462  0.00  0.00     0.121 A 
ATOM      3  C   UNL d   1     -51.309  24.385  33.424  0.00  0.00     0.214 A 
ATOM      4  C   UNL d   1     -52.673  24.785  33.423  0.00  0.00     0.032 A 
ATOM      5  C   UNL d   1     -52.450  25.568  33.348  0.00  0.00     0.059 A 
ATOM      6  C   UNL d   1     -51.642  25.757  33.310  0.00  0.00     0.016 A 
ATOM      7  N   UNL d   1     -52.329  23.408  33.537  0.00  0.00    -0.241 NA
ATOM      8 CL   UNL d   1     -53.021  26.160  33.310  0.00  0.00    -0.082 Cl
ATOM      9  O   UNL d   1     -50.731  23.787  33.462  0.00  0.00    -0.285 OA
ATOM     10  C   UNL d   1     -53.461  24.582  33.462  0.00  0.00     0.004 A 
ATOM     11  C   UNL d   1     -53.123  23.205  33.575  0.00  0.00     0.099 A 
ATOM     12  C   UNL d   1     -53.691  23.794  33.538  0.00  0.00     0.021 A 
ENDROOT
BRANCH   1  13
ATOM     13  C   UNL d   1     -50.264  25.368  33.310  0.00  0.00     0.084 C 
BRANCH  13  14
ATOM     14  N   UNL d   1     -49.999  26.085  33.635  0.00  0.00    -0.302 N 
ATOM     15  C   UNL d   1     -50.244  26.790  33.310  0.00  0.00     0.080 A 
ATOM     16  C   UNL d   1     -49.978  27.508  33.636  0.00  0.00     0.018 A 
ATOM     17  C   UNL d   1     -50.225  28.223  33.309  0.00  0.00     0.002 A 
ATOM     18  C   UNL d   1     -49.465  27.499  34.286  0.00  0.00     0.003 A 
ATOM     19  C   UNL d   1     -49.957  28.945  33.636  0.00  0.00     0.000 A 
ATOM     20  C   UNL d   1     -49.447  28.938  34.284  0.00  0.00     0.000 A 
ATOM     21  C   UNL d   1     -49.204  28.227  34.605  0.00  0.00     0.000 A 
ATOM     22  C   UNL d   1     -49.227  26.792  34.601  0.00  0.00     0.019 A 
ATOM     23  C   UNL d   1     -49.487  26.067  34.285  0.00  0.00     0.080 A 
ENDBRANCH  13  14
ENDBRANCH   1  13
TORSDOF 2
ENDMDL
