MODEL 1
REMARK VINA RESULT:      -2.8      0.000      0.000
REMARK  3 active torsions:
REMARK  status: ('A' for Active; 'I' for Inactive)
REMARK    1  A    between atoms: C_2  and  N_1 
REMARK    2  A    between atoms: C_3  and  N_1 
REMARK    3  A    between atoms: C_7  and  C_3 
ROOT
ATOM      1  N   UNL d   1      30.499  16.872 -24.267  0.00  0.00    -0.184 N 
ATOM      2  O   UNL d   1      30.448  17.213 -25.021  0.00  0.00    -0.080 OA
ENDROOT
BRANCH   1   3
ATOM      3  C   UNL d   1      29.837  16.506 -23.939  0.00  0.00     0.090 A 
ATOM      4  C   UNL d   1      29.073  16.813 -24.060  0.00  0.00     0.018 A 
ATOM      5  C   UNL d   1      28.968  17.490 -24.512  0.00  0.00     0.002 C 
ATOM      6  C   UNL d   1      28.410  16.447 -23.733  0.00  0.00     0.002 A 
ATOM      7  C   UNL d   1      28.493  15.750 -23.265  0.00  0.00     0.000 A 
ATOM      8  C   UNL d   1      29.276  15.454 -23.153  0.00  0.00     0.002 A 
ATOM      9  C   UNL d   1      29.930  15.831 -23.487  0.00  0.00     0.020 A 
ENDBRANCH   1   3
BRANCH   1  10
ATOM     10  C   UNL d   1      31.205  16.902 -23.854  0.00  0.00     0.108 C 
BRANCH  10  11
ATOM     11  C   UNL d   1      31.872  17.260 -24.191  0.00  0.00     0.023 A 
ATOM     12  C   UNL d   1      32.357  16.845 -24.725  0.00  0.00     0.022 A 
ATOM     13  C   UNL d   1      33.017  17.192 -25.063  0.00  0.00     0.099 A 
ATOM     14  N   UNL d   1      33.208  17.972 -24.870  0.00  0.00    -0.242 NA
ATOM     15  C   UNL d   1      32.718  18.392 -24.330  0.00  0.00     0.099 A 
ATOM     16  C   UNL d   1      32.059  18.034 -23.998  0.00  0.00     0.022 A 
ENDBRANCH  10  11
ENDBRANCH   1  10
TORSDOF 3
ENDMDL
MODEL 2
REMARK VINA RESULT:      -2.7      4.713      6.166
REMARK  3 active torsions:
REMARK  status: ('A' for Active; 'I' for Inactive)
REMARK    1  A    between atoms: C_2  and  N_1 
REMARK    2  A    between atoms: C_3  and  N_1 
REMARK    3  A    between atoms: C_7  and  C_3 
ROOT
ATOM      1  N   UNL d   1      32.577  21.398 -21.234  0.00  0.00    -0.184 N 
ATOM      2  O   UNL d   1      31.840  21.045 -21.368  0.00  0.00    -0.080 OA
ENDROOT
BRANCH   1   3
ATOM      3  C   UNL d   1      32.636  22.031 -20.708  0.00  0.00     0.090 A 
ATOM      4  C   UNL d   1      32.396  22.796 -20.929  0.00  0.00     0.018 A 
ATOM      5  C   UNL d   1      32.095  22.933 -21.680  0.00  0.00     0.002 C 
ATOM      6  C   UNL d   1      32.454  23.429 -20.402  0.00  0.00     0.002 A 
ATOM      7  C   UNL d   1      32.760  23.314 -19.625  0.00  0.00     0.000 A 
ATOM      8  C   UNL d   1      32.998  22.529 -19.420  0.00  0.00     0.002 A 
ATOM      9  C   UNL d   1      32.934  21.905 -19.956  0.00  0.00     0.020 A 
ENDBRANCH   1   3
BRANCH   1  10
ATOM     10  C   UNL d   1      33.240  21.118 -21.623  0.00  0.00     0.108 C 
BRANCH  10  11
ATOM     11  C   UNL d   1      33.214  20.393 -22.024  0.00  0.00     0.023 A 
ATOM     12  C   UNL d   1      33.239  19.673 -21.607  0.00  0.00     0.022 A 
ATOM     13  C   UNL d   1      33.215  18.953 -21.995  0.00  0.00     0.099 A 
ATOM     14  N   UNL d   1      33.163  18.938 -22.819  0.00  0.00    -0.242 NA
ATOM     15  C   UNL d   1      33.137  19.666 -23.240  0.00  0.00     0.099 A 
ATOM     16  C   UNL d   1      33.163  20.382 -22.841  0.00  0.00     0.022 A 
ENDBRANCH  10  11
ENDBRANCH   1  10
TORSDOF 3
ENDMDL
MODEL 3
REMARK VINA RESULT:      -2.6      1.281      3.724
REMARK  3 active torsions:
REMARK  status: ('A' for Active; 'I' for Inactive)
REMARK    1  A    between atoms: C_2  and  N_1 
REMARK    2  A    between atoms: C_3  and  N_1 
REMARK    3  A    between atoms: C_7  and  C_3 
ROOT
ATOM      1  N   UNL d   1      31.041  16.449 -23.695  0.00  0.00    -0.184 N 
ATOM      2  O   UNL d   1      30.908  15.783 -23.219  0.00  0.00    -0.080 OA
ENDROOT
BRANCH   1   3
ATOM      3  C   UNL d   1      31.761  16.848 -23.644  0.00  0.00     0.090 A 
ATOM      4  C   UNL d   1      32.480  16.432 -23.594  0.00  0.00     0.018 A 
ATOM      5  C   UNL d   1      32.482  15.611 -23.595  0.00  0.00     0.002 C 
ATOM      6  C   UNL d   1      33.200  16.832 -23.543  0.00  0.00     0.002 A 
ATOM      7  C   UNL d   1      33.223  17.675 -23.541  0.00  0.00     0.000 A 
ATOM      8  C   UNL d   1      32.482  18.079 -23.592  0.00  0.00     0.002 A 
ATOM      9  C   UNL d   1      31.770  17.666 -23.642  0.00  0.00     0.020 A 
ENDBRANCH   1   3
BRANCH   1  10
ATOM     10  C   UNL d   1      30.459  16.704 -24.209  0.00  0.00     0.108 C 
BRANCH  10  11
ATOM     11  C   UNL d   1      29.707  16.354 -24.197  0.00  0.00     0.023 A 
ATOM     12  C   UNL d   1      29.150  16.558 -23.614  0.00  0.00     0.022 A 
ATOM     13  C   UNL d   1      28.406  16.218 -23.594  0.00  0.00     0.099 A 
ATOM     14  N   UNL d   1      28.201  15.659 -24.167  0.00  0.00    -0.242 NA
ATOM     15  C   UNL d   1      28.765  15.453 -24.757  0.00  0.00     0.099 A 
ATOM     16  C   UNL d   1      29.508  15.800 -24.767  0.00  0.00     0.022 A 
ENDBRANCH  10  11
ENDBRANCH   1  10
TORSDOF 3
ENDMDL
MODEL 4
REMARK VINA RESULT:      -2.0      1.500      3.708
REMARK  3 active torsions:
REMARK  status: ('A' for Active; 'I' for Inactive)
REMARK    1  A    between atoms: C_2  and  N_1 
REMARK    2  A    between atoms: C_3  and  N_1 
REMARK    3  A    between atoms: C_7  and  C_3 
ROOT
ATOM      1  N   UNL d   1      32.283  18.042 -23.997  0.00  0.00    -0.184 N 
ATOM      2  O   UNL d   1      32.210  18.049 -24.823  0.00  0.00    -0.080 OA
ENDROOT
BRANCH   1   3
ATOM      3  C   UNL d   1      32.599  18.699 -23.611  0.00  0.00     0.090 A 
ATOM      4  C   UNL d   1      32.896  19.347 -24.040  0.00  0.00     0.018 A 
ATOM      5  C   UNL d   1      32.878  19.341 -24.861  0.00  0.00     0.002 C 
ATOM      6  C   UNL d   1      33.212  20.004 -23.654  0.00  0.00     0.002 A 
ATOM      7  C   UNL d   1      33.241  20.034 -22.812  0.00  0.00     0.000 A 
ATOM      8  C   UNL d   1      32.934  19.366 -22.394  0.00  0.00     0.002 A 
ATOM      9  C   UNL d   1      32.622  18.715 -22.794  0.00  0.00     0.020 A 
ENDBRANCH   1   3
BRANCH   1  10
ATOM     10  C   UNL d   1      32.043  17.386 -23.573  0.00  0.00     0.108 C 
BRANCH  10  11
ATOM     11  C   UNL d   1      31.652  16.762 -23.953  0.00  0.00     0.023 A 
ATOM     12  C   UNL d   1      30.840  16.809 -24.129  0.00  0.00     0.022 A 
ATOM     13  C   UNL d   1      30.446  16.198 -24.504  0.00  0.00     0.099 A 
ATOM     14  N   UNL d   1      30.863  15.517 -24.715  0.00  0.00    -0.242 NA
ATOM     15  C   UNL d   1      31.684  15.469 -24.538  0.00  0.00     0.099 A 
ATOM     16  C   UNL d   1      32.068  16.088 -24.161  0.00  0.00     0.022 A 
ENDBRANCH  10  11
ENDBRANCH   1  10
TORSDOF 3
ENDMDL
MODEL 5
REMARK VINA RESULT:      -1.9      2.432      3.453
REMARK  3 active torsions:
REMARK  status: ('A' for Active; 'I' for Inactive)
REMARK    1  A    between atoms: C_2  and  N_1 
REMARK    2  A    between atoms: C_3  and  N_1 
REMARK    3  A    between atoms: C_7  and  C_3 
ROOT
ATOM      1  N   UNL d   1      32.565  18.370 -23.389  0.00  0.00    -0.184 N 
ATOM      2  O   UNL d   1      31.828  18.648 -23.132  0.00  0.00    -0.080 OA
ENDROOT
BRANCH   1   3
ATOM      3  C   UNL d   1      32.629  17.604 -23.688  0.00  0.00     0.090 A 
ATOM      4  C   UNL d   1      32.194  17.366 -24.356  0.00  0.00     0.018 A 
ATOM      5  C   UNL d   1      31.691  17.897 -24.730  0.00  0.00     0.002 C 
ATOM      6  C   UNL d   1      32.258  16.600 -24.656  0.00  0.00     0.002 A 
ATOM      7  C   UNL d   1      32.768  16.038 -24.289  0.00  0.00     0.000 A 
ATOM      8  C   UNL d   1      33.201  16.298 -23.612  0.00  0.00     0.002 A 
ATOM      9  C   UNL d   1      33.128  17.068 -23.323  0.00  0.00     0.020 A 
ENDBRANCH   1   3
BRANCH   1  10
ATOM     10  C   UNL d   1      33.222  18.855 -23.344  0.00  0.00     0.108 C 
BRANCH  10  11
ATOM     11  C   UNL d   1      33.200  19.548 -22.890  0.00  0.00     0.023 A 
ATOM     12  C   UNL d   1      33.140  19.513 -22.060  0.00  0.00     0.022 A 
ATOM     13  C   UNL d   1      33.118  20.192 -21.604  0.00  0.00     0.099 A 
ATOM     14  N   UNL d   1      33.155  20.930 -21.973  0.00  0.00    -0.242 NA
ATOM     15  C   UNL d   1      33.216  20.965 -22.812  0.00  0.00     0.099 A 
ATOM     16  C   UNL d   1      33.237  20.278 -23.259  0.00  0.00     0.022 A 
ENDBRANCH  10  11
ENDBRANCH   1  10
TORSDOF 3
ENDMDL
MODEL 6
REMARK VINA RESULT:      -1.9      5.694      7.020
REMARK  3 active torsions:
REMARK  status: ('A' for Active; 'I' for Inactive)
REMARK    1  A    between atoms: C_2  and  N_1 
REMARK    2  A    between atoms: C_3  and  N_1 
REMARK    3  A    between atoms: C_7  and  C_3 
ROOT
ATOM      1  N   UNL d   1      32.634  21.772 -20.687  0.00  0.00    -0.184 N 
ATOM      2  O   UNL d   1      31.851  21.803 -20.416  0.00  0.00    -0.080 OA
ENDROOT
BRANCH   1   3
ATOM      3  C   UNL d   1      32.833  21.252 -21.296  0.00  0.00     0.090 A 
ATOM      4  C   UNL d   1      32.952  21.528 -22.072  0.00  0.00     0.018 A 
ATOM      5  C   UNL d   1      32.872  22.326 -22.243  0.00  0.00     0.002 C 
ATOM      6  C   UNL d   1      33.151  21.008 -22.682  0.00  0.00     0.002 A 
ATOM      7  C   UNL d   1      33.239  20.183 -22.531  0.00  0.00     0.000 A 
ATOM      8  C   UNL d   1      33.114  19.924 -21.736  0.00  0.00     0.002 A 
ATOM      9  C   UNL d   1      32.915  20.455 -21.136  0.00  0.00     0.020 A 
ENDBRANCH   1   3
BRANCH   1  10
ATOM     10  C   UNL d   1      33.201  22.254 -20.349  0.00  0.00     0.108 C 
BRANCH  10  11
ATOM     11  C   UNL d   1      33.078  22.582 -19.597  0.00  0.00     0.023 A 
ATOM     12  C   UNL d   1      32.792  23.359 -19.512  0.00  0.00     0.022 A 
ATOM     13  C   UNL d   1      32.668  23.690 -18.774  0.00  0.00     0.099 A 
ATOM     14  N   UNL d   1      32.829  23.245 -18.097  0.00  0.00    -0.242 NA
ATOM     15  C   UNL d   1      33.119  22.460 -18.184  0.00  0.00     0.099 A 
ATOM     16  C   UNL d   1      33.240  22.138 -18.929  0.00  0.00     0.022 A 
ENDBRANCH  10  11
ENDBRANCH   1  10
TORSDOF 3
ENDMDL
