MODEL 1
REMARK VINA RESULT:       5.2      0.000      0.000
REMARK  4 active torsions:
REMARK  status: ('A' for Active; 'I' for Inactive)
REMARK    1  A    between atoms: C_2  and  C_1 
REMARK    2  A    between atoms: C_3  and  C_1 
REMARK    3  A    between atoms: C_9  and  C_1 
REMARK    4  A    between atoms: N_4  and  C_10 
ROOT
ATOM      1  C   UNL d   1      32.019  18.294 -23.814  0.00  0.00     0.012 C 
ENDROOT
BRANCH   1   2
ATOM      2  C   UNL d   1      32.330  17.537 -23.683  0.00  0.00     0.077 A 
ATOM      3  C   UNL d   1      32.581  17.077 -24.323  0.00  0.00     0.195 A 
ATOM      4  C   UNL d   1      32.892  16.322 -24.195  0.00  0.00     0.019 A 
ATOM      5  O   UNL d   1      32.519  17.378 -25.095  0.00  0.00    -0.287 OA
ATOM      6  C   UNL d   1      32.953  16.024 -23.419  0.00  0.00     0.043 A 
ATOM      7  C   UNL d   1      32.700  16.490 -22.787  0.00  0.00     0.019 A 
ATOM      8  C   UNL d   1      33.105  15.538 -22.780  0.00  0.00     0.009 C 
ATOM      9  C   UNL d   1      33.240  15.454 -23.935  0.00  0.00     0.009 C 
ATOM     10  C   UNL d   1      32.389  17.242 -22.906  0.00  0.00     0.195 A 
ATOM     11  O   UNL d   1      32.138  17.702 -22.257  0.00  0.00    -0.287 OA
ENDBRANCH   1   2
BRANCH   1  12
ATOM     12  C   UNL d   1      32.323  19.050 -23.696  0.00  0.00     0.077 A 
ATOM     13  C   UNL d   1      32.585  19.500 -24.333  0.00  0.00     0.195 A 
ATOM     14  C   UNL d   1      32.889  20.248 -24.232  0.00  0.00     0.019 A 
ATOM     15  O   UNL d   1      32.538  19.185 -25.089  0.00  0.00    -0.287 OA
ATOM     16  C   UNL d   1      32.933  20.560 -23.466  0.00  0.00     0.043 A 
ATOM     17  C   UNL d   1      32.675  20.125 -22.807  0.00  0.00     0.019 A 
ATOM     18  C   UNL d   1      33.239  21.162 -23.927  0.00  0.00     0.009 C 
ATOM     19  C   UNL d   1      33.052  21.027 -22.782  0.00  0.00     0.009 C 
ATOM     20  C   UNL d   1      32.368  19.361 -22.933  0.00  0.00     0.195 A 
ATOM     21  O   UNL d   1      32.113  18.931 -22.272  0.00  0.00    -0.287 OA
ENDBRANCH   1  12
BRANCH   1  22
ATOM     22  C   UNL d   1      31.259  18.322 -24.120  0.00  0.00     0.002 A 
ATOM     23  C   UNL d   1      30.652  17.900 -23.739  0.00  0.00     0.024 A 
ATOM     24  C   UNL d   1      29.892  17.927 -24.045  0.00  0.00     0.127 A 
ATOM     25  C   UNL d   1      29.740  18.377 -24.732  0.00  0.00     0.024 A 
ATOM     26  C   UNL d   1      30.335  18.785 -25.097  0.00  0.00     0.002 A 
ATOM     27  C   UNL d   1      31.105  18.757 -24.786  0.00  0.00     0.000 A 
BRANCH  24  28
ATOM     28  N   UNL d   1      29.289  17.501 -23.658  0.00  0.00    -0.114 N 
ATOM     29  O   UNL d   1      29.415  16.735 -23.408  0.00  0.00    -0.532 OA
ATOM     30  O   UNL d   1      28.545  17.848 -23.517  0.00  0.00    -0.532 OA
ENDBRANCH  24  28
ENDBRANCH   1  22
TORSDOF 4
ENDMDL
