MODEL 1
REMARK VINA RESULT:      87.1      0.000      0.000
REMARK  7 active torsions:
REMARK  status: ('A' for Active; 'I' for Inactive)
REMARK    1  A    between atoms: C_3  and  N_1 
REMARK       I    between atoms: C_2  and  N_4 
REMARK    2  A    between atoms: C_11  and  C_2 
REMARK    3  A    between atoms: N_4  and  C_12 
REMARK    4  A    between atoms: O_5  and  C_11 
REMARK    5  A    between atoms: C_6  and  O_5 
REMARK    6  A    between atoms: O_15  and  C_8 
REMARK    7  A    between atoms: C_20  and  O_15 
ROOT
ATOM      1  C   UNL d   1      61.319  47.539  49.595  0.00  0.00     0.353 C 
ATOM      2  N   UNL d   1      61.499  46.753  49.759  0.00  0.00    -0.363 NA
ATOM      3  O   UNL d   1      61.063  47.756  48.841  0.00  0.00    -0.249 OA
ENDROOT
BRANCH   1   4
ATOM      4  C   UNL d   1      61.391  48.114  50.180  0.00  0.00     0.199 C 
BRANCH   4   5
ATOM      5  O   UNL d   1      60.784  48.665  50.303  0.00  0.00    -0.297 OA
BRANCH   5   6
ATOM      6  C   UNL d   1      60.679  49.012  51.042  0.00  0.00     0.123 A 
ATOM      7  C   UNL d   1      59.916  49.225  51.298  0.00  0.00     0.123 A 
ATOM      8  C   UNL d   1      59.809  49.572  52.037  0.00  0.00     0.027 A 
ATOM      9  C   UNL d   1      60.460  49.708  52.523  0.00  0.00     0.002 A 
ATOM     10  C   UNL d   1      61.216  49.497  52.270  0.00  0.00     0.002 A 
ATOM     11  C   UNL d   1      61.329  49.147  51.528  0.00  0.00     0.027 A 
BRANCH   7  12
ATOM     12  O   UNL d   1      59.261  49.087  50.804  0.00  0.00    -0.303 OA
BRANCH  12  13
ATOM     13  C   UNL d   1      58.753  49.708  50.614  0.00  0.00     0.123 C 
ATOM     14  C   UNL d   1      57.937  49.601  50.658  0.00  0.00     0.029 C 
ENDBRANCH  12  13
ENDBRANCH   7  12
ENDBRANCH   5   6
ENDBRANCH   4   5
ENDBRANCH   1   4
BRANCH   2  15
ATOM     15  C   UNL d   1      61.682  45.969  49.931  0.00  0.00     0.135 A 
ATOM     16  C   UNL d   1      62.207  45.549  49.459  0.00  0.00     0.034 A 
ATOM     17  C   UNL d   1      62.389  44.765  49.631  0.00  0.00     0.020 A 
ATOM     18  C   UNL d   1      62.043  44.392  50.284  0.00  0.00     0.064 A 
ATOM     19  C   UNL d   1      61.515  44.808  50.762  0.00  0.00     0.020 A 
ATOM     20  C   UNL d   1      61.327  45.600  50.593  0.00  0.00     0.034 A 
BRANCH  18  21
ATOM     21  N   UNL d   1      62.226  43.609  50.456  0.00  0.00    -0.304 N 
ATOM     22  C   UNL d   1      62.112  43.319  51.221  0.00  0.00     0.080 A 
ATOM     23  C   UNL d   1      62.292  42.543  51.395  0.00  0.00     0.019 A 
ATOM     24  C   UNL d   1      62.589  42.042  50.805  0.00  0.00     0.003 A 
ATOM     25  C   UNL d   1      62.703  42.332  50.041  0.00  0.00     0.019 A 
ATOM     26  C   UNL d   1      62.522  43.120  49.857  0.00  0.00     0.080 A 
ENDBRANCH  18  21
ENDBRANCH   2  15
TORSDOF 7
ENDMDL
