MODEL 1
REMARK VINA RESULT:      36.6      0.000      0.000
REMARK  7 active torsions:
REMARK  status: ('A' for Active; 'I' for Inactive)
REMARK    1  A    between atoms: N_4  and  C_2 
REMARK    2  A    between atoms: S_9  and  C_3 
REMARK    3  A    between atoms: C_8  and  C_13 
REMARK    4  A    between atoms: O_11  and  C_8 
REMARK    5  A    between atoms: C_13  and  S_9 
REMARK    6  A    between atoms: C_14  and  O_11 
REMARK    7  A    between atoms: C_17  and  C_14 
ROOT
ATOM      1  N   UNL d   1     -57.436 -98.821 -43.704  0.00  0.00    -0.203 NA
ATOM      2  C   UNL d   1     -58.259 -98.831 -43.735  0.00  0.00     0.152 A 
ATOM      3  C   UNL d   1     -56.995 -98.825 -44.405  0.00  0.00     0.196 A 
ATOM      4  C   UNL d   1     -58.642 -98.845 -44.463  0.00  0.00     0.057 A 
ATOM      5  N   UNL d   1     -57.378 -98.839 -45.135  0.00  0.00    -0.221 NA
ATOM      6  C   UNL d   1     -58.201 -98.849 -45.164  0.00  0.00     0.087 A 
ATOM      7  C   UNL d   1     -58.587 -98.863 -45.896  0.00  0.00     0.021 C 
ENDROOT
BRANCH   3   8
ATOM      8  S   UNL d   1     -56.165 -98.815 -44.371  0.00  0.00    -0.043 SA
BRANCH   8   9
ATOM      9  C   UNL d   1     -55.724 -98.959 -45.053  0.00  0.00     0.107 C 
BRANCH   9  10
ATOM     10  C   UNL d   1     -55.090 -99.485 -45.026  0.00  0.00     0.307 C 
ATOM     11  O   UNL d   1     -54.790 -99.813 -45.717  0.00  0.00    -0.258 OA
BRANCH  10  12
ATOM     12  O   UNL d   1     -54.753 -99.683 -44.295  0.00  0.00    -0.271 OA
BRANCH  12  13
ATOM     13  C   UNL d   1     -55.028-100.338 -43.877  0.00  0.00     0.126 C 
BRANCH  13  14
ATOM     14  C   UNL d   1     -54.977-101.092 -44.209  0.00  0.00     0.025 A 
ATOM     15  C   UNL d   1     -55.140-101.757 -43.737  0.00  0.00     0.002 A 
ATOM     16  C   UNL d   1     -55.089-102.511 -44.069  0.00  0.00     0.000 A 
ATOM     17  C   UNL d   1     -54.876-102.594 -44.871  0.00  0.00     0.000 A 
ATOM     18  C   UNL d   1     -54.717-101.923 -45.326  0.00  0.00     0.000 A 
ATOM     19  C   UNL d   1     -54.767-101.177 -44.998  0.00  0.00     0.002 A 
ENDBRANCH  13  14
ENDBRANCH  12  13
ENDBRANCH  10  12
ENDBRANCH   9  10
ENDBRANCH   8   9
ENDBRANCH   3   8
BRANCH   2  20
ATOM     20  N   UNL d   1     -58.703 -98.828 -43.038  0.00  0.00    -0.285 N 
ATOM     21  C   UNL d   1     -58.317 -98.770 -42.309  0.00  0.00     0.108 A 
ATOM     22  C   UNL d   1     -58.754 -98.766 -41.614  0.00  0.00     0.142 A 
ATOM     23  O   UNL d   1     -59.575 -98.819 -41.644  0.00  0.00    -0.300 OA
ATOM     24  C   UNL d   1     -59.960 -98.877 -42.372  0.00  0.00     0.142 A 
ATOM     25  C   UNL d   1     -59.521 -98.881 -43.070  0.00  0.00     0.108 A 
ENDBRANCH   2  20
TORSDOF 7
ENDMDL
MODEL 2
REMARK VINA RESULT:      37.5      1.982      4.169
REMARK  7 active torsions:
REMARK  status: ('A' for Active; 'I' for Inactive)
REMARK    1  A    between atoms: N_4  and  C_2 
REMARK    2  A    between atoms: S_9  and  C_3 
REMARK    3  A    between atoms: C_8  and  C_13 
REMARK    4  A    between atoms: O_11  and  C_8 
REMARK    5  A    between atoms: C_13  and  S_9 
REMARK    6  A    between atoms: C_14  and  O_11 
REMARK    7  A    between atoms: C_17  and  C_14 
ROOT
ATOM      1  N   UNL d   1     -54.971-100.775 -43.037  0.00  0.00    -0.203 NA
ATOM      2  C   UNL d   1     -55.183-101.564 -42.936  0.00  0.00     0.152 A 
ATOM      3  C   UNL d   1     -54.928-100.452 -43.800  0.00  0.00     0.196 A 
ATOM      4  C   UNL d   1     -55.352-102.032 -43.591  0.00  0.00     0.057 A 
ATOM      5  N   UNL d   1     -55.097-100.920 -44.457  0.00  0.00    -0.221 NA
ATOM      6  C   UNL d   1     -55.309-101.709 -44.353  0.00  0.00     0.087 A 
ATOM      7  C   UNL d   1     -55.479-102.180 -45.012  0.00  0.00     0.021 C 
ENDROOT
BRANCH   3   8
ATOM      8  S   UNL d   1     -54.713 -99.656 -43.900  0.00  0.00    -0.043 SA
BRANCH   8   9
ATOM      9  C   UNL d   1     -55.298 -99.075 -43.936  0.00  0.00     0.107 C 
BRANCH   9  10
ATOM     10  C   UNL d   1     -55.642 -98.887 -44.661  0.00  0.00     0.307 C 
ATOM     11  O   UNL d   1     -55.181 -98.829 -45.339  0.00  0.00    -0.258 OA
BRANCH  10  12
ATOM     12  O   UNL d   1     -56.459 -98.755 -44.706  0.00  0.00    -0.271 OA
BRANCH  12  13
ATOM     13  C   UNL d   1     -56.985 -99.340 -44.462  0.00  0.00     0.126 C 
BRANCH  13  14
ATOM     14  C   UNL d   1     -57.796 -99.186 -44.442  0.00  0.00     0.025 A 
ATOM     15  C   UNL d   1     -58.201 -99.043 -45.154  0.00  0.00     0.002 A 
ATOM     16  C   UNL d   1     -59.011 -98.888 -45.135  0.00  0.00     0.000 A 
ATOM     17  C   UNL d   1     -59.411 -98.877 -44.403  0.00  0.00     0.000 A 
ATOM     18  C   UNL d   1     -58.994 -99.021 -43.704  0.00  0.00     0.000 A 
ATOM     19  C   UNL d   1     -58.191 -99.174 -43.723  0.00  0.00     0.002 A 
ENDBRANCH  13  14
ENDBRANCH  12  13
ENDBRANCH  10  12
ENDBRANCH   9  10
ENDBRANCH   8   9
ENDBRANCH   3   8
BRANCH   2  20
ATOM     20  N   UNL d   1     -55.227-101.889 -42.177  0.00  0.00    -0.285 N 
ATOM     21  C   UNL d   1     -55.794-102.469 -42.014  0.00  0.00     0.108 A 
ATOM     22  C   UNL d   1     -55.841-102.794 -41.262  0.00  0.00     0.142 A 
ATOM     23  O   UNL d   1     -55.324-102.544 -40.671  0.00  0.00    -0.300 OA
ATOM     24  C   UNL d   1     -54.758-101.965 -40.835  0.00  0.00     0.142 A 
ATOM     25  C   UNL d   1     -54.711-101.638 -41.591  0.00  0.00     0.108 A 
ENDBRANCH   2  20
TORSDOF 7
ENDMDL
