MODEL 1
REMARK VINA RESULT:      -5.0      0.000      0.000
REMARK  5 active torsions:
REMARK  status: ('A' for Active; 'I' for Inactive)
REMARK    1  A    between atoms: N_2  and  C_7 
REMARK    2  A    between atoms: N_11  and  C_3 
REMARK    3  A    between atoms: C_9  and  C_4 
REMARK    4  A    between atoms: C_18  and  N_11 
REMARK    5  A    between atoms: C_16  and  C_18 
ROOT
ATOM      1  N   UNL d   1      57.653  -0.649  30.472  0.00  0.00    -0.222 NA
ATOM      2  C   UNL d   1      58.225  -0.427  29.925  0.00  0.00     0.172 A 
ATOM      3  C   UNL d   1      57.548  -0.015  31.004  0.00  0.00     0.090 A 
ATOM      4  S   UNL d   1      58.473   0.327  30.109  0.00  0.00    -0.048 SA
ATOM      5  C   UNL d   1      58.060   0.579  30.768  0.00  0.00     0.057 A 
ENDROOT
BRANCH   3   6
ATOM      6  C   UNL d   1      57.010  -0.027  31.645  0.00  0.00     0.018 A 
ATOM      7  C   UNL d   1      56.768  -0.754  31.952  0.00  0.00     0.003 A 
ATOM      8  C   UNL d   1      56.237  -0.766  32.583  0.00  0.00     0.024 A 
ATOM      9  C   UNL d   1      55.963  -0.051  32.891  0.00  0.00     0.127 A 
ATOM     10  C   UNL d   1      56.198   0.670  32.593  0.00  0.00     0.024 A 
ATOM     11  C   UNL d   1      56.736   0.682  31.952  0.00  0.00     0.003 A 
BRANCH   9  12
ATOM     12  N   UNL d   1      55.436  -0.063  33.518  0.00  0.00    -0.114 N 
ATOM     13  O   UNL d   1      54.695  -0.425  33.436  0.00  0.00    -0.532 OA
ATOM     14  O   UNL d   1      55.630   0.281  34.235  0.00  0.00    -0.532 OA
ENDBRANCH   9  12
ENDBRANCH   3   6
BRANCH   2  15
ATOM     15  N   UNL d   1      58.511  -0.869  29.298  0.00  0.00    -0.332 N 
ATOM     16  H   UNL d   1      58.495  -0.553  28.528  0.00  0.00     0.168 HD
BRANCH  15  17
ATOM     17  C   UNL d   1      58.817  -1.633  29.425  0.00  0.00     0.074 C 
BRANCH  17  18
ATOM     18  C   UNL d   1      59.076  -2.085  28.805  0.00  0.00     0.018 C 
ATOM     19  C   UNL d   1      59.229  -2.912  28.904  0.00  0.00     0.002 C 
ENDBRANCH  17  18
ENDBRANCH  15  17
ENDBRANCH   2  15
TORSDOF 5
ENDMDL
MODEL 2
REMARK VINA RESULT:      -3.6      2.678      4.656
REMARK  5 active torsions:
REMARK  status: ('A' for Active; 'I' for Inactive)
REMARK    1  A    between atoms: N_2  and  C_7 
REMARK    2  A    between atoms: N_11  and  C_3 
REMARK    3  A    between atoms: C_9  and  C_4 
REMARK    4  A    between atoms: C_18  and  N_11 
REMARK    5  A    between atoms: C_16  and  C_18 
ROOT
ATOM      1  N   UNL d   1      56.803   0.621  32.031  0.00  0.00    -0.222 NA
ATOM      2  C   UNL d   1      56.239   0.288  32.529  0.00  0.00     0.172 A 
ATOM      3  C   UNL d   1      57.186  -0.000  31.628  0.00  0.00     0.090 A 
ATOM      4  S   UNL d   1      56.269  -0.521  32.440  0.00  0.00    -0.048 SA
ATOM      5  C   UNL d   1      56.847  -0.698  31.889  0.00  0.00     0.057 A 
ENDROOT
BRANCH   3   6
ATOM      6  C   UNL d   1      57.799   0.114  31.068  0.00  0.00     0.018 A 
ATOM      7  C   UNL d   1      57.729  -0.231  30.322  0.00  0.00     0.003 A 
ATOM      8  C   UNL d   1      58.333  -0.118  29.771  0.00  0.00     0.024 A 
ATOM      9  C   UNL d   1      58.989   0.336  29.981  0.00  0.00     0.127 A 
ATOM     10  C   UNL d   1      59.063   0.679  30.715  0.00  0.00     0.024 A 
ATOM     11  C   UNL d   1      58.451   0.565  31.275  0.00  0.00     0.003 A 
BRANCH   9  12
ATOM     12  N   UNL d   1      59.588   0.448  29.433  0.00  0.00    -0.114 N 
ATOM     13  O   UNL d   1      60.357   0.627  29.685  0.00  0.00    -0.532 OA
ATOM     14  O   UNL d   1      59.440   0.385  28.631  0.00  0.00    -0.532 OA
ENDBRANCH   9  12
ENDBRANCH   3   6
BRANCH   2  15
ATOM     15  N   UNL d   1      55.728   0.681  33.033  0.00  0.00    -0.332 N 
ATOM     16  H   UNL d   1      55.541   1.480  32.892  0.00  0.00     0.168 HD
BRANCH  15  17
ATOM     17  C   UNL d   1      55.393   0.287  33.686  0.00  0.00     0.074 C 
BRANCH  17  18
ATOM     18  C   UNL d   1      54.758   0.600  34.079  0.00  0.00     0.018 C 
ATOM     19  C   UNL d   1      54.765   0.682  34.922  0.00  0.00     0.002 C 
ENDBRANCH  17  18
ENDBRANCH  15  17
ENDBRANCH   2  15
TORSDOF 5
ENDMDL
MODEL 3
REMARK VINA RESULT:      -3.2      2.831      4.727
REMARK  5 active torsions:
REMARK  status: ('A' for Active; 'I' for Inactive)
REMARK    1  A    between atoms: N_2  and  C_7 
REMARK    2  A    between atoms: N_11  and  C_3 
REMARK    3  A    between atoms: C_9  and  C_4 
REMARK    4  A    between atoms: C_18  and  N_11 
REMARK    5  A    between atoms: C_16  and  C_18 
ROOT
ATOM      1  N   UNL d   1      57.865  -0.596  30.415  0.00  0.00    -0.222 NA
ATOM      2  C   UNL d   1      57.624   0.176  30.564  0.00  0.00     0.172 A 
ATOM      3  C   UNL d   1      58.468  -0.570  29.839  0.00  0.00     0.090 A 
ATOM      4  S   UNL d   1      58.066   0.674  30.094  0.00  0.00    -0.048 SA
ATOM      5  C   UNL d   1      58.581   0.219  29.651  0.00  0.00     0.057 A 
ENDROOT
BRANCH   3   6
ATOM      6  C   UNL d   1      58.856  -1.248  29.539  0.00  0.00     0.018 A 
ATOM      7  C   UNL d   1      59.614  -1.168  29.221  0.00  0.00     0.003 A 
ATOM      8  C   UNL d   1      59.997  -1.836  28.926  0.00  0.00     0.024 A 
ATOM      9  C   UNL d   1      59.613  -2.566  28.955  0.00  0.00     0.127 A 
ATOM     10  C   UNL d   1      58.865  -2.651  29.267  0.00  0.00     0.024 A 
ATOM     11  C   UNL d   1      58.477  -1.974  29.568  0.00  0.00     0.003 A 
BRANCH   9  12
ATOM     12  N   UNL d   1      59.993  -3.229  28.662  0.00  0.00    -0.114 N 
ATOM     13  O   UNL d   1      59.560  -3.907  28.463  0.00  0.00    -0.532 OA
ATOM     14  O   UNL d   1      60.805  -3.235  28.559  0.00  0.00    -0.532 OA
ENDBRANCH   9  12
ENDBRANCH   3   6
BRANCH   2  15
ATOM     15  N   UNL d   1      57.046   0.424  31.088  0.00  0.00    -0.332 N 
ATOM     16  H   UNL d   1      56.477   0.979  30.843  0.00  0.00     0.168 HD
BRANCH  15  17
ATOM     17  C   UNL d   1      57.024   0.124  31.865  0.00  0.00     0.074 C 
BRANCH  17  18
ATOM     18  C   UNL d   1      56.363   0.210  32.324  0.00  0.00     0.018 C 
ATOM     19  C   UNL d   1      56.198  -0.331  32.955  0.00  0.00     0.002 C 
ENDBRANCH  17  18
ENDBRANCH  15  17
ENDBRANCH   2  15
TORSDOF 5
ENDMDL
