MODEL 1
REMARK VINA RESULT:       8.8      0.000      0.000
REMARK  5 active torsions:
REMARK  status: ('A' for Active; 'I' for Inactive)
REMARK    1  A    between atoms: N_3  and  C_1 
REMARK    2  A    between atoms: N_6  and  C_1 
REMARK       I    between atoms: C_2  and  N_4 
REMARK    3  A    between atoms: C_5  and  C_2 
REMARK    4  A    between atoms: C_7  and  N_3 
REMARK    5  A    between atoms: N_4  and  N_6 
ROOT
ATOM      1  N   UNL d   1      45.552 -16.885  44.587  0.00  0.00    -0.273 N 
ATOM      2  H   UNL d   1      44.772 -17.070  44.795  0.00  0.00     0.189 HD
ENDROOT
BRANCH   1   3
ATOM      3  N   UNL d   1      45.803 -16.100  44.570  0.00  0.00    -0.264 N 
ATOM      4  C   UNL d   1      45.250 -15.505  44.453  0.00  0.00     0.272 C 
ATOM      5  O   UNL d   1      44.450 -15.690  44.353  0.00  0.00    -0.266 OA
ATOM      6  H   UNL d   1      46.592 -15.918  44.669  0.00  0.00     0.190 HD
BRANCH   4   7
ATOM      7  C   UNL d   1      45.481 -14.707  44.433  0.00  0.00     0.058 A 
ATOM      8  C   UNL d   1      45.129 -14.187  43.914  0.00  0.00     0.011 A 
ATOM      9  C   UNL d   1      45.374 -13.400  43.912  0.00  0.00     0.035 A 
ATOM     10 BR   UNL d   1      45.032 -12.852  43.395  0.00  0.00    -0.049 Br
ATOM     11  C   UNL d   1      45.972 -13.143  44.431  0.00  0.00     0.007 A 
ATOM     12  C   UNL d   1      46.326 -13.674  44.955  0.00  0.00     0.001 A 
ATOM     13  C   UNL d   1      46.080 -14.451  44.953  0.00  0.00     0.005 A 
ENDBRANCH   4   7
ENDBRANCH   1   3
BRANCH   1  14
ATOM     14  C   UNL d   1      46.082 -17.473  44.395  0.00  0.00     0.191 C 
ATOM     15  S   UNL d   1      46.647 -17.715  44.932  0.00  0.00    -0.039 SA
BRANCH  14  16
ATOM     16  N   UNL d   1      46.046 -17.834  43.638  0.00  0.00    -0.331 N 
ATOM     17  H   UNL d   1      45.810 -17.387  42.982  0.00  0.00     0.168 HD
BRANCH  16  18
ATOM     18  C   UNL d   1      46.244 -18.625  43.553  0.00  0.00     0.058 A 
ATOM     19  C   UNL d   1      46.403 -18.922  42.801  0.00  0.00     0.016 A 
ATOM     20  C   UNL d   1      46.362 -18.426  42.139  0.00  0.00     0.002 C 
ATOM     21  C   UNL d   1      46.600 -19.708  42.720  0.00  0.00     0.001 A 
ATOM     22  C   UNL d   1      46.640 -20.197  43.372  0.00  0.00     0.000 A 
ATOM     23  C   UNL d   1      46.484 -19.910  44.119  0.00  0.00     0.002 A 
ATOM     24  C   UNL d   1      46.284 -19.114  44.206  0.00  0.00     0.017 A 
ENDBRANCH  16  18
ENDBRANCH  14  16
ENDBRANCH   1  14
TORSDOF 5
ENDMDL
MODEL 2
REMARK VINA RESULT:       9.1      1.942      4.993
REMARK  5 active torsions:
REMARK  status: ('A' for Active; 'I' for Inactive)
REMARK    1  A    between atoms: N_3  and  C_1 
REMARK    2  A    between atoms: N_6  and  C_1 
REMARK       I    between atoms: C_2  and  N_4 
REMARK    3  A    between atoms: C_5  and  C_2 
REMARK    4  A    between atoms: C_7  and  N_3 
REMARK    5  A    between atoms: N_4  and  N_6 
ROOT
ATOM      1  N   UNL d   1      46.002 -16.347  43.869  0.00  0.00    -0.273 N 
ATOM      2  H   UNL d   1      46.211 -16.009  43.143  0.00  0.00     0.189 HD
ENDROOT
BRANCH   1   3
ATOM      3  N   UNL d   1      46.132 -17.149  44.007  0.00  0.00    -0.264 N 
ATOM      4  C   UNL d   1      46.228 -17.654  43.368  0.00  0.00     0.272 C 
ATOM      5  O   UNL d   1      46.195 -17.363  42.593  0.00  0.00    -0.266 OA
ATOM      6  H   UNL d   1      46.164 -17.437  44.770  0.00  0.00     0.190 HD
BRANCH   4   7
ATOM      7  C   UNL d   1      46.359 -18.467  43.483  0.00  0.00     0.058 A 
ATOM      8  C   UNL d   1      46.339 -18.983  42.852  0.00  0.00     0.011 A 
ATOM      9  C   UNL d   1      46.473 -19.785  42.990  0.00  0.00     0.035 A 
ATOM     10 BR   UNL d   1      46.457 -20.330  42.368  0.00  0.00    -0.049 Br
ATOM     11  C   UNL d   1      46.626 -20.060  43.761  0.00  0.00     0.007 A 
ATOM     12  C   UNL d   1      46.645 -19.533  44.396  0.00  0.00     0.001 A 
ATOM     13  C   UNL d   1      46.512 -18.742  44.254  0.00  0.00     0.005 A 
ENDBRANCH   4   7
ENDBRANCH   1   3
BRANCH   1  14
ATOM     14  C   UNL d   1      45.667 -15.895  44.459  0.00  0.00     0.191 C 
ATOM     15  S   UNL d   1      45.025 -16.170  44.880  0.00  0.00    -0.039 SA
BRANCH  14  16
ATOM     16  N   UNL d   1      45.986 -15.138  44.633  0.00  0.00    -0.331 N 
ATOM     17  H   UNL d   1      46.669 -15.078  45.096  0.00  0.00     0.168 HD
BRANCH  16  18
ATOM     18  C   UNL d   1      45.619 -14.464  44.342  0.00  0.00     0.058 A 
ATOM     19  C   UNL d   1      45.950 -13.726  44.500  0.00  0.00     0.016 A 
ATOM     20  C   UNL d   1      46.645 -13.666  44.946  0.00  0.00     0.002 C 
ATOM     21  C   UNL d   1      45.583 -13.059  44.210  0.00  0.00     0.001 A 
ATOM     22  C   UNL d   1      44.898 -13.118  43.771  0.00  0.00     0.000 A 
ATOM     23  C   UNL d   1      44.566 -13.844  43.611  0.00  0.00     0.002 A 
ATOM     24  C   UNL d   1      44.934 -14.523  43.903  0.00  0.00     0.017 A 
ENDBRANCH  16  18
ENDBRANCH  14  16
ENDBRANCH   1  14
TORSDOF 5
ENDMDL
