MODEL 1
REMARK VINA RESULT:      61.8      0.000      0.000
REMARK  9 active torsions:
REMARK  status: ('A' for Active; 'I' for Inactive)
REMARK    1  A    between atoms: N_2  and  C_1 
REMARK       I    between atoms: C_4  and  N_2 
REMARK    2  A    between atoms: C_7  and  C_4 
REMARK    3  A    between atoms: C_8  and  C_5 
REMARK    4  A    between atoms: C_10  and  C_8 
REMARK       I    between atoms: N_12  and  C_10 
REMARK    5  A    between atoms: C_11  and  C_19 
REMARK    6  A    between atoms: C_19  and  N_12 
REMARK    7  A    between atoms: O_23  and  C_17 
REMARK    8  A    between atoms: O_24  and  C_18 
REMARK    9  A    between atoms: O_22  and  C_20 
ROOT
ATOM      1  C   UNL d   1      14.200  15.679  -3.368  0.00  0.00     0.197 A 
ATOM      2  N   UNL d   1      14.896  15.881  -3.780  0.00  0.00    -0.220 NA
ATOM      3  C   UNL d   1      14.848  16.671  -3.993  0.00  0.00     0.095 A 
ATOM      4  S   UNL d   1      13.733  16.356  -3.336  0.00  0.00    -0.046 SA
ATOM      5  C   UNL d   1      14.129  16.967  -3.719  0.00  0.00     0.058 A 
ENDROOT
BRANCH   1   6
ATOM      6  N   UNL d   1      14.027  14.940  -3.059  0.00  0.00    -0.183 NA
ATOM      7  C   UNL d   1      14.471  14.284  -3.261  0.00  0.00     0.281 C 
ATOM      8  O   UNL d   1      15.110  14.356  -3.787  0.00  0.00    -0.265 OA
BRANCH   7   9
ATOM      9  C   UNL d   1      14.299  13.537  -2.950  0.00  0.00     0.062 A 
ATOM     10  C   UNL d   1      14.608  13.302  -2.237  0.00  0.00     0.029 A 
ATOM     11  C   UNL d   1      14.432  12.559  -1.935  0.00  0.00     0.096 A 
ATOM     12  C   UNL d   1      13.937  12.048  -2.359  0.00  0.00     0.048 A 
ATOM     13  C   UNL d   1      13.631  12.295  -3.077  0.00  0.00     0.096 A 
ATOM     14  C   UNL d   1      13.802  13.033  -3.384  0.00  0.00     0.029 A 
BRANCH  11  15
ATOM     15  O   UNL d   1      14.743  12.320  -1.214  0.00  0.00    -0.328 OA
ATOM     16  C   UNL d   1      14.240  12.188  -0.565  0.00  0.00     0.181 C 
ENDBRANCH  11  15
BRANCH  13  17
ATOM     17  O   UNL d   1      13.133  11.791  -3.512  0.00  0.00    -0.328 OA
ATOM     18  C   UNL d   1      12.771  12.062  -4.201  0.00  0.00     0.181 C 
ENDBRANCH  13  17
ENDBRANCH   7   9
ENDBRANCH   1   6
BRANCH   3  19
ATOM     19  C   UNL d   1      15.419  17.099  -4.410  0.00  0.00     0.082 C 
BRANCH  19  20
ATOM     20  C   UNL d   1      15.234  17.428  -5.147  0.00  0.00     0.281 C 
ATOM     21  N   UNL d   1      15.214  18.245  -5.232  0.00  0.00    -0.206 NA
ATOM     22  O   UNL d   1      15.074  16.932  -5.782  0.00  0.00    -0.265 OA
BRANCH  21  23
ATOM     23  C   UNL d   1      15.031  18.570  -5.961  0.00  0.00     0.104 C 
BRANCH  23  24
ATOM     24  C   UNL d   1      14.346  19.023  -6.052  0.00  0.00     0.042 A 
ATOM     25  C   UNL d   1      14.366  19.835  -5.893  0.00  0.00     0.096 A 
ATOM     26  C   UNL d   1      13.693  20.295  -5.979  0.00  0.00     0.024 A 
ATOM     27  C   UNL d   1      12.989  19.949  -6.228  0.00  0.00     0.002 A 
ATOM     28  C   UNL d   1      12.962  19.141  -6.389  0.00  0.00     0.000 A 
ATOM     29  C   UNL d   1      13.638  18.677  -6.302  0.00  0.00     0.004 A 
BRANCH  25  30
ATOM     30  O   UNL d   1      15.074  20.194  -5.641  0.00  0.00    -0.328 OA
ATOM     31  C   UNL d   1      15.195  21.006  -5.742  0.00  0.00     0.181 C 
ENDBRANCH  25  30
ENDBRANCH  23  24
ENDBRANCH  21  23
ENDBRANCH  19  20
ENDBRANCH   3  19
TORSDOF 9
ENDMDL
MODEL 2
REMARK VINA RESULT:      64.4      1.616      6.874
REMARK  9 active torsions:
REMARK  status: ('A' for Active; 'I' for Inactive)
REMARK    1  A    between atoms: N_2  and  C_1 
REMARK       I    between atoms: C_4  and  N_2 
REMARK    2  A    between atoms: C_7  and  C_4 
REMARK    3  A    between atoms: C_8  and  C_5 
REMARK    4  A    between atoms: C_10  and  C_8 
REMARK       I    between atoms: N_12  and  C_10 
REMARK    5  A    between atoms: C_11  and  C_19 
REMARK    6  A    between atoms: C_19  and  N_12 
REMARK    7  A    between atoms: O_23  and  C_17 
REMARK    8  A    between atoms: O_24  and  C_18 
REMARK    9  A    between atoms: O_22  and  C_20 
ROOT
ATOM      1  C   UNL d   1      15.032  17.487  -5.131  0.00  0.00     0.197 A 
ATOM      2  N   UNL d   1      14.755  16.915  -4.592  0.00  0.00    -0.220 NA
ATOM      3  C   UNL d   1      14.994  16.176  -4.855  0.00  0.00     0.095 A 
ATOM      4  S   UNL d   1      15.442  17.083  -5.721  0.00  0.00    -0.046 SA
ATOM      5  C   UNL d   1      15.420  16.278  -5.553  0.00  0.00     0.058 A 
ENDROOT
BRANCH   1   6
ATOM      6  N   UNL d   1      14.913  18.295  -5.072  0.00  0.00    -0.183 NA
ATOM      7  C   UNL d   1      14.569  18.715  -5.684  0.00  0.00     0.281 C 
ATOM      8  O   UNL d   1      14.332  18.327  -6.379  0.00  0.00    -0.265 OA
BRANCH   7   9
ATOM      9  C   UNL d   1      14.447  19.531  -5.628  0.00  0.00     0.062 A 
ATOM     10  C   UNL d   1      13.719  19.830  -5.428  0.00  0.00     0.029 A 
ATOM     11  C   UNL d   1      13.605  20.642  -5.374  0.00  0.00     0.096 A 
ATOM     12  C   UNL d   1      14.236  21.157  -5.524  0.00  0.00     0.048 A 
ATOM     13  C   UNL d   1      14.966  20.846  -5.725  0.00  0.00     0.096 A 
ATOM     14  C   UNL d   1      15.087  20.038  -5.781  0.00  0.00     0.029 A 
BRANCH  11  15
ATOM     15  O   UNL d   1      12.870  20.946  -5.172  0.00  0.00    -0.328 OA
ATOM     16  C   UNL d   1      12.813  21.577  -4.632  0.00  0.00     0.181 C 
ENDBRANCH  11  15
BRANCH  13  17
ATOM     17  O   UNL d   1      15.607  21.352  -5.878  0.00  0.00    -0.328 OA
ATOM     18  C   UNL d   1      15.514  21.993  -6.389  0.00  0.00     0.181 C 
ENDBRANCH  13  17
ENDBRANCH   7   9
ENDBRANCH   1   6
BRANCH   3  19
ATOM     19  C   UNL d   1      14.838  15.454  -4.486  0.00  0.00     0.082 C 
BRANCH  19  20
ATOM     20  C   UNL d   1      14.218  14.976  -4.756  0.00  0.00     0.281 C 
ATOM     21  N   UNL d   1      13.942  14.364  -4.282  0.00  0.00    -0.206 NA
ATOM     22  O   UNL d   1      13.888  15.121  -5.494  0.00  0.00    -0.265 OA
BRANCH  21  23
ATOM     23  C   UNL d   1      13.329  13.892  -4.549  0.00  0.00     0.104 C 
BRANCH  23  24
ATOM     24  C   UNL d   1      13.142  13.192  -4.153  0.00  0.00     0.042 A 
ATOM     25  C   UNL d   1      13.041  12.491  -4.581  0.00  0.00     0.096 A 
ATOM     26  C   UNL d   1      12.856  11.790  -4.199  0.00  0.00     0.024 A 
ATOM     27  C   UNL d   1      12.769  11.780  -3.381  0.00  0.00     0.002 A 
ATOM     28  C   UNL d   1      12.869  12.474  -2.948  0.00  0.00     0.000 A 
ATOM     29  C   UNL d   1      13.055  13.180  -3.331  0.00  0.00     0.004 A 
BRANCH  25  30
ATOM     30  O   UNL d   1      13.127  12.492  -5.410  0.00  0.00    -0.328 OA
ATOM     31  C   UNL d   1      13.024  11.796  -5.846  0.00  0.00     0.181 C 
ENDBRANCH  25  30
ENDBRANCH  23  24
ENDBRANCH  21  23
ENDBRANCH  19  20
ENDBRANCH   3  19
TORSDOF 9
ENDMDL
