MODEL 1
REMARK VINA RESULT:      26.6      0.000      0.000
REMARK  5 active torsions:
REMARK  status: ('A' for Active; 'I' for Inactive)
REMARK    1  A    between atoms: C_5  and  N_1 
REMARK    2  A    between atoms: C_8  and  C_3 
REMARK    3  A    between atoms: C_7  and  C_4 
REMARK    4  A    between atoms: N_12  and  C_5 
REMARK    5  A    between atoms: N_11  and  C_10 
ROOT
ATOM      1  N   UNL d   1      45.780 -17.066  44.323  0.00  0.00    -0.203 N 
ATOM      2  N   UNL d   1      45.667 -16.323  44.660  0.00  0.00    -0.163 NA
ATOM      3  C   UNL d   1      45.772 -15.763  44.120  0.00  0.00     0.103 A 
ATOM      4  C   UNL d   1      45.964 -16.971  43.532  0.00  0.00     0.087 A 
ATOM      5  C   UNL d   1      45.963 -16.146  43.386  0.00  0.00     0.040 A 
ENDROOT
BRANCH   4   6
ATOM      6  C   UNL d   1      46.111 -17.627  43.034  0.00  0.00     0.018 A 
ATOM      7  C   UNL d   1      46.298 -17.503  42.245  0.00  0.00     0.003 A 
ATOM      8  C   UNL d   1      46.441 -18.127  41.754  0.00  0.00     0.018 A 
ATOM      9  C   UNL d   1      46.401 -18.911  42.048  0.00  0.00     0.064 A 
ATOM     10  C   UNL d   1      46.214 -19.036  42.837  0.00  0.00     0.018 A 
ATOM     11  C   UNL d   1      46.067 -18.386  43.339  0.00  0.00     0.003 A 
BRANCH   9  12
ATOM     12  N   UNL d   1      46.558 -19.546  41.504  0.00  0.00    -0.301 N 
ATOM     13  C   UNL d   1      46.641 -20.327  41.808  0.00  0.00     0.100 C 
ATOM     14  C   UNL d   1      46.643 -19.513  40.714  0.00  0.00     0.100 C 
ENDBRANCH   9  12
ENDBRANCH   4   6
BRANCH   1  15
ATOM     15  C   UNL d   1      45.716 -17.811  44.726  0.00  0.00     0.222 C 
ATOM     16  S   UNL d   1      44.941 -18.125  44.885  0.00  0.00    -0.037 SA
BRANCH  15  17
ATOM     17  N   UNL d   1      46.389 -18.211  44.952  0.00  0.00    -0.214 NA
ATOM     18  C   UNL d   1      46.414 -19.061  44.953  0.00  0.00     0.122 C 
ENDBRANCH  15  17
ENDBRANCH   1  15
BRANCH   3  19
ATOM     19  C   UNL d   1      45.702 -14.957  44.270  0.00  0.00     0.019 A 
ATOM     20  C   UNL d   1      46.312 -14.530  44.657  0.00  0.00     0.002 A 
ATOM     21  C   UNL d   1      46.242 -13.723  44.807  0.00  0.00     0.007 A 
ATOM     22  C   UNL d   1      45.558 -13.345  44.567  0.00  0.00     0.035 A 
ATOM     23  C   UNL d   1      44.942 -13.752  44.181  0.00  0.00     0.007 A 
ATOM     24 BR   UNL d   1      45.491 -12.498  44.727  0.00  0.00    -0.049 Br
ATOM     25  C   UNL d   1      45.019 -14.557  44.035  0.00  0.00     0.002 A 
ENDBRANCH   3  19
TORSDOF 5
ENDMDL
