MODEL 1
REMARK VINA RESULT:      60.8      0.000      0.000
REMARK  3 active torsions:
REMARK  status: ('A' for Active; 'I' for Inactive)
REMARK    1  A    between atoms: N_10  and  C_7 
REMARK       I    between atoms: C_9  and  N_10 
REMARK    2  A    between atoms: C_12  and  C_9 
REMARK    3  A    between atoms: O_20  and  C_17 
ROOT
ATOM      1  C   UNL d   1      13.495  12.970  -3.489  0.00  0.00     0.081 A 
ATOM      2  C   UNL d   1      13.294  12.182  -3.390  0.00  0.00     0.301 A 
ATOM      3  C   UNL d   1      13.940  13.373  -2.928  0.00  0.00     0.090 A 
ATOM      4  O   UNL d   1      13.547  11.782  -2.705  0.00  0.00    -0.273 OA
ATOM      5  N   UNL d   1      14.137  14.168  -3.039  0.00  0.00    -0.226 NA
ATOM      6  C   UNL d   1      14.189  12.973  -2.249  0.00  0.00     0.041 A 
ATOM      7  C   UNL d   1      13.880  14.561  -3.726  0.00  0.00     0.166 A 
ATOM      8  C   UNL d   1      13.241  13.367  -4.173  0.00  0.00     0.010 A 
ATOM      9  C   UNL d   1      13.994  12.176  -2.135  0.00  0.00     0.105 A 
ATOM     10  C   UNL d   1      13.434  14.162  -4.292  0.00  0.00     0.039 A 
ATOM     11  O   UNL d   1      12.845  11.780  -3.958  0.00  0.00    -0.259 OA
ATOM     12  C   UNL d   1      14.638  13.371  -1.680  0.00  0.00     0.004 A 
ATOM     13  C   UNL d   1      12.795  12.960  -4.734  0.00  0.00     0.000 C 
ATOM     14  C   UNL d   1      14.240  11.780  -1.465  0.00  0.00     0.025 A 
ATOM     15  C   UNL d   1      14.883  12.968  -1.006  0.00  0.00     0.000 A 
ATOM     16  C   UNL d   1      14.684  12.171  -0.898  0.00  0.00     0.002 A 
ENDROOT
BRANCH   7  17
ATOM     17  N   UNL d   1      14.078  15.365  -3.842  0.00  0.00    -0.189 NA
ATOM     18  C   UNL d   1      14.397  15.607  -4.561  0.00  0.00     0.281 C 
ATOM     19  O   UNL d   1      14.521  15.053  -5.168  0.00  0.00    -0.265 OA
BRANCH  18  20
ATOM     20  C   UNL d   1      14.590  16.389  -4.678  0.00  0.00     0.060 A 
ATOM     21  C   UNL d   1      14.224  16.813  -5.255  0.00  0.00     0.029 A 
ATOM     22  C   UNL d   1      14.421  17.612  -5.374  0.00  0.00     0.094 A 
ATOM     23  C   UNL d   1      14.984  17.975  -4.912  0.00  0.00     0.024 A 
ATOM     24  C   UNL d   1      15.362  17.529  -4.313  0.00  0.00     0.002 A 
ATOM     25  C   UNL d   1      15.164  16.743  -4.199  0.00  0.00     0.005 A 
BRANCH  22  26
ATOM     26  O   UNL d   1      14.041  18.046  -5.971  0.00  0.00    -0.328 OA
ATOM     27  C   UNL d   1      14.258  18.845  -6.109  0.00  0.00     0.181 C 
ENDBRANCH  22  26
ENDBRANCH  18  20
ENDBRANCH   7  17
TORSDOF 3
ENDMDL
