MODEL 1
REMARK VINA RESULT:      63.2      0.000      0.000
REMARK  6 active torsions:
REMARK  status: ('A' for Active; 'I' for Inactive)
REMARK    1  A    between atoms: N_9  and  C_1 
REMARK    2  A    between atoms: C_4  and  S_13 
REMARK    3  A    between atoms: C_14  and  C_8 
REMARK       I    between atoms: C_12  and  N_9 
REMARK    4  A    between atoms: C_17  and  C_10 
REMARK    5  A    between atoms: C_16  and  C_12 
REMARK    6  A    between atoms: S_13  and  C_16 
ROOT
ATOM      1  S   UNL d   1      61.051  48.239  51.426  0.00  0.00    -0.043 SA
ENDROOT
BRANCH   1   2
ATOM      2  C   UNL d   1      61.272  47.873  50.713  0.00  0.00     0.195 A 
ATOM      3  N   UNL d   1      61.376  47.067  50.590  0.00  0.00    -0.220 NA
ATOM      4  C   UNL d   1      61.591  46.960  49.811  0.00  0.00     0.103 A 
ATOM      5  C   UNL d   1      61.621  47.692  49.448  0.00  0.00     0.120 A 
ATOM      6  N   UNL d   1      61.423  48.252  50.007  0.00  0.00    -0.218 NA
BRANCH   4   7
ATOM      7  C   UNL d   1      61.743  46.218  49.488  0.00  0.00     0.019 A 
ATOM      8  C   UNL d   1      61.131  45.666  49.411  0.00  0.00     0.002 A 
ATOM      9  C   UNL d   1      61.298  44.926  49.084  0.00  0.00     0.000 A 
ATOM     10  C   UNL d   1      62.064  44.745  48.840  0.00  0.00     0.000 A 
ATOM     11  C   UNL d   1      62.661  45.289  48.917  0.00  0.00     0.000 A 
ATOM     12  C   UNL d   1      62.499  46.038  49.247  0.00  0.00     0.002 A 
ENDBRANCH   4   7
ENDBRANCH   1   2
BRANCH   1  13
ATOM     13  C   UNL d   1      60.713  48.993  51.410  0.00  0.00     0.101 C 
BRANCH  13  14
ATOM     14  C   UNL d   1      59.962  49.106  51.085  0.00  0.00     0.288 C 
ATOM     15  N   UNL d   1      59.329  49.348  51.558  0.00  0.00    -0.181 NA
ATOM     16  O   UNL d   1      59.843  48.974  50.271  0.00  0.00    -0.265 OA
BRANCH  15  17
ATOM     17  C   UNL d   1      58.576  49.461  51.228  0.00  0.00     0.219 A 
ATOM     18  S   UNL d   1      58.473  49.415  50.411  0.00  0.00    -0.026 SA
ATOM     19  C   UNL d   1      57.670  49.550  50.247  0.00  0.00     0.135 A 
ATOM     20  N   UNL d   1      57.284  49.679  50.965  0.00  0.00    -0.139 NA
ATOM     21  N   UNL d   1      57.839  49.624  51.572  0.00  0.00    -0.121 NA
BRANCH  19  22
ATOM     22  C   UNL d   1      57.319  49.556  49.504  0.00  0.00     0.028 C 
ATOM     23  C   UNL d   1      56.894  48.894  49.250  0.00  0.00     0.002 C 
ENDBRANCH  19  22
ENDBRANCH  15  17
ENDBRANCH  13  14
ENDBRANCH   1  13
TORSDOF 6
ENDMDL
MODEL 2
REMARK VINA RESULT:      65.6      2.920      3.995
REMARK  6 active torsions:
REMARK  status: ('A' for Active; 'I' for Inactive)
REMARK    1  A    between atoms: N_9  and  C_1 
REMARK    2  A    between atoms: C_4  and  S_13 
REMARK    3  A    between atoms: C_14  and  C_8 
REMARK       I    between atoms: C_12  and  N_9 
REMARK    4  A    between atoms: C_17  and  C_10 
REMARK    5  A    between atoms: C_16  and  C_12 
REMARK    6  A    between atoms: S_13  and  C_16 
ROOT
ATOM      1  S   UNL d   1      57.718  49.667  50.739  0.00  0.00    -0.043 SA
ENDROOT
BRANCH   1   2
ATOM      2  C   UNL d   1      58.546  49.677  50.676  0.00  0.00     0.195 A 
ATOM      3  N   UNL d   1      59.083  49.667  51.298  0.00  0.00    -0.220 NA
ATOM      4  C   UNL d   1      59.833  49.683  50.981  0.00  0.00     0.103 A 
ATOM      5  C   UNL d   1      59.768  49.704  50.166  0.00  0.00     0.120 A 
ATOM      6  N   UNL d   1      58.973  49.700  49.983  0.00  0.00    -0.218 NA
BRANCH   4   7
ATOM      7  C   UNL d   1      60.515  49.678  51.443  0.00  0.00     0.019 A 
ATOM      8  C   UNL d   1      60.456  49.707  52.268  0.00  0.00     0.002 A 
ATOM      9  C   UNL d   1      61.148  49.701  52.719  0.00  0.00     0.000 A 
ATOM     10  C   UNL d   1      61.883  49.667  52.348  0.00  0.00     0.000 A 
ATOM     11  C   UNL d   1      61.936  49.639  51.538  0.00  0.00     0.000 A 
ATOM     12  C   UNL d   1      61.240  49.645  51.078  0.00  0.00     0.002 A 
ENDBRANCH   4   7
ENDBRANCH   1   2
BRANCH   1  13
ATOM     13  C   UNL d   1      57.341  48.997  51.044  0.00  0.00     0.101 C 
BRANCH  13  14
ATOM     14  C   UNL d   1      57.087  48.396  50.538  0.00  0.00     0.288 C 
ATOM     15  N   UNL d   1      56.985  47.624  50.817  0.00  0.00    -0.181 NA
ATOM     16  O   UNL d   1      56.931  48.570  49.738  0.00  0.00    -0.265 OA
BRANCH  15  17
ATOM     17  C   UNL d   1      56.730  47.022  50.306  0.00  0.00     0.219 A 
ATOM     18  S   UNL d   1      57.056  46.267  50.364  0.00  0.00    -0.026 SA
ATOM     19  C   UNL d   1      56.696  45.788  49.789  0.00  0.00     0.135 A 
ATOM     20  N   UNL d   1      56.150  46.252  49.380  0.00  0.00    -0.139 NA
ATOM     21  N   UNL d   1      56.168  47.013  49.697  0.00  0.00    -0.121 NA
BRANCH  19  22
ATOM     22  C   UNL d   1      56.853  44.993  49.649  0.00  0.00     0.028 C 
ATOM     23  C   UNL d   1      56.964  44.733  48.872  0.00  0.00     0.002 C 
ENDBRANCH  19  22
ENDBRANCH  15  17
ENDBRANCH  13  14
ENDBRANCH   1  13
TORSDOF 6
ENDMDL
