MODEL 1
REMARK VINA RESULT:      49.7      0.000      0.000
REMARK  9 active torsions:
REMARK  status: ('A' for Active; 'I' for Inactive)
REMARK    1  A    between atoms: S_3  and  C_1 
REMARK    2  A    between atoms: C_7  and  S_3 
REMARK    3  A    between atoms: N_8  and  C_4 
REMARK    4  A    between atoms: C_19  and  N_8 
REMARK    5  A    between atoms: C_20  and  N_8 
REMARK    6  A    between atoms: O_17  and  C_22 
REMARK    7  A    between atoms: O_18  and  C_21 
REMARK    8  A    between atoms: C_21  and  C_19 
REMARK    9  A    between atoms: C_22  and  C_20 
ROOT
ATOM      1  C   UNL d   1     -51.346  24.764  33.636  0.00  0.00     0.187 A 
ATOM      2  N   UNL d   1     -51.247  25.571  33.653  0.00  0.00    -0.209 NA
ATOM      3  C   UNL d   1     -50.459  25.726  33.448  0.00  0.00     0.181 A 
ATOM      4  S   UNL d   1     -50.089  25.008  33.307  0.00  0.00    -0.036 SA
ATOM      5  C   UNL d   1     -50.640  24.417  33.425  0.00  0.00     0.118 A 
ATOM      6 CL   UNL d   1     -50.753  23.600  33.410  0.00  0.00    -0.073 Cl
ENDROOT
BRANCH   1   7
ATOM      7  S   UNL d   1     -52.046  24.366  33.804  0.00  0.00     0.228 S 
ATOM      8  O   UNL d   1     -52.767  24.736  33.690  0.00  0.00    -0.216 OA
ATOM      9  O   UNL d   1     -52.021  23.593  34.089  0.00  0.00    -0.216 OA
BRANCH   7  10
ATOM     10  C   UNL d   1     -52.812  24.070  33.937  0.00  0.00     0.089 A 
ATOM     11  C   UNL d   1     -53.137  24.099  34.705  0.00  0.00     0.011 A 
ATOM     12  C   UNL d   1     -53.900  23.804  34.834  0.00  0.00     0.001 A 
ATOM     13  C   UNL d   1     -54.335  23.484  34.209  0.00  0.00     0.000 A 
ATOM     14  C   UNL d   1     -54.008  23.455  33.438  0.00  0.00     0.001 A 
ATOM     15  C   UNL d   1     -55.090  23.191  34.334  0.00  0.00     0.000 C 
ATOM     16  C   UNL d   1     -53.248  23.750  33.311  0.00  0.00     0.011 A 
ENDBRANCH   7  10
ENDBRANCH   1   7
BRANCH   3  17
ATOM     17  N   UNL d   1     -50.347  26.535  33.462  0.00  0.00    -0.280 N 
BRANCH  17  18
ATOM     18  C   UNL d   1     -50.988  27.041  33.362  0.00  0.00     0.108 C 
BRANCH  18  19
ATOM     19  C   UNL d   1     -50.866  27.855  33.307  0.00  0.00     0.135 C 
BRANCH  19  20
ATOM     20  O   UNL d   1     -51.510  28.370  33.311  0.00  0.00    -0.325 OA
ATOM     21  C   UNL d   1     -52.277  28.073  33.369  0.00  0.00     0.182 C 
ENDBRANCH  19  20
ENDBRANCH  18  19
ENDBRANCH  17  18
BRANCH  17  22
ATOM     22  C   UNL d   1     -49.845  27.183  33.536  0.00  0.00     0.108 C 
BRANCH  22  23
ATOM     23  C   UNL d   1     -49.430  27.302  34.228  0.00  0.00     0.135 C 
BRANCH  23  24
ATOM     24  O   UNL d   1     -48.986  27.988  34.331  0.00  0.00    -0.325 OA
ATOM     25  C   UNL d   1     -48.537  28.093  35.007  0.00  0.00     0.182 C 
ENDBRANCH  23  24
ENDBRANCH  22  23
ENDBRANCH  17  22
ENDBRANCH   3  17
TORSDOF 9
ENDMDL
