MODEL 1
REMARK VINA RESULT:      37.9      0.000      0.000
REMARK  3 active torsions:
REMARK  status: ('A' for Active; 'I' for Inactive)
REMARK    1  A    between atoms: N_2  and  S_1 
REMARK    2  A    between atoms: C_3  and  S_1 
REMARK    3  A    between atoms: O_17  and  C_11 
ROOT
ATOM      1  S   UNL d   1      59.158  49.473  50.518  0.00  0.00     0.274 S 
ATOM      2  O   UNL d   1      59.556  49.239  49.811  0.00  0.00    -0.199 OA
ATOM      3  O   UNL d   1      58.741  49.707  51.208  0.00  0.00    -0.199 OA
ENDROOT
BRANCH   1   4
ATOM      4  N   UNL d   1      58.447  49.531  50.086  0.00  0.00    -0.212 N 
ATOM      5  C   UNL d   1      58.416  49.666  49.283  0.00  0.00     0.193 A 
ATOM      6  N   UNL d   1      57.582  49.684  49.077  0.00  0.00    -0.223 NA
ATOM      7  C   UNL d   1      57.148  49.560  49.758  0.00  0.00     0.100 A 
ATOM      8  C   UNL d   1      57.694  49.463  50.401  0.00  0.00     0.094 A 
ATOM      9  C   UNL d   1      56.336  49.519  49.901  0.00  0.00     0.021 A 
ATOM     10  C   UNL d   1      57.401  49.329  51.160  0.00  0.00     0.020 A 
ATOM     11  C   UNL d   1      56.588  49.289  51.293  0.00  0.00     0.002 A 
ATOM     12  C   UNL d   1      56.049  49.382  50.680  0.00  0.00     0.002 A 
ENDBRANCH   1   4
BRANCH   1  13
ATOM     13  C   UNL d   1      59.900  49.410  50.961  0.00  0.00     0.127 A 
ATOM     14  C   UNL d   1      59.867  49.301  51.764  0.00  0.00     0.026 A 
ATOM     15  C   UNL d   1      60.604  49.243  52.173  0.00  0.00     0.059 A 
ATOM     16 CL   UNL d   1      60.576  49.129  53.010  0.00  0.00    -0.082 Cl
ATOM     17  C   UNL d   1      61.320  49.294  51.774  0.00  0.00     0.013 A 
ATOM     18  C   UNL d   1      61.320  49.406  50.943  0.00  0.00     0.026 A 
ATOM     19  C   UNL d   1      60.606  49.464  50.541  0.00  0.00     0.106 A 
BRANCH  19  20
ATOM     20  O   UNL d   1      60.633  49.577  49.705  0.00  0.00    -0.327 OA
ATOM     21  C   UNL d   1      61.327  49.701  49.304  0.00  0.00     0.181 C 
ENDBRANCH  19  20
ENDBRANCH   1  13
TORSDOF 3
ENDMDL
