MODEL 1
REMARK VINA RESULT:      -3.1      0.000      0.000
REMARK  3 active torsions:
REMARK  status: ('A' for Active; 'I' for Inactive)
REMARK    1  A    between atoms: N_6  and  C_1 
REMARK    2  A    between atoms: C_14  and  N_4 
REMARK    3  A    between atoms: C_9  and  N_6 
ROOT
ATOM      1  C   UNL d   1      32.178  17.066 -24.184  0.00  0.00     0.157 A 
ATOM      2  C   UNL d   1      31.432  17.203 -24.502  0.00  0.00     0.298 A 
ATOM      3  N   UNL d   1      31.358  16.163 -23.665  0.00  0.00    -0.238 N 
ATOM      4  N   UNL d   1      30.919  16.636 -24.176  0.00  0.00    -0.209 N 
ATOM      5  C   UNL d   1      32.146  16.431 -23.668  0.00  0.00     0.104 A 
ATOM      6  O   UNL d   1      31.220  17.789 -25.044  0.00  0.00    -0.263 OA
ATOM      7  C   UNL d   1      31.061  15.528 -23.222  0.00  0.00     0.120 C 
ATOM      8  C   UNL d   1      32.768  16.117 -23.237  0.00  0.00     0.022 C 
ENDROOT
BRANCH   1   9
ATOM      9  N   UNL d   1      32.862  17.510 -24.361  0.00  0.00    -0.239 NA
BRANCH   9  10
ATOM     10  C   UNL d   1      32.957  18.270 -24.046  0.00  0.00     0.082 A 
ATOM     11  C   UNL d   1      32.956  18.383 -23.220  0.00  0.00     0.022 A 
ATOM     12  C   UNL d   1      33.049  19.132 -22.914  0.00  0.00     0.041 A 
ATOM     13  C   UNL d   1      33.049  19.247 -22.092  0.00  0.00     0.003 C 
ATOM     14  C   UNL d   1      33.146  19.790 -23.416  0.00  0.00     0.196 A 
ATOM     15  C   UNL d   1      33.146  19.674 -24.234  0.00  0.00     0.041 A 
ATOM     16  O   UNL d   1      33.240  20.550 -23.101  0.00  0.00    -0.287 OA
ATOM     17  C   UNL d   1      33.051  18.916 -24.544  0.00  0.00     0.022 A 
ATOM     18  C   UNL d   1      33.241  20.325 -24.725  0.00  0.00     0.003 C 
ENDBRANCH   9  10
ENDBRANCH   1   9
BRANCH   4  19
ATOM     19  C   UNL d   1      30.113  16.562 -24.337  0.00  0.00     0.085 A 
ATOM     20  C   UNL d   1      29.855  16.057 -24.928  0.00  0.00     0.019 A 
ATOM     21  C   UNL d   1      29.047  15.980 -25.093  0.00  0.00     0.002 A 
ATOM     22  C   UNL d   1      28.498  16.416 -24.658  0.00  0.00     0.000 A 
ATOM     23  C   UNL d   1      28.755  16.923 -24.065  0.00  0.00     0.002 A 
ATOM     24  C   UNL d   1      29.566  17.002 -23.898  0.00  0.00     0.019 A 
ENDBRANCH   4  19
TORSDOF 3
ENDMDL
MODEL 2
REMARK VINA RESULT:      -2.0      1.305      4.313
REMARK  3 active torsions:
REMARK  status: ('A' for Active; 'I' for Inactive)
REMARK    1  A    between atoms: N_6  and  C_1 
REMARK    2  A    between atoms: C_14  and  N_4 
REMARK    3  A    between atoms: C_9  and  N_6 
ROOT
ATOM      1  C   UNL d   1      32.820  18.381 -23.824  0.00  0.00     0.157 A 
ATOM      2  C   UNL d   1      32.762  18.605 -23.035  0.00  0.00     0.298 A 
ATOM      3  N   UNL d   1      33.062  19.683 -23.767  0.00  0.00    -0.238 N 
ATOM      4  N   UNL d   1      32.914  19.421 -23.000  0.00  0.00    -0.209 N 
ATOM      5  C   UNL d   1      33.003  19.033 -24.284  0.00  0.00     0.104 A 
ATOM      6  O   UNL d   1      32.588  18.121 -22.390  0.00  0.00    -0.263 OA
ATOM      7  C   UNL d   1      33.239  20.463 -23.984  0.00  0.00     0.120 C 
ATOM      8  C   UNL d   1      33.109  19.047 -25.096  0.00  0.00     0.022 C 
ENDROOT
BRANCH   1   9
ATOM      9  N   UNL d   1      32.708  17.606 -24.110  0.00  0.00    -0.239 NA
BRANCH   9  10
ATOM     10  C   UNL d   1      31.944  17.290 -24.165  0.00  0.00     0.082 A 
ATOM     11  C   UNL d   1      31.758  16.577 -23.776  0.00  0.00     0.022 A 
ATOM     12  C   UNL d   1      31.005  16.270 -23.832  0.00  0.00     0.041 A 
ATOM     13  C   UNL d   1      30.818  15.560 -23.446  0.00  0.00     0.003 C 
ATOM     14  C   UNL d   1      30.417  16.660 -24.274  0.00  0.00     0.196 A 
ATOM     15  C   UNL d   1      30.605  17.367 -24.658  0.00  0.00     0.041 A 
ATOM     16  O   UNL d   1      29.653  16.344 -24.328  0.00  0.00    -0.287 OA
ATOM     17  C   UNL d   1      31.366  17.677 -24.601  0.00  0.00     0.022 A 
ATOM     18  C   UNL d   1      30.020  17.747 -25.092  0.00  0.00     0.003 C 
ENDBRANCH   9  10
ENDBRANCH   1   9
BRANCH   4  19
ATOM     19  C   UNL d   1      32.917  19.886 -22.318  0.00  0.00     0.085 A 
ATOM     20  C   UNL d   1      32.621  20.649 -22.338  0.00  0.00     0.019 A 
ATOM     21  C   UNL d   1      32.621  21.119 -21.655  0.00  0.00     0.002 A 
ATOM     22  C   UNL d   1      32.923  20.813 -20.950  0.00  0.00     0.000 A 
ATOM     23  C   UNL d   1      33.220  20.048 -20.928  0.00  0.00     0.002 A 
ATOM     24  C   UNL d   1      33.220  19.575 -21.613  0.00  0.00     0.019 A 
ENDBRANCH   4  19
TORSDOF 3
ENDMDL
MODEL 3
REMARK VINA RESULT:      -1.1      1.826      4.711
REMARK  3 active torsions:
REMARK  status: ('A' for Active; 'I' for Inactive)
REMARK    1  A    between atoms: N_6  and  C_1 
REMARK    2  A    between atoms: C_14  and  N_4 
REMARK    3  A    between atoms: C_9  and  N_6 
ROOT
ATOM      1  C   UNL d   1      33.119  19.595 -23.446  0.00  0.00     0.157 A 
ATOM      2  C   UNL d   1      32.984  19.739 -22.647  0.00  0.00     0.298 A 
ATOM      3  N   UNL d   1      32.977  20.905 -23.302  0.00  0.00    -0.238 N 
ATOM      4  N   UNL d   1      32.894  20.560 -22.559  0.00  0.00    -0.209 N 
ATOM      5  C   UNL d   1      33.118  20.302 -23.858  0.00  0.00     0.104 A 
ATOM      6  O   UNL d   1      32.942  19.182 -22.040  0.00  0.00    -0.263 OA
ATOM      7  C   UNL d   1      32.927  21.716 -23.465  0.00  0.00     0.120 C 
ATOM      8  C   UNL d   1      33.232  20.400 -24.664  0.00  0.00     0.022 C 
ENDROOT
BRANCH   1   9
ATOM      9  N   UNL d   1      33.240  18.841 -23.781  0.00  0.00    -0.239 NA
BRANCH   9  10
ATOM     10  C   UNL d   1      32.601  18.326 -23.885  0.00  0.00     0.082 A 
ATOM     11  C   UNL d   1      31.971  18.538 -24.388  0.00  0.00     0.022 A 
ATOM     12  C   UNL d   1      31.343  18.028 -24.487  0.00  0.00     0.041 A 
ATOM     13  C   UNL d   1      30.715  18.238 -24.987  0.00  0.00     0.003 C 
ATOM     14  C   UNL d   1      31.321  17.295 -24.092  0.00  0.00     0.196 A 
ATOM     15  C   UNL d   1      31.947  17.088 -23.595  0.00  0.00     0.041 A 
ATOM     16  O   UNL d   1      30.681  16.780 -24.196  0.00  0.00    -0.287 OA
ATOM     17  C   UNL d   1      32.582  17.604 -23.494  0.00  0.00     0.022 A 
ATOM     18  C   UNL d   1      31.920  16.365 -23.208  0.00  0.00     0.003 C 
ENDBRANCH   9  10
ENDBRANCH   1   9
BRANCH   4  19
ATOM     19  C   UNL d   1      32.749  20.959 -21.851  0.00  0.00     0.085 A 
ATOM     20  C   UNL d   1      33.237  21.572 -21.615  0.00  0.00     0.019 A 
ATOM     21  C   UNL d   1      33.095  21.975 -20.905  0.00  0.00     0.002 A 
ATOM     22  C   UNL d   1      32.455  21.755 -20.432  0.00  0.00     0.000 A 
ATOM     23  C   UNL d   1      31.964  21.139 -20.667  0.00  0.00     0.002 A 
ATOM     24  C   UNL d   1      32.106  20.734 -21.380  0.00  0.00     0.019 A 
ENDBRANCH   4  19
TORSDOF 3
ENDMDL
