MODEL 1
REMARK VINA RESULT:      89.0      0.000      0.000
REMARK  8 active torsions:
REMARK  status: ('A' for Active; 'I' for Inactive)
REMARK    1  A    between atoms: C_6  and  C_1 
REMARK    2  A    between atoms: C_8  and  C_2 
REMARK    3  A    between atoms: S_10  and  C_3 
REMARK    4  A    between atoms: C_15  and  C_4 
REMARK       I    between atoms: N_9  and  C_6 
REMARK    5  A    between atoms: C_19  and  N_9 
REMARK    6  A    between atoms: C_18  and  S_10 
REMARK    7  A    between atoms: C_12  and  C_18 
REMARK       I    between atoms: N_14  and  C_12 
REMARK    8  A    between atoms: C_21  and  N_14 
ROOT
ATOM      1  C   UNL d   1     -50.983  26.138  33.816  0.00  0.00     0.076 A 
ATOM      2  C   UNL d   1     -49.688  26.627  33.495  0.00  0.00     0.045 A 
ATOM      3  C   UNL d   1     -49.975  27.412  33.533  0.00  0.00     0.112 A 
ATOM      4  C   UNL d   1     -50.196  25.999  33.636  0.00  0.00     0.010 A 
ATOM      5  C   UNL d   1     -51.270  26.923  33.854  0.00  0.00     0.087 A 
ATOM      6  N   UNL d   1     -50.764  27.554  33.713  0.00  0.00    -0.239 NA
ATOM      7  C   UNL d   1     -52.090  27.074  34.041  0.00  0.00     0.021 C 
ENDROOT
BRANCH   3   8
ATOM      8  S   UNL d   1     -49.450  28.071  33.387  0.00  0.00    -0.062 SA
BRANCH   8   9
ATOM      9  C   UNL d   1     -49.292  28.635  34.001  0.00  0.00     0.099 C 
BRANCH   9  10
ATOM     10  C   UNL d   1     -49.503  29.439  33.904  0.00  0.00     0.286 C 
ATOM     11  N   UNL d   1     -49.131  30.018  34.350  0.00  0.00    -0.208 NA
ATOM     12  O   UNL d   1     -50.092  29.652  33.351  0.00  0.00    -0.265 OA
BRANCH  11  13
ATOM     13  C   UNL d   1     -48.555  29.809  34.890  0.00  0.00     0.085 A 
ATOM     14  C   UNL d   1     -47.785  29.986  34.727  0.00  0.00     0.019 A 
ATOM     15  C   UNL d   1     -47.203  29.778  35.269  0.00  0.00     0.002 A 
ATOM     16  C   UNL d   1     -47.402  29.392  35.972  0.00  0.00     0.000 A 
ATOM     17  C   UNL d   1     -48.183  29.221  36.120  0.00  0.00     0.002 A 
ATOM     18  C   UNL d   1     -48.759  29.430  35.579  0.00  0.00     0.019 A 
ENDBRANCH  11  13
ENDBRANCH   9  10
ENDBRANCH   8   9
ENDBRANCH   3   8
BRANCH   2  19
ATOM     19  C   UNL d   1     -48.867  26.476  33.308  0.00  0.00     0.124 C 
ATOM     20  N   UNL d   1     -48.266  26.606  33.893  0.00  0.00    -0.146 N 
ENDBRANCH   2  19
BRANCH   4  21
ATOM     21  C   UNL d   1     -49.909  25.215  33.598  0.00  0.00     0.003 A 
ATOM     22  C   UNL d   1     -49.101  25.069  33.616  0.00  0.00     0.021 A 
ATOM     23  C   UNL d   1     -48.815  24.285  33.577  0.00  0.00     0.099 A 
ATOM     24  N   UNL d   1     -49.338  23.651  33.521  0.00  0.00    -0.242 NA
ATOM     25  C   UNL d   1     -50.149  23.801  33.503  0.00  0.00     0.099 A 
ATOM     26  C   UNL d   1     -50.435  24.585  33.542  0.00  0.00     0.021 A 
ENDBRANCH   4  21
BRANCH   1  27
ATOM     27  C   UNL d   1     -51.507  25.479  33.962  0.00  0.00     0.281 C 
ATOM     28  N   UNL d   1     -52.042  25.216  33.357  0.00  0.00    -0.208 NA
ATOM     29  O   UNL d   1     -51.488  25.091  34.717  0.00  0.00    -0.265 OA
BRANCH  28  30
ATOM     30  C   UNL d   1     -52.536  24.600  33.484  0.00  0.00     0.085 A 
ATOM     31  C   UNL d   1     -53.275  24.716  33.783  0.00  0.00     0.019 A 
ATOM     32  C   UNL d   1     -53.803  24.086  33.921  0.00  0.00     0.002 A 
ATOM     33  C   UNL d   1     -53.560  23.326  33.748  0.00  0.00     0.000 A 
ATOM     34  C   UNL d   1     -52.806  23.203  33.442  0.00  0.00     0.002 A 
ATOM     35  C   UNL d   1     -52.285  23.828  33.306  0.00  0.00     0.019 A 
ENDBRANCH  28  30
ENDBRANCH   1  27
TORSDOF 8
ENDMDL
