MODEL 1
REMARK VINA RESULT:      26.5      0.000      0.000
REMARK  4 active torsions:
REMARK  status: ('A' for Active; 'I' for Inactive)
REMARK    1  A    between atoms: N_4  and  C_1 
REMARK    2  A    between atoms: S_8  and  C_2 
REMARK    3  A    between atoms: N_6  and  C_9 
REMARK    4  A    between atoms: C_16  and  S_8 
ROOT
ATOM      1  S   UNL d   1     -57.328 -98.800 -43.821  0.00  0.00    -0.066 SA
ENDROOT
BRANCH   1   2
ATOM      2  C   UNL d   1     -58.055 -98.787 -44.214  0.00  0.00     0.136 A 
ATOM      3  C   UNL d   1     -58.834 -98.791 -43.945  0.00  0.00     0.232 A 
ATOM      4  N   UNL d   1     -59.319 -98.771 -44.621  0.00  0.00    -0.201 NA
ATOM      5  C   UNL d   1     -58.832 -98.755 -45.291  0.00  0.00     0.185 A 
ATOM      6  N   UNL d   1     -58.068 -98.766 -45.019  0.00  0.00    -0.279 N 
ATOM      7  C   UNL d   1     -57.395 -98.755 -45.509  0.00  0.00     0.101 C 
BRANCH   3   8
ATOM      8  N   UNL d   1     -59.091 -98.811 -43.158  0.00  0.00    -0.093 N 
ATOM      9  O   UNL d   1     -58.542 -98.773 -42.540  0.00  0.00    -0.530 OA
ATOM     10  O   UNL d   1     -59.905 -98.869 -42.981  0.00  0.00    -0.530 OA
ENDBRANCH   3   8
ENDBRANCH   1   2
BRANCH   1  11
ATOM     11  C   UNL d   1     -56.742 -99.335 -44.008  0.00  0.00     0.031 A 
ATOM     12  C   UNL d   1     -56.948-100.130 -44.133  0.00  0.00     0.008 A 
ATOM     13  C   UNL d   1     -56.361-100.680 -44.323  0.00  0.00     0.024 A 
ATOM     14  C   UNL d   1     -55.588-100.445 -44.386  0.00  0.00     0.127 A 
ATOM     15  C   UNL d   1     -55.386 -99.649 -44.260  0.00  0.00     0.024 A 
ATOM     16  C   UNL d   1     -55.958 -99.117 -44.075  0.00  0.00     0.008 A 
BRANCH  14  17
ATOM     17  N   UNL d   1     -55.004-100.993 -44.576  0.00  0.00    -0.114 N 
ATOM     18  O   UNL d   1     -54.712-101.495 -43.989  0.00  0.00    -0.532 OA
ATOM     19  O   UNL d   1     -54.714-101.042 -45.342  0.00  0.00    -0.532 OA
ENDBRANCH  14  17
ENDBRANCH   1  11
TORSDOF 4
ENDMDL
