MODEL 1
REMARK VINA RESULT:      -6.6      0.000      0.000
REMARK  6 active torsions:
REMARK  status: ('A' for Active; 'I' for Inactive)
REMARK    1  A    between atoms: N_7  and  C_1 
REMARK    2  A    between atoms: C_6  and  C_4 
REMARK    3  A    between atoms: C_19  and  N_9 
REMARK    4  A    between atoms: C_21  and  C_13 
REMARK    5  A    between atoms: O_20  and  C_21 
REMARK    6  A    between atoms: C_22  and  O_20 
ROOT
ATOM      1  C   UNL d   1      48.906  35.205  52.446  0.00  0.00     0.198 A 
ATOM      2  C   UNL d   1      49.270  35.480  53.176  0.00  0.00     0.191 A 
ATOM      3  O   UNL d   1      49.473  34.731  52.065  0.00  0.00    -0.268 OA
ATOM      4  C   UNL d   1      50.133  34.717  52.528  0.00  0.00     0.208 A 
ATOM      5  N   UNL d   1      50.021  35.156  53.183  0.00  0.00    -0.206 NA
ATOM      6  C   UNL d   1      48.903  35.969  53.730  0.00  0.00     0.124 C 
ATOM      7  N   UNL d   1      48.560  36.463  54.307  0.00  0.00    -0.190 NA
ENDROOT
BRANCH   1   8
ATOM      8  N   UNL d   1      48.145  35.429  52.262  0.00  0.00    -0.280 N 
ATOM      9  C   UNL d   1      47.502  34.951  52.438  0.00  0.00     0.101 A 
ATOM     10  C   UNL d   1      46.742  35.174  52.255  0.00  0.00     0.100 A 
ATOM     11  N   UNL d   1      46.619  35.902  51.882  0.00  0.00    -0.301 N 
ATOM     12  C   UNL d   1      47.260  36.402  51.696  0.00  0.00     0.100 A 
ATOM     13  C   UNL d   1      48.022  36.158  51.889  0.00  0.00     0.101 A 
BRANCH  11  14
ATOM     14  C   UNL d   1      45.856  36.147  51.688  0.00  0.00     0.064 A 
ATOM     15  C   UNL d   1      45.332  36.450  52.267  0.00  0.00     0.018 A 
ATOM     16  C   UNL d   1      44.570  36.694  52.073  0.00  0.00     0.002 A 
ATOM     17  C   UNL d   1      44.319  36.637  51.285  0.00  0.00     0.000 A 
ATOM     18  C   UNL d   1      44.823  36.342  50.705  0.00  0.00     0.002 A 
ATOM     19  C   UNL d   1      45.605  36.090  50.900  0.00  0.00     0.018 A 
ENDBRANCH  11  14
ENDBRANCH   1   8
BRANCH   4  20
ATOM     20  C   UNL d   1      50.889  34.535  52.777  0.00  0.00     0.141 A 
ATOM     21  O   UNL d   1      51.514  34.572  53.343  0.00  0.00    -0.301 OA
ATOM     22  C   UNL d   1      52.159  34.150  53.046  0.00  0.00     0.125 A 
ATOM     23  C   UNL d   1      51.973  33.849  52.325  0.00  0.00     0.029 A 
ATOM     24  C   UNL d   1      51.178  34.099  52.172  0.00  0.00     0.030 A 
BRANCH  22  25
ATOM     25  C   UNL d   1      52.895  34.031  53.401  0.00  0.00     0.147 C 
BRANCH  25  26
ATOM     26  O   UNL d   1      53.155  33.278  53.629  0.00  0.00    -0.303 OA
BRANCH  26  27
ATOM     27  C   UNL d   1      53.677  33.164  54.244  0.00  0.00     0.100 A 
ATOM     28  C   UNL d   1      54.321  33.653  54.383  0.00  0.00     0.025 A 
ATOM     29  C   UNL d   1      54.835  33.522  55.008  0.00  0.00     0.002 A 
ATOM     30  C   UNL d   1      55.492  34.007  55.163  0.00  0.00     0.000 C 
ATOM     31  C   UNL d   1      54.700  32.886  55.506  0.00  0.00     0.000 A 
ATOM     32  C   UNL d   1      54.038  32.372  55.375  0.00  0.00     0.002 A 
ATOM     33  C   UNL d   1      53.534  32.511  54.751  0.00  0.00     0.025 A 
ENDBRANCH  26  27
ENDBRANCH  25  26
ENDBRANCH  22  25
ENDBRANCH   4  20
TORSDOF 6
ENDMDL
MODEL 2
REMARK VINA RESULT:      -4.4     12.024     12.747
REMARK  6 active torsions:
REMARK  status: ('A' for Active; 'I' for Inactive)
REMARK    1  A    between atoms: N_7  and  C_1 
REMARK    2  A    between atoms: C_6  and  C_4 
REMARK    3  A    between atoms: C_19  and  N_9 
REMARK    4  A    between atoms: C_21  and  C_13 
REMARK    5  A    between atoms: O_20  and  C_21 
REMARK    6  A    between atoms: C_22  and  O_20 
ROOT
ATOM      1  C   UNL d   1      44.467  28.922  60.847  0.00  0.00     0.198 A 
ATOM      2  C   UNL d   1      44.576  29.548  61.427  0.00  0.00     0.191 A 
ATOM      3  O   UNL d   1      44.345  28.222  61.279  0.00  0.00    -0.268 OA
ATOM      4  C   UNL d   1      44.377  28.406  62.063  0.00  0.00     0.208 A 
ATOM      5  N   UNL d   1      44.513  29.186  62.158  0.00  0.00    -0.206 NA
ATOM      6  C   UNL d   1      44.714  30.341  61.244  0.00  0.00     0.124 C 
ATOM      7  N   UNL d   1      44.855  31.148  61.091  0.00  0.00    -0.190 NA
ENDROOT
BRANCH   1   8
ATOM      8  N   UNL d   1      44.497  29.094  60.052  0.00  0.00    -0.280 N 
ATOM      9  C   UNL d   1      44.316  29.843  59.768  0.00  0.00     0.101 A 
ATOM     10  C   UNL d   1      44.346  30.015  58.974  0.00  0.00     0.100 A 
ATOM     11  N   UNL d   1      44.565  29.418  58.444  0.00  0.00    -0.301 N 
ATOM     12  C   UNL d   1      44.752  28.653  58.715  0.00  0.00     0.100 A 
ATOM     13  C   UNL d   1      44.716  28.498  59.522  0.00  0.00     0.101 A 
BRANCH  11  14
ATOM     14  C   UNL d   1      44.601  29.574  57.635  0.00  0.00     0.064 A 
ATOM     15  C   UNL d   1      44.574  28.957  57.069  0.00  0.00     0.018 A 
ATOM     16  C   UNL d   1      44.610  29.112  56.261  0.00  0.00     0.002 A 
ATOM     17  C   UNL d   1      44.675  29.898  56.005  0.00  0.00     0.000 A 
ATOM     18  C   UNL d   1      44.704  30.514  56.550  0.00  0.00     0.002 A 
ATOM     19  C   UNL d   1      44.667  30.360  57.380  0.00  0.00     0.018 A 
ENDBRANCH  11  14
ENDBRANCH   1   8
BRANCH   4  20
ATOM     20  C   UNL d   1      44.360  28.309  62.874  0.00  0.00     0.141 A 
ATOM     21  O   UNL d   1      44.355  28.617  63.659  0.00  0.00    -0.301 OA
ATOM     22  C   UNL d   1      44.328  27.982  64.187  0.00  0.00     0.125 A 
ATOM     23  C   UNL d   1      44.315  27.292  63.776  0.00  0.00     0.029 A 
ATOM     24  C   UNL d   1      44.336  27.514  62.958  0.00  0.00     0.030 A 
BRANCH  22  25
ATOM     25  C   UNL d   1      44.314  28.009  65.012  0.00  0.00     0.147 C 
BRANCH  25  26
ATOM     26  O   UNL d   1      45.004  28.109  65.459  0.00  0.00    -0.303 OA
BRANCH  26  27
ATOM     27  C   UNL d   1      45.035  27.948  66.257  0.00  0.00     0.100 A 
ATOM     28  C   UNL d   1      45.375  27.268  66.566  0.00  0.00     0.025 A 
ATOM     29  C   UNL d   1      45.396  27.125  67.373  0.00  0.00     0.002 A 
ATOM     30  C   UNL d   1      45.737  26.441  67.702  0.00  0.00     0.000 C 
ATOM     31  C   UNL d   1      45.068  27.675  67.883  0.00  0.00     0.000 A 
ATOM     32  C   UNL d   1      44.713  28.383  67.578  0.00  0.00     0.002 A 
ATOM     33  C   UNL d   1      44.697  28.516  66.775  0.00  0.00     0.025 A 
ENDBRANCH  26  27
ENDBRANCH  25  26
ENDBRANCH  22  25
ENDBRANCH   4  20
TORSDOF 6
ENDMDL
MODEL 3
REMARK VINA RESULT:      -4.0      1.740      7.188
REMARK  6 active torsions:
REMARK  status: ('A' for Active; 'I' for Inactive)
REMARK    1  A    between atoms: N_7  and  C_1 
REMARK    2  A    between atoms: C_6  and  C_4 
REMARK    3  A    between atoms: C_19  and  N_9 
REMARK    4  A    between atoms: C_21  and  C_13 
REMARK    5  A    between atoms: O_20  and  C_21 
REMARK    6  A    between atoms: C_22  and  O_20 
ROOT
ATOM      1  C   UNL d   1      50.653  33.626  52.738  0.00  0.00     0.198 A 
ATOM      2  C   UNL d   1      50.710  34.426  53.050  0.00  0.00     0.191 A 
ATOM      3  O   UNL d   1      49.925  33.581  52.339  0.00  0.00    -0.268 OA
ATOM      4  C   UNL d   1      49.564  34.299  52.402  0.00  0.00     0.208 A 
ATOM      5  N   UNL d   1      50.021  34.802  52.819  0.00  0.00    -0.206 NA
ATOM      6  C   UNL d   1      51.346  34.717  53.487  0.00  0.00     0.124 C 
ATOM      7  N   UNL d   1      51.973  35.040  53.931  0.00  0.00    -0.190 NA
ENDROOT
BRANCH   1   8
ATOM      8  N   UNL d   1      51.256  33.095  52.870  0.00  0.00    -0.280 N 
ATOM      9  C   UNL d   1      52.026  33.252  52.633  0.00  0.00     0.101 A 
ATOM     10  C   UNL d   1      52.628  32.722  52.764  0.00  0.00     0.100 A 
ATOM     11  N   UNL d   1      52.456  32.009  53.146  0.00  0.00    -0.301 N 
ATOM     12  C   UNL d   1      51.680  31.832  53.393  0.00  0.00     0.100 A 
ATOM     13  C   UNL d   1      51.084  32.381  53.251  0.00  0.00     0.101 A 
BRANCH  11  14
ATOM     14  C   UNL d   1      53.053  31.458  53.288  0.00  0.00     0.064 A 
ATOM     15  C   UNL d   1      53.742  31.660  53.720  0.00  0.00     0.018 A 
ATOM     16  C   UNL d   1      54.338  31.111  53.862  0.00  0.00     0.002 A 
ATOM     17  C   UNL d   1      54.252  30.340  53.568  0.00  0.00     0.000 A 
ATOM     18  C   UNL d   1      53.581  30.127  53.142  0.00  0.00     0.002 A 
ATOM     19  C   UNL d   1      52.967  30.688  52.994  0.00  0.00     0.018 A 
ENDBRANCH  11  14
ENDBRANCH   1   8
BRANCH   4  20
ATOM     20  C   UNL d   1      49.001  34.884  52.311  0.00  0.00     0.141 A 
ATOM     21  O   UNL d   1      48.589  35.566  52.584  0.00  0.00    -0.301 OA
ATOM     22  C   UNL d   1      48.033  35.781  52.011  0.00  0.00     0.125 A 
ATOM     23  C   UNL d   1      48.075  35.270  51.393  0.00  0.00     0.029 A 
ATOM     24  C   UNL d   1      48.684  34.717  51.596  0.00  0.00     0.030 A 
BRANCH  22  25
ATOM     25  C   UNL d   1      47.502  36.412  52.031  0.00  0.00     0.147 C 
BRANCH  25  26
ATOM     26  O   UNL d   1      47.198  36.708  52.743  0.00  0.00    -0.303 OA
BRANCH  26  27
ATOM     27  C   UNL d   1      46.402  36.708  52.912  0.00  0.00     0.100 A 
ATOM     28  C   UNL d   1      46.105  36.709  53.677  0.00  0.00     0.025 A 
ATOM     29  C   UNL d   1      45.300  36.708  53.828  0.00  0.00     0.002 A 
ATOM     30  C   UNL d   1      44.983  36.709  54.597  0.00  0.00     0.000 C 
ATOM     31  C   UNL d   1      44.778  36.707  53.197  0.00  0.00     0.000 A 
ATOM     32  C   UNL d   1      45.069  36.707  52.400  0.00  0.00     0.002 A 
ATOM     33  C   UNL d   1      45.871  36.707  52.261  0.00  0.00     0.025 A 
ENDBRANCH  26  27
ENDBRANCH  25  26
ENDBRANCH  22  25
ENDBRANCH   4  20
TORSDOF 6
ENDMDL
