MODEL 1
REMARK VINA RESULT:      -4.3      0.000      0.000
REMARK  6 active torsions:
REMARK  status: ('A' for Active; 'I' for Inactive)
REMARK    1  A    between atoms: C_10  and  C_1 
REMARK    2  A    between atoms: C_7  and  O_9 
REMARK       I    between atoms: N_12  and  C_7 
REMARK    3  A    between atoms: O_9  and  C_14 
REMARK    4  A    between atoms: C_24  and  N_12 
REMARK    5  A    between atoms: C_25  and  N_12 
REMARK    6  A    between atoms: O_23  and  C_20 
ROOT
ATOM      1  C   UNL d   1      56.567  -0.507  32.458  0.00  0.00     0.062 A 
ATOM      2  C   UNL d   1      57.150  -0.062  32.059  0.00  0.00     0.199 A 
ATOM      3  C   UNL d   1      56.352  -1.262  32.163  0.00  0.00     0.103 A 
ATOM      4  C   UNL d   1      57.514  -0.354  31.384  0.00  0.00     0.062 A 
ATOM      5  C   UNL d   1      57.300  -1.106  31.091  0.00  0.00     0.105 A 
ATOM      6  O   UNL d   1      56.722  -1.561  31.476  0.00  0.00    -0.307 OA
ATOM      7  C   UNL d   1      57.667  -1.406  30.407  0.00  0.00     0.050 A 
ATOM      8  C   UNL d   1      58.095   0.083  30.982  0.00  0.00     0.007 A 
ATOM      9  O   UNL d   1      57.359   0.681  32.353  0.00  0.00    -0.286 OA
ATOM     10  C   UNL d   1      58.241  -0.962  30.017  0.00  0.00     0.107 A 
ATOM     11  C   UNL d   1      58.455  -0.218  30.304  0.00  0.00     0.025 A 
ATOM     12  C   UNL d   1      55.778  -1.706  32.553  0.00  0.00     0.027 C 
ENDROOT
BRANCH   1  13
ATOM     13  C   UNL d   1      56.206  -0.210  33.134  0.00  0.00     0.005 A 
ATOM     14  C   UNL d   1      56.647  -0.114  33.831  0.00  0.00     0.002 A 
ATOM     15  C   UNL d   1      56.285   0.183  34.507  0.00  0.00     0.024 A 
ATOM     16  C   UNL d   1      55.486   0.385  34.493  0.00  0.00     0.094 A 
ATOM     17  C   UNL d   1      55.042   0.289  33.793  0.00  0.00     0.024 A 
ATOM     18  C   UNL d   1      55.406  -0.007  33.121  0.00  0.00     0.002 A 
BRANCH  16  19
ATOM     19  O   UNL d   1      55.121   0.682  35.166  0.00  0.00    -0.328 OA
ATOM     20  C   UNL d   1      55.404   0.484  35.914  0.00  0.00     0.181 C 
ENDBRANCH  16  19
ENDBRANCH   1  13
BRANCH  10  21
ATOM     21  O   UNL d   1      58.602  -1.262  29.339  0.00  0.00    -0.259 OA
BRANCH  21  22
ATOM     22  C   UNL d   1      58.975  -1.997  29.364  0.00  0.00     0.377 C 
ATOM     23  N   UNL d   1      59.730  -2.085  29.044  0.00  0.00    -0.252 N 
ATOM     24  O   UNL d   1      58.593  -2.644  29.708  0.00  0.00    -0.237 OA
BRANCH  23  25
ATOM     25  C   UNL d   1      60.117  -1.438  28.698  0.00  0.00     0.085 C 
ATOM     26  C   UNL d   1      60.904  -1.492  28.456  0.00  0.00     0.021 C 
ENDBRANCH  23  25
BRANCH  23  27
ATOM     27  C   UNL d   1      60.106  -2.822  29.068  0.00  0.00     0.085 C 
ATOM     28  C   UNL d   1      60.860  -2.895  29.417  0.00  0.00     0.021 C 
ENDBRANCH  23  27
ENDBRANCH  21  22
ENDBRANCH  10  21
TORSDOF 6
ENDMDL
MODEL 2
REMARK VINA RESULT:      -2.9      1.720      5.741
REMARK  6 active torsions:
REMARK  status: ('A' for Active; 'I' for Inactive)
REMARK    1  A    between atoms: C_10  and  C_1 
REMARK    2  A    between atoms: C_7  and  O_9 
REMARK       I    between atoms: N_12  and  C_7 
REMARK    3  A    between atoms: O_9  and  C_14 
REMARK    4  A    between atoms: C_24  and  N_12 
REMARK    5  A    between atoms: C_25  and  N_12 
REMARK    6  A    between atoms: O_23  and  C_20 
ROOT
ATOM      1  C   UNL d   1      58.130  -0.650  30.563  0.00  0.00     0.062 A 
ATOM      2  C   UNL d   1      57.584  -1.063  31.041  0.00  0.00     0.199 A 
ATOM      3  C   UNL d   1      58.178   0.185  30.622  0.00  0.00     0.103 A 
ATOM      4  C   UNL d   1      57.096  -0.663  31.566  0.00  0.00     0.062 A 
ATOM      5  C   UNL d   1      57.145   0.168  31.625  0.00  0.00     0.105 A 
ATOM      6  O   UNL d   1      57.682   0.595  31.157  0.00  0.00    -0.307 OA
ATOM      7  C   UNL d   1      56.652   0.578  32.156  0.00  0.00     0.050 A 
ATOM      8  C   UNL d   1      56.551  -1.068  32.045  0.00  0.00     0.007 A 
ATOM      9  O   UNL d   1      57.539  -1.886  30.980  0.00  0.00    -0.286 OA
ATOM     10  C   UNL d   1      56.115   0.164  32.625  0.00  0.00     0.107 A 
ATOM     11  C   UNL d   1      56.065  -0.658  32.569  0.00  0.00     0.025 A 
ATOM     12  C   UNL d   1      58.715   0.599  30.153  0.00  0.00     0.027 C 
ENDROOT
BRANCH   1  13
ATOM     13  C   UNL d   1      58.616  -1.055  30.039  0.00  0.00     0.005 A 
ATOM     14  C   UNL d   1      59.391  -1.252  30.262  0.00  0.00     0.002 A 
ATOM     15  C   UNL d   1      59.878  -1.658  29.737  0.00  0.00     0.024 A 
ATOM     16  C   UNL d   1      59.597  -1.868  28.992  0.00  0.00     0.094 A 
ATOM     17  C   UNL d   1      58.818  -1.671  28.767  0.00  0.00     0.024 A 
ATOM     18  C   UNL d   1      58.335  -1.266  29.293  0.00  0.00     0.002 A 
BRANCH  16  19
ATOM     19  O   UNL d   1      60.079  -2.273  28.465  0.00  0.00    -0.328 OA
ATOM     20  C   UNL d   1      60.522  -2.920  28.719  0.00  0.00     0.181 C 
ENDBRANCH  16  19
ENDBRANCH   1  13
BRANCH  10  21
ATOM     21  O   UNL d   1      55.629   0.574  33.150  0.00  0.00    -0.259 OA
BRANCH  21  22
ATOM     22  C   UNL d   1      55.710   0.457  33.961  0.00  0.00     0.377 C 
ATOM     23  N   UNL d   1      55.042   0.441  34.444  0.00  0.00    -0.252 N 
ATOM     24  O   UNL d   1      56.461   0.355  34.291  0.00  0.00    -0.237 OA
BRANCH  23  25
ATOM     25  C   UNL d   1      54.286   0.543  34.116  0.00  0.00     0.085 C 
ATOM     26  C   UNL d   1      53.606   0.428  34.569  0.00  0.00     0.021 C 
ENDBRANCH  23  25
BRANCH  23  27
ATOM     27  C   UNL d   1      55.122   0.324  35.259  0.00  0.00     0.085 C 
ATOM     28  C   UNL d   1      55.758   0.672  35.670  0.00  0.00     0.021 C 
ENDBRANCH  23  27
ENDBRANCH  21  22
ENDBRANCH  10  21
TORSDOF 6
ENDMDL
