MODEL 1
REMARK VINA RESULT:      81.5      0.000      0.000
REMARK  6 active torsions:
REMARK  status: ('A' for Active; 'I' for Inactive)
REMARK    1  A    between atoms: C_10  and  N_4 
REMARK    2  A    between atoms: C_12  and  C_9 
REMARK    3  A    between atoms: C_15  and  C_10 
REMARK    4  A    between atoms: C_17  and  N_11 
REMARK    5  A    between atoms: N_13  and  C_12 
REMARK    6  A    between atoms: O_30  and  C_27 
ROOT
ATOM      1  C   UNL d   1      14.138  13.527  -2.028  0.00  0.00     0.157 A 
ATOM      2  C   UNL d   1      14.590  14.214  -1.999  0.00  0.00     0.174 A 
ATOM      3  N   UNL d   1      15.060  14.367  -1.334  0.00  0.00    -0.240 N 
ATOM      4  N   UNL d   1      13.729  13.516  -2.743  0.00  0.00    -0.283 N 
ATOM      5  N   UNL d   1      14.619  13.147  -0.743  0.00  0.00    -0.223 N 
ATOM      6  C   UNL d   1      15.075  13.837  -0.710  0.00  0.00     0.343 A 
ATOM      7  C   UNL d   1      14.145  12.981  -1.401  0.00  0.00     0.287 A 
ATOM      8  N   UNL d   1      14.462  14.632  -2.697  0.00  0.00    -0.207 NA
ATOM      9  C   UNL d   1      13.930  14.199  -3.157  0.00  0.00     0.167 A 
ATOM     10  O   UNL d   1      15.546  13.990  -0.045  0.00  0.00    -0.245 OA
ATOM     11  O   UNL d   1      13.694  12.299  -1.433  0.00  0.00    -0.265 OA
ATOM     12  C   UNL d   1      15.515  15.056  -1.301  0.00  0.00     0.105 C 
ATOM     13  C   UNL d   1      14.635  12.611  -0.111  0.00  0.00     0.107 C 
ENDROOT
BRANCH   9  14
ATOM     14  C   UNL d   1      13.648  14.417  -3.904  0.00  0.00     0.118 C 
BRANCH  14  15
ATOM     15  N   UNL d   1      13.801  15.164  -4.198  0.00  0.00    -0.297 N 
ATOM     16  C   UNL d   1      14.522  15.537  -4.045  0.00  0.00     0.100 A 
ATOM     17  C   UNL d   1      14.684  16.293  -4.339  0.00  0.00     0.100 A 
ATOM     18  N   UNL d   1      14.112  16.685  -4.796  0.00  0.00    -0.301 N 
ATOM     19  C   UNL d   1      13.385  16.317  -4.953  0.00  0.00     0.100 A 
ATOM     20  C   UNL d   1      13.234  15.558  -4.653  0.00  0.00     0.100 A 
BRANCH  18  21
ATOM     21  C   UNL d   1      14.270  17.439  -5.090  0.00  0.00     0.064 A 
ATOM     22  C   UNL d   1      14.885  17.876  -4.774  0.00  0.00     0.020 A 
ATOM     23  C   UNL d   1      15.047  18.637  -5.069  0.00  0.00     0.026 A 
ATOM     24  C   UNL d   1      14.585  18.948  -5.680  0.00  0.00     0.094 A 
ATOM     25  C   UNL d   1      13.963  18.496  -5.994  0.00  0.00     0.026 A 
ATOM     26  C   UNL d   1      13.806  17.742  -5.699  0.00  0.00     0.020 A 
BRANCH  24  27
ATOM     27  O   UNL d   1      14.733  19.697  -5.981  0.00  0.00    -0.328 OA
ATOM     28  C   UNL d   1      14.104  20.147  -6.270  0.00  0.00     0.181 C 
ENDBRANCH  24  27
ENDBRANCH  18  21
ENDBRANCH  14  15
ENDBRANCH   9  14
BRANCH   4  29
ATOM     29  C   UNL d   1      13.210  12.925  -3.001  0.00  0.00     0.082 C 
BRANCH  29  30
ATOM     30  C   UNL d   1      13.269  12.642  -3.763  0.00  0.00     0.018 A 
ATOM     31  C   UNL d   1      13.829  12.072  -3.931  0.00  0.00     0.001 A 
ATOM     32  C   UNL d   1      14.331  11.779  -3.348  0.00  0.00     0.000 C 
ATOM     33  C   UNL d   1      13.893  11.780  -4.709  0.00  0.00     0.000 A 
ATOM     34  C   UNL d   1      13.396  12.065  -5.303  0.00  0.00     0.000 A 
ATOM     35  C   UNL d   1      12.836  12.638  -5.128  0.00  0.00     0.000 A 
ATOM     36  C   UNL d   1      12.770  12.928  -4.360  0.00  0.00     0.002 A 
ENDBRANCH  29  30
ENDBRANCH   4  29
TORSDOF 6
ENDMDL
MODEL 2
REMARK VINA RESULT:      82.5      1.160      2.861
REMARK  6 active torsions:
REMARK  status: ('A' for Active; 'I' for Inactive)
REMARK    1  A    between atoms: C_10  and  N_4 
REMARK    2  A    between atoms: C_12  and  C_9 
REMARK    3  A    between atoms: C_15  and  C_10 
REMARK    4  A    between atoms: C_17  and  N_11 
REMARK    5  A    between atoms: N_13  and  C_12 
REMARK    6  A    between atoms: O_30  and  C_27 
ROOT
ATOM      1  C   UNL d   1      13.741  13.697  -3.444  0.00  0.00     0.157 A 
ATOM      2  C   UNL d   1      13.918  13.939  -4.211  0.00  0.00     0.174 A 
ATOM      3  N   UNL d   1      13.709  13.456  -4.850  0.00  0.00    -0.240 N 
ATOM      4  N   UNL d   1      14.008  14.277  -2.922  0.00  0.00    -0.283 N 
ATOM      5  N   UNL d   1      13.153  12.502  -3.948  0.00  0.00    -0.223 N 
ATOM      6  C   UNL d   1      13.329  12.741  -4.720  0.00  0.00     0.343 A 
ATOM      7  C   UNL d   1      13.356  12.975  -3.299  0.00  0.00     0.287 A 
ATOM      8  N   UNL d   1      14.295  14.670  -4.166  0.00  0.00    -0.207 NA
ATOM      9  C   UNL d   1      14.350  14.878  -3.369  0.00  0.00     0.167 A 
ATOM     10  O   UNL d   1      13.120  12.259  -5.360  0.00  0.00    -0.245 OA
ATOM     11  O   UNL d   1      13.182  12.739  -2.535  0.00  0.00    -0.265 OA
ATOM     12  C   UNL d   1      13.885  13.695  -5.622  0.00  0.00     0.105 C 
ATOM     13  C   UNL d   1      12.769  11.781  -3.817  0.00  0.00     0.107 C 
ENDROOT
BRANCH   9  14
ATOM     14  C   UNL d   1      14.691  15.571  -3.072  0.00  0.00     0.118 C 
BRANCH  14  15
ATOM     15  N   UNL d   1      14.707  16.248  -3.531  0.00  0.00    -0.297 N 
ATOM     16  C   UNL d   1      14.354  16.260  -4.277  0.00  0.00     0.100 A 
ATOM     17  C   UNL d   1      14.366  16.940  -4.747  0.00  0.00     0.100 A 
ATOM     18  N   UNL d   1      14.740  17.625  -4.464  0.00  0.00    -0.301 N 
ATOM     19  C   UNL d   1      15.098  17.620  -3.715  0.00  0.00     0.100 A 
ATOM     20  C   UNL d   1      15.079  16.932  -3.252  0.00  0.00     0.100 A 
BRANCH  18  21
ATOM     21  C   UNL d   1      14.755  18.306  -4.929  0.00  0.00     0.064 A 
ATOM     22  C   UNL d   1      15.472  18.614  -5.174  0.00  0.00     0.020 A 
ATOM     23  C   UNL d   1      15.491  19.300  -5.643  0.00  0.00     0.026 A 
ATOM     24  C   UNL d   1      14.783  19.669  -5.860  0.00  0.00     0.094 A 
ATOM     25  C   UNL d   1      14.060  19.348  -5.606  0.00  0.00     0.026 A 
ATOM     26  C   UNL d   1      14.046  18.667  -5.141  0.00  0.00     0.020 A 
BRANCH  24  27
ATOM     27  O   UNL d   1      14.785  20.347  -6.322  0.00  0.00    -0.328 OA
ATOM     28  C   UNL d   1      14.773  21.085  -5.954  0.00  0.00     0.181 C 
ENDBRANCH  24  27
ENDBRANCH  18  21
ENDBRANCH  14  15
ENDBRANCH   9  14
BRANCH   4  29
ATOM     29  C   UNL d   1      13.943  14.258  -2.097  0.00  0.00     0.082 C 
BRANCH  29  30
ATOM     30  C   UNL d   1      14.503  13.859  -1.659  0.00  0.00     0.018 A 
ATOM     31  C   UNL d   1      14.829  14.226  -1.006  0.00  0.00     0.001 A 
ATOM     32  C   UNL d   1      14.604  14.985  -0.785  0.00  0.00     0.000 C 
ATOM     33  C   UNL d   1      15.402  13.821  -0.556  0.00  0.00     0.000 A 
ATOM     34  C   UNL d   1      15.636  13.059  -0.767  0.00  0.00     0.000 A 
ATOM     35  C   UNL d   1      15.305  12.696  -1.424  0.00  0.00     0.000 A 
ATOM     36  C   UNL d   1      14.739  13.093  -1.871  0.00  0.00     0.002 A 
ENDBRANCH  29  30
ENDBRANCH   4  29
TORSDOF 6
ENDMDL
