MODEL 1
REMARK VINA RESULT:      -9.6      0.000      0.000
REMARK  3 active torsions:
REMARK  status: ('A' for Active; 'I' for Inactive)
REMARK    1  A    between atoms: C_6  and  N_1 
REMARK    2  A    between atoms: C_8  and  C_6 
REMARK    3  A    between atoms: O_15  and  C_9 
ROOT
ATOM      1  N   UNL d   1      53.279  32.713  53.289  0.00  0.00    -0.268 N 
ATOM      2  C   UNL d   1      52.545  33.036  53.091  0.00  0.00     0.296 A 
ATOM      3  S   UNL d   1      52.412  33.690  53.593  0.00  0.00    -0.025 SA
ATOM      4  C   UNL d   1      53.598  33.164  53.909  0.00  0.00     0.073 A 
ATOM      5  C   UNL d   1      53.070  33.758  54.093  0.00  0.00     0.050 A 
ATOM      6  O   UNL d   1      52.041  32.758  52.505  0.00  0.00    -0.259 OA
ATOM      7  C   UNL d   1      54.308  33.098  54.323  0.00  0.00     0.018 A 
ATOM      8  C   UNL d   1      53.239  34.302  54.697  0.00  0.00     0.008 A 
ATOM      9  C   UNL d   1      54.484  33.635  54.925  0.00  0.00     0.002 A 
ATOM     10  C   UNL d   1      53.947  34.240  55.113  0.00  0.00     0.001 A 
ENDROOT
BRANCH   1  11
ATOM     11  C   UNL d   1      53.635  32.058  52.936  0.00  0.00     0.084 C 
BRANCH  11  12
ATOM     12  C   UNL d   1      53.454  31.300  53.196  0.00  0.00     0.018 A 
ATOM     13  C   UNL d   1      53.972  30.911  53.707  0.00  0.00     0.004 A 
ATOM     14  C   UNL d   1      53.796  30.154  53.970  0.00  0.00     0.024 A 
ATOM     15  C   UNL d   1      53.100  29.777  53.726  0.00  0.00     0.094 A 
ATOM     16  C   UNL d   1      52.581  30.175  53.211  0.00  0.00     0.024 A 
ATOM     17  C   UNL d   1      52.762  30.933  52.950  0.00  0.00     0.004 A 
BRANCH  15  18
ATOM     18  O   UNL d   1      52.889  29.022  53.967  0.00  0.00    -0.328 OA
ATOM     19  C   UNL d   1      53.199  28.709  54.660  0.00  0.00     0.181 C 
ENDBRANCH  15  18
ENDBRANCH  11  12
ENDBRANCH   1  11
TORSDOF 3
ENDMDL
MODEL 2
REMARK VINA RESULT:      -9.4      1.026      1.627
REMARK  3 active torsions:
REMARK  status: ('A' for Active; 'I' for Inactive)
REMARK    1  A    between atoms: C_6  and  N_1 
REMARK    2  A    between atoms: C_8  and  C_6 
REMARK    3  A    between atoms: O_15  and  C_9 
ROOT
ATOM      1  N   UNL d   1      53.334  32.966  53.432  0.00  0.00    -0.268 N 
ATOM      2  C   UNL d   1      53.648  33.252  54.140  0.00  0.00     0.296 A 
ATOM      3  S   UNL d   1      53.183  33.902  54.380  0.00  0.00    -0.025 SA
ATOM      4  C   UNL d   1      52.678  33.435  53.235  0.00  0.00     0.073 A 
ATOM      5  C   UNL d   1      52.587  34.005  53.812  0.00  0.00     0.050 A 
ATOM      6  O   UNL d   1      54.302  32.947  54.532  0.00  0.00    -0.259 OA
ATOM      7  C   UNL d   1      52.157  33.407  52.597  0.00  0.00     0.018 A 
ATOM      8  C   UNL d   1      51.971  34.560  53.765  0.00  0.00     0.008 A 
ATOM      9  C   UNL d   1      51.542  33.955  52.542  0.00  0.00     0.002 A 
ATOM     10  C   UNL d   1      51.449  34.535  53.129  0.00  0.00     0.001 A 
ENDROOT
BRANCH   1  11
ATOM     11  C   UNL d   1      53.619  32.327  52.995  0.00  0.00     0.084 C 
BRANCH  11  12
ATOM     12  C   UNL d   1      53.439  31.559  53.225  0.00  0.00     0.018 A 
ATOM     13  C   UNL d   1      53.865  31.207  53.838  0.00  0.00     0.004 A 
ATOM     14  C   UNL d   1      53.689  30.440  54.070  0.00  0.00     0.024 A 
ATOM     15  C   UNL d   1      53.086  30.016  53.693  0.00  0.00     0.094 A 
ATOM     16  C   UNL d   1      52.660  30.376  53.076  0.00  0.00     0.024 A 
ATOM     17  C   UNL d   1      52.840  31.144  52.847  0.00  0.00     0.004 A 
BRANCH  15  18
ATOM     18  O   UNL d   1      52.881  29.248  53.897  0.00  0.00    -0.328 OA
ATOM     19  C   UNL d   1      53.237  28.884  54.541  0.00  0.00     0.181 C 
ENDBRANCH  15  18
ENDBRANCH  11  12
ENDBRANCH   1  11
TORSDOF 3
ENDMDL
MODEL 3
REMARK VINA RESULT:      -9.0      1.623      3.387
REMARK  3 active torsions:
REMARK  status: ('A' for Active; 'I' for Inactive)
REMARK    1  A    between atoms: C_6  and  N_1 
REMARK    2  A    between atoms: C_8  and  C_6 
REMARK    3  A    between atoms: O_15  and  C_9 
ROOT
ATOM      1  N   UNL d   1      53.215  32.888  53.282  0.00  0.00    -0.268 N 
ATOM      2  C   UNL d   1      53.173  32.063  53.268  0.00  0.00     0.296 A 
ATOM      3  S   UNL d   1      53.574  31.777  53.942  0.00  0.00    -0.025 SA
ATOM      4  C   UNL d   1      53.638  33.110  53.960  0.00  0.00     0.073 A 
ATOM      5  C   UNL d   1      53.856  32.434  54.362  0.00  0.00     0.050 A 
ATOM      6  O   UNL d   1      52.803  31.611  52.691  0.00  0.00    -0.259 OA
ATOM      7  C   UNL d   1      53.848  33.852  54.255  0.00  0.00     0.018 A 
ATOM      8  C   UNL d   1      54.290  32.483  55.068  0.00  0.00     0.008 A 
ATOM      9  C   UNL d   1      54.279  33.909  54.957  0.00  0.00     0.002 A 
ATOM     10  C   UNL d   1      54.501  33.221  55.366  0.00  0.00     0.001 A 
ENDROOT
BRANCH   1  11
ATOM     11  C   UNL d   1      52.894  33.402  52.723  0.00  0.00     0.084 C 
BRANCH  11  12
ATOM     12  C   UNL d   1      52.121  33.669  52.804  0.00  0.00     0.018 A 
ATOM     13  C   UNL d   1      51.973  34.480  52.842  0.00  0.00     0.004 A 
ATOM     14  C   UNL d   1      51.203  34.751  52.923  0.00  0.00     0.024 A 
ATOM     15  C   UNL d   1      50.573  34.216  52.968  0.00  0.00     0.094 A 
ATOM     16  C   UNL d   1      50.728  33.400  52.930  0.00  0.00     0.024 A 
ATOM     17  C   UNL d   1      51.502  33.133  52.848  0.00  0.00     0.004 A 
BRANCH  15  18
ATOM     18  O   UNL d   1      49.790  34.448  53.050  0.00  0.00    -0.328 OA
ATOM     19  C   UNL d   1      49.412  34.845  52.438  0.00  0.00     0.181 C 
ENDBRANCH  15  18
ENDBRANCH  11  12
ENDBRANCH   1  11
TORSDOF 3
ENDMDL
MODEL 4
REMARK VINA RESULT:      -8.6      1.271      3.645
REMARK  3 active torsions:
REMARK  status: ('A' for Active; 'I' for Inactive)
REMARK    1  A    between atoms: C_6  and  N_1 
REMARK    2  A    between atoms: C_8  and  C_6 
REMARK    3  A    between atoms: O_15  and  C_9 
ROOT
ATOM      1  N   UNL d   1      53.488  31.503  53.264  0.00  0.00    -0.268 N 
ATOM      2  C   UNL d   1      52.835  31.665  52.785  0.00  0.00     0.296 A 
ATOM      3  S   UNL d   1      52.347  30.988  52.783  0.00  0.00    -0.025 SA
ATOM      4  C   UNL d   1      53.405  30.731  53.557  0.00  0.00     0.073 A 
ATOM      5  C   UNL d   1      52.710  30.418  53.265  0.00  0.00     0.050 A 
ATOM      6  O   UNL d   1      52.697  32.369  52.384  0.00  0.00    -0.259 OA
ATOM      7  C   UNL d   1      53.883  30.281  54.056  0.00  0.00     0.018 A 
ATOM      8  C   UNL d   1      52.477  29.647  53.464  0.00  0.00     0.008 A 
ATOM      9  C   UNL d   1      53.658  29.513  54.260  0.00  0.00     0.002 A 
ATOM     10  C   UNL d   1      52.951  29.194  53.962  0.00  0.00     0.001 A 
ENDROOT
BRANCH   1  11
ATOM     11  C   UNL d   1      54.114  32.015  53.424  0.00  0.00     0.084 C 
BRANCH  11  12
ATOM     12  C   UNL d   1      53.996  32.674  53.902  0.00  0.00     0.018 A 
ATOM     13  C   UNL d   1      53.776  33.391  53.558  0.00  0.00     0.004 A 
ATOM     14  C   UNL d   1      53.656  34.051  54.031  0.00  0.00     0.024 A 
ATOM     15  C   UNL d   1      53.755  34.002  54.851  0.00  0.00     0.094 A 
ATOM     16  C   UNL d   1      53.977  33.277  55.192  0.00  0.00     0.024 A 
ATOM     17  C   UNL d   1      54.095  32.618  54.714  0.00  0.00     0.004 A 
BRANCH  15  18
ATOM     18  O   UNL d   1      53.644  34.639  55.356  0.00  0.00    -0.328 OA
ATOM     19  C   UNL d   1      53.134  35.247  55.146  0.00  0.00     0.181 C 
ENDBRANCH  15  18
ENDBRANCH  11  12
ENDBRANCH   1  11
TORSDOF 3
ENDMDL
