MODEL 1
REMARK VINA RESULT:      -4.0      0.000      0.000
REMARK  5 active torsions:
REMARK  status: ('A' for Active; 'I' for Inactive)
REMARK    1  A    between atoms: C_5  and  N_1 
REMARK    2  A    between atoms: C_2  and  C_7 
REMARK    3  A    between atoms: C_9  and  C_2 
REMARK    4  A    between atoms: C_3  and  C_4 
REMARK    5  A    between atoms: C_7  and  C_8 
ROOT
ATOM      1  C   UNL d   1     -41.510-122.406 -53.146  0.00  0.00     0.100 C 
ATOM      2  C   UNL d   1     -41.316-123.087 -53.572  0.00  0.00     0.103 C 
ATOM      3  N   UNL d   1     -41.123-123.770 -53.999  0.00  0.00    -0.191 NA
ENDROOT
BRANCH   1   4
ATOM      4  C   UNL d   1     -41.123-122.234 -52.441  0.00  0.00     0.037 C 
BRANCH   4   5
ATOM      5  C   UNL d   1     -41.233-122.718 -51.782  0.00  0.00     0.101 A 
ATOM      6  O   UNL d   1     -41.464-122.474 -51.030  0.00  0.00    -0.307 OA
ATOM      7  C   UNL d   1     -41.501-123.143 -50.554  0.00  0.00     0.102 A 
ATOM      8  C   UNL d   1     -41.293-123.801 -51.007  0.00  0.00     0.027 A 
ATOM      9  C   UNL d   1     -41.128-123.548 -51.760  0.00  0.00     0.027 A 
BRANCH   7  10
ATOM     10  C   UNL d   1     -41.710-123.153 -49.758  0.00  0.00     0.045 A 
ATOM     11  C   UNL d   1     -42.506-123.121 -49.536  0.00  0.00     0.129 A 
ATOM     12  C   UNL d   1     -42.718-123.131 -48.742  0.00  0.00     0.024 A 
ATOM     13  C   UNL d   1     -42.131-123.173 -48.159  0.00  0.00     0.002 A 
ATOM     14  C   UNL d   1     -41.336-123.206 -48.371  0.00  0.00     0.000 A 
ATOM     15  C   UNL d   1     -42.340-123.184 -47.364  0.00  0.00     0.000 C 
ATOM     16  C   UNL d   1     -41.123-123.196 -49.175  0.00  0.00     0.004 A 
BRANCH  11  17
ATOM     17  N   UNL d   1     -43.090-123.078 -50.117  0.00  0.00    -0.114 N 
ATOM     18  O   UNL d   1     -43.436-123.765 -50.412  0.00  0.00    -0.532 OA
ATOM     19  O   UNL d   1     -43.336-122.345 -50.412  0.00  0.00    -0.532 OA
ENDBRANCH  11  17
ENDBRANCH   7  10
ENDBRANCH   4   5
ENDBRANCH   1   4
BRANCH   1  20
ATOM     20  C   UNL d   1     -42.094-121.897 -53.429  0.00  0.00     0.167 C 
ATOM     21  S   UNL d   1     -42.029-121.082 -53.300  0.00  0.00    -0.055 SA
ATOM     22  N   UNL d   1     -42.738-122.196 -53.839  0.00  0.00    -0.136 N 
ENDBRANCH   1  20
TORSDOF 5
ENDMDL
MODEL 2
REMARK VINA RESULT:      -3.5      0.932      1.229
REMARK  5 active torsions:
REMARK  status: ('A' for Active; 'I' for Inactive)
REMARK    1  A    between atoms: C_5  and  N_1 
REMARK    2  A    between atoms: C_2  and  C_7 
REMARK    3  A    between atoms: C_9  and  C_2 
REMARK    4  A    between atoms: C_3  and  C_4 
REMARK    5  A    between atoms: C_7  and  C_8 
ROOT
ATOM      1  C   UNL d   1     -41.530-122.462 -54.118  0.00  0.00     0.100 C 
ATOM      2  C   UNL d   1     -41.327-123.118 -54.579  0.00  0.00     0.103 C 
ATOM      3  N   UNL d   1     -41.124-123.775 -55.041  0.00  0.00    -0.191 NA
ENDROOT
BRANCH   1   4
ATOM      4  C   UNL d   1     -41.162-122.335 -53.393  0.00  0.00     0.037 C 
BRANCH   4   5
ATOM      5  C   UNL d   1     -41.376-122.788 -52.738  0.00  0.00     0.101 A 
ATOM      6  O   UNL d   1     -41.274-122.581 -51.947  0.00  0.00    -0.307 OA
ATOM      7  C   UNL d   1     -41.568-123.199 -51.491  0.00  0.00     0.102 A 
ATOM      8  C   UNL d   1     -41.851-123.788 -51.995  0.00  0.00     0.027 A 
ATOM      9  C   UNL d   1     -41.737-123.543 -52.760  0.00  0.00     0.027 A 
BRANCH   7  10
ATOM     10  C   UNL d   1     -41.577-123.224 -50.668  0.00  0.00     0.045 A 
ATOM     11  C   UNL d   1     -42.036-122.686 -50.240  0.00  0.00     0.129 A 
ATOM     12  C   UNL d   1     -42.048-122.708 -49.419  0.00  0.00     0.024 A 
ATOM     13  C   UNL d   1     -41.595-123.273 -49.016  0.00  0.00     0.002 A 
ATOM     14  C   UNL d   1     -41.134-123.813 -49.434  0.00  0.00     0.000 A 
ATOM     15  C   UNL d   1     -41.604-123.298 -48.194  0.00  0.00     0.000 C 
ATOM     16  C   UNL d   1     -41.124-123.789 -50.265  0.00  0.00     0.004 A 
BRANCH  11  17
ATOM     17  N   UNL d   1     -42.487-122.124 -50.642  0.00  0.00    -0.114 N 
ATOM     18  O   UNL d   1     -42.219-121.348 -50.713  0.00  0.00    -0.532 OA
ATOM     19  O   UNL d   1     -43.213-122.331 -50.979  0.00  0.00    -0.532 OA
ENDBRANCH  11  17
ENDBRANCH   7  10
ENDBRANCH   4   5
ENDBRANCH   1   4
BRANCH   1  20
ATOM     20  C   UNL d   1     -42.103-121.933 -54.387  0.00  0.00     0.167 C 
ATOM     21  S   UNL d   1     -42.468-122.058 -55.119  0.00  0.00    -0.055 SA
ATOM     22  N   UNL d   1     -42.312-121.285 -53.931  0.00  0.00    -0.136 N 
ENDBRANCH   1  20
TORSDOF 5
ENDMDL
MODEL 3
REMARK VINA RESULT:      -1.1      1.974      4.287
REMARK  5 active torsions:
REMARK  status: ('A' for Active; 'I' for Inactive)
REMARK    1  A    between atoms: C_5  and  N_1 
REMARK    2  A    between atoms: C_2  and  C_7 
REMARK    3  A    between atoms: C_9  and  C_2 
REMARK    4  A    between atoms: C_3  and  C_4 
REMARK    5  A    between atoms: C_7  and  C_8 
ROOT
ATOM      1  C   UNL d   1     -42.740-122.943 -47.898  0.00  0.00     0.100 C 
ATOM      2  C   UNL d   1     -42.053-122.806 -47.458  0.00  0.00     0.103 C 
ATOM      3  N   UNL d   1     -41.365-122.669 -47.018  0.00  0.00    -0.191 NA
ENDROOT
BRANCH   1   4
ATOM      4  C   UNL d   1     -42.862-122.549 -48.609  0.00  0.00     0.037 C 
BRANCH   4   5
ATOM      5  C   UNL d   1     -42.294-122.591 -49.206  0.00  0.00     0.101 A 
ATOM      6  O   UNL d   1     -42.427-122.796 -49.993  0.00  0.00    -0.307 OA
ATOM      7  C   UNL d   1     -41.704-122.763 -50.382  0.00  0.00     0.102 A 
ATOM      8  C   UNL d   1     -41.123-122.538 -49.839  0.00  0.00     0.027 A 
ATOM      9  C   UNL d   1     -41.477-122.431 -49.118  0.00  0.00     0.027 A 
BRANCH   7  10
ATOM     10  C   UNL d   1     -41.581-122.927 -51.179  0.00  0.00     0.045 A 
ATOM     11  C   UNL d   1     -41.783-122.370 -51.755  0.00  0.00     0.129 A 
ATOM     12  C   UNL d   1     -41.662-122.530 -52.552  0.00  0.00     0.024 A 
ATOM     13  C   UNL d   1     -41.334-123.256 -52.780  0.00  0.00     0.002 A 
ATOM     14  C   UNL d   1     -41.129-123.817 -52.213  0.00  0.00     0.000 A 
ATOM     15  C   UNL d   1     -41.211-123.420 -53.576  0.00  0.00     0.000 C 
ATOM     16  C   UNL d   1     -41.253-123.653 -51.408  0.00  0.00     0.004 A 
BRANCH  11  17
ATOM     17  N   UNL d   1     -42.110-121.647 -51.526  0.00  0.00    -0.114 N 
ATOM     18  O   UNL d   1     -42.923-121.571 -51.424  0.00  0.00    -0.532 OA
ATOM     19  O   UNL d   1     -41.625-120.990 -51.396  0.00  0.00    -0.532 OA
ENDBRANCH  11  17
ENDBRANCH   7  10
ENDBRANCH   4   5
ENDBRANCH   1   4
BRANCH   1  20
ATOM     20  C   UNL d   1     -43.304-123.477 -47.621  0.00  0.00     0.167 C 
ATOM     21  S   UNL d   1     -43.294-123.713 -46.828  0.00  0.00    -0.055 SA
ATOM     22  N   UNL d   1     -43.875-123.775 -48.129  0.00  0.00    -0.136 N 
ENDBRANCH   1  20
TORSDOF 5
ENDMDL
