MODEL 1
REMARK VINA RESULT:      54.5      0.000      0.000
REMARK  2 active torsions:
REMARK  status: ('A' for Active; 'I' for Inactive)
REMARK    1  A    between atoms: C_8  and  C_2 
REMARK    2  A    between atoms: C_9  and  C_4 
ROOT
ATOM      1  N   UNL d   1      59.190  49.583  52.012  0.00  0.00    -0.246 NA
ATOM      2  C   UNL d   1      58.038  49.543  50.832  0.00  0.00     0.003 A 
ATOM      3  C   UNL d   1      57.815  49.587  51.624  0.00  0.00     0.018 A 
ATOM      4  C   UNL d   1      59.414  49.538  51.219  0.00  0.00     0.081 A 
ATOM      5  C   UNL d   1      58.837  49.518  50.628  0.00  0.00     0.019 A 
ATOM      6  C   UNL d   1      58.391  49.608  52.215  0.00  0.00     0.081 A 
ATOM      7  C   UNL d   1      57.016  49.612  51.827  0.00  0.00     0.002 A 
ATOM      8  C   UNL d   1      58.168  49.652  53.007  0.00  0.00     0.019 A 
ATOM      9  C   UNL d   1      56.792  49.657  52.620  0.00  0.00     0.000 A 
ATOM     10  C   UNL d   1      57.369  49.677  53.211  0.00  0.00     0.002 A 
ATOM     11  C   UNL d   1      56.033  49.679  52.784  0.00  0.00     0.000 C 
ENDROOT
BRANCH   2  12
ATOM     12  C   UNL d   1      57.465  49.523  50.245  0.00  0.00     0.000 A 
ATOM     13  C   UNL d   1      56.688  49.319  50.435  0.00  0.00     0.000 A 
ATOM     14  C   UNL d   1      56.111  49.299  49.844  0.00  0.00     0.000 A 
ATOM     15  C   UNL d   1      56.313  49.482  49.065  0.00  0.00     0.000 A 
ATOM     16  C   UNL d   1      57.089  49.686  48.876  0.00  0.00     0.000 A 
ATOM     17  C   UNL d   1      57.666  49.706  49.467  0.00  0.00     0.000 A 
ENDBRANCH   2  12
BRANCH   4  18
ATOM     18  C   UNL d   1      60.213  49.513  51.017  0.00  0.00     0.021 A 
ATOM     19  C   UNL d   1      60.450  49.704  50.250  0.00  0.00     0.022 A 
ATOM     20  C   UNL d   1      61.249  49.679  50.047  0.00  0.00     0.099 A 
ATOM     21  N   UNL d   1      61.811  49.463  50.611  0.00  0.00    -0.242 NA
ATOM     22  C   UNL d   1      61.537  49.287  51.340  0.00  0.00     0.099 A 
ATOM     23  C   UNL d   1      60.775  49.297  51.581  0.00  0.00     0.022 A 
ENDBRANCH   4  18
TORSDOF 2
ENDMDL
