MODEL 1
REMARK VINA RESULT:      -6.7      0.000      0.000
REMARK  5 active torsions:
REMARK  status: ('A' for Active; 'I' for Inactive)
REMARK    1  A    between atoms: C_6  and  N_1 
REMARK    2  A    between atoms: C_5  and  C_6 
REMARK       I    between atoms: N_7  and  C_5 
REMARK    3  A    between atoms: C_8  and  N_7 
REMARK    4  A    between atoms: O_19  and  C_9 
REMARK    5  A    between atoms: O_20  and  C_17 
ROOT
ATOM      1  C   UNL d   1      52.071  33.324  52.800  0.00  0.00     0.297 C 
ATOM      2  N   UNL d   1      52.863  33.145  52.951  0.00  0.00    -0.205 NA
ATOM      3  O   UNL d   1      51.495  32.739  52.879  0.00  0.00    -0.264 OA
ENDROOT
BRANCH   1   4
ATOM      4  C   UNL d   1      51.857  34.082  52.571  0.00  0.00     0.148 C 
BRANCH   4   5
ATOM      5  N   UNL d   1      51.062  34.304  52.568  0.00  0.00    -0.235 N 
ATOM      6  C   UNL d   1      50.626  34.265  51.859  0.00  0.00     0.273 A 
ATOM      7  C   UNL d   1      49.831  34.487  51.855  0.00  0.00     0.086 A 
ATOM      8  O   UNL d   1      50.994  34.003  51.162  0.00  0.00    -0.266 OA
ATOM      9  C   UNL d   1      49.391  34.451  51.155  0.00  0.00     0.012 C 
ATOM     10  S   UNL d   1      49.472  34.749  52.560  0.00  0.00    -0.077 SA
ATOM     11  C   UNL d   1      49.908  34.784  53.252  0.00  0.00     0.097 A 
ATOM     12  C   UNL d   1      50.702  34.562  53.255  0.00  0.00     0.274 A 
ATOM     13  O   UNL d   1      51.147  34.599  53.964  0.00  0.00    -0.266 OA
ENDBRANCH   4   5
ENDBRANCH   1   4
BRANCH   2  14
ATOM     14  C   UNL d   1      53.076  32.382  53.181  0.00  0.00     0.107 A 
ATOM     15  C   UNL d   1      53.638  32.274  53.762  0.00  0.00     0.114 A 
ATOM     16  C   UNL d   1      53.854  31.528  53.995  0.00  0.00     0.050 A 
ATOM     17  C   UNL d   1      53.499  30.865  53.636  0.00  0.00     0.096 A 
ATOM     18  C   UNL d   1      52.937  30.973  53.054  0.00  0.00     0.026 A 
ATOM     19  C   UNL d   1      52.724  31.746  52.825  0.00  0.00     0.023 A 
BRANCH  15  20
ATOM     20  O   UNL d   1      54.003  32.935  54.131  0.00  0.00    -0.327 OA
ATOM     21  C   UNL d   1      54.347  32.848  54.881  0.00  0.00     0.181 C 
ENDBRANCH  15  20
BRANCH  17  22
ATOM     22  O   UNL d   1      53.722  30.095  53.876  0.00  0.00    -0.328 OA
ATOM     23  C   UNL d   1      53.162  29.491  53.927  0.00  0.00     0.181 C 
ENDBRANCH  17  22
ENDBRANCH   2  14
TORSDOF 5
ENDMDL
MODEL 2
REMARK VINA RESULT:      -6.7      1.828      4.442
REMARK  5 active torsions:
REMARK  status: ('A' for Active; 'I' for Inactive)
REMARK    1  A    between atoms: C_6  and  N_1 
REMARK    2  A    between atoms: C_5  and  C_6 
REMARK       I    between atoms: N_7  and  C_5 
REMARK    3  A    between atoms: C_8  and  N_7 
REMARK    4  A    between atoms: O_19  and  C_9 
REMARK    5  A    between atoms: O_20  and  C_17 
ROOT
ATOM      1  C   UNL d   1      52.724  32.228  53.113  0.00  0.00     0.297 C 
ATOM      2  N   UNL d   1      52.847  33.044  53.096  0.00  0.00    -0.205 NA
ATOM      3  O   UNL d   1      51.956  31.927  53.127  0.00  0.00    -0.264 OA
ENDROOT
BRANCH   1   4
ATOM      4  C   UNL d   1      53.365  31.715  53.115  0.00  0.00     0.148 C 
BRANCH   4   5
ATOM      5  N   UNL d   1      53.262  30.925  53.327  0.00  0.00    -0.235 N 
ATOM      6  C   UNL d   1      53.369  30.693  54.121  0.00  0.00     0.273 A 
ATOM      7  C   UNL d   1      53.266  29.902  54.333  0.00  0.00     0.086 A 
ATOM      8  O   UNL d   1      53.579  31.259  54.691  0.00  0.00    -0.266 OA
ATOM      9  C   UNL d   1      53.371  29.664  55.119  0.00  0.00     0.012 C 
ATOM     10  S   UNL d   1      53.056  29.343  53.752  0.00  0.00    -0.077 SA
ATOM     11  C   UNL d   1      52.952  29.579  52.976  0.00  0.00     0.097 A 
ATOM     12  C   UNL d   1      53.056  30.369  52.764  0.00  0.00     0.274 A 
ATOM     13  O   UNL d   1      52.949  30.610  51.968  0.00  0.00    -0.266 OA
ENDBRANCH   4   5
ENDBRANCH   1   4
BRANCH   2  14
ATOM     14  C   UNL d   1      52.201  33.558  53.093  0.00  0.00     0.107 A 
ATOM     15  C   UNL d   1      52.255  34.282  53.464  0.00  0.00     0.114 A 
ATOM     16  C   UNL d   1      51.626  34.793  53.467  0.00  0.00     0.050 A 
ATOM     17  C   UNL d   1      50.917  34.576  53.086  0.00  0.00     0.096 A 
ATOM     18  C   UNL d   1      50.863  33.851  52.715  0.00  0.00     0.026 A 
ATOM     19  C   UNL d   1      51.517  33.336  52.720  0.00  0.00     0.023 A 
BRANCH  15  20
ATOM     20  O   UNL d   1      52.965  34.512  53.851  0.00  0.00    -0.327 OA
ATOM     21  C   UNL d   1      53.003  35.245  54.237  0.00  0.00     0.181 C 
ENDBRANCH  15  20
BRANCH  17  22
ATOM     22  O   UNL d   1      50.268  35.104  53.089  0.00  0.00    -0.328 OA
ATOM     23  C   UNL d   1      49.542  34.880  52.767  0.00  0.00     0.181 C 
ENDBRANCH  17  22
ENDBRANCH   2  14
TORSDOF 5
ENDMDL
MODEL 3
REMARK VINA RESULT:      -6.6      2.525      4.393
REMARK  5 active torsions:
REMARK  status: ('A' for Active; 'I' for Inactive)
REMARK    1  A    between atoms: C_6  and  N_1 
REMARK    2  A    between atoms: C_5  and  C_6 
REMARK       I    between atoms: N_7  and  C_5 
REMARK    3  A    between atoms: C_8  and  N_7 
REMARK    4  A    between atoms: O_19  and  C_9 
REMARK    5  A    between atoms: O_20  and  C_17 
ROOT
ATOM      1  C   UNL d   1      53.537  32.062  53.540  0.00  0.00     0.297 C 
ATOM      2  N   UNL d   1      54.066  32.664  53.736  0.00  0.00    -0.205 NA
ATOM      3  O   UNL d   1      52.729  32.166  53.669  0.00  0.00    -0.264 OA
ENDROOT
BRANCH   1   4
ATOM      4  C   UNL d   1      53.813  31.360  53.216  0.00  0.00     0.148 C 
BRANCH   4   5
ATOM      5  N   UNL d   1      53.384  30.662  53.314  0.00  0.00    -0.235 N 
ATOM      6  C   UNL d   1      53.545  30.167  53.965  0.00  0.00     0.273 A 
ATOM      7  C   UNL d   1      53.116  29.469  54.064  0.00  0.00     0.086 A 
ATOM      8  O   UNL d   1      54.134  30.380  54.510  0.00  0.00    -0.266 OA
ATOM      9  C   UNL d   1      53.270  28.972  54.708  0.00  0.00     0.012 C 
ATOM     10  S   UNL d   1      52.526  29.265  53.511  0.00  0.00    -0.077 SA
ATOM     11  C   UNL d   1      52.375  29.757  52.875  0.00  0.00     0.097 A 
ATOM     12  C   UNL d   1      52.804  30.455  52.777  0.00  0.00     0.274 A 
ATOM     13  O   UNL d   1      52.648  30.957  52.124  0.00  0.00    -0.266 OA
ENDBRANCH   4   5
ENDBRANCH   1   4
BRANCH   2  14
ATOM     14  C   UNL d   1      53.787  33.369  54.062  0.00  0.00     0.107 A 
ATOM     15  C   UNL d   1      54.186  33.718  54.681  0.00  0.00     0.114 A 
ATOM     16  C   UNL d   1      53.919  34.410  55.007  0.00  0.00     0.050 A 
ATOM     17  C   UNL d   1      53.229  34.768  54.706  0.00  0.00     0.096 A 
ATOM     18  C   UNL d   1      52.830  34.419  54.087  0.00  0.00     0.026 A 
ATOM     19  C   UNL d   1      53.115  33.707  53.761  0.00  0.00     0.023 A 
BRANCH  15  20
ATOM     20  O   UNL d   1      54.883  33.366  54.992  0.00  0.00    -0.327 OA
ATOM     21  C   UNL d   1      55.392  33.816  55.469  0.00  0.00     0.181 C 
ENDBRANCH  15  20
BRANCH  17  22
ATOM     22  O   UNL d   1      52.954  35.483  55.043  0.00  0.00    -0.328 OA
ATOM     23  C   UNL d   1      52.881  36.164  54.583  0.00  0.00     0.181 C 
ENDBRANCH  17  22
ENDBRANCH   2  14
TORSDOF 5
ENDMDL
MODEL 4
REMARK VINA RESULT:      -6.4      1.727      2.706
REMARK  5 active torsions:
REMARK  status: ('A' for Active; 'I' for Inactive)
REMARK    1  A    between atoms: C_6  and  N_1 
REMARK    2  A    between atoms: C_5  and  C_6 
REMARK       I    between atoms: N_7  and  C_5 
REMARK    3  A    between atoms: C_8  and  N_7 
REMARK    4  A    between atoms: O_19  and  C_9 
REMARK    5  A    between atoms: O_20  and  C_17 
ROOT
ATOM      1  C   UNL d   1      53.767  32.381  53.909  0.00  0.00     0.297 C 
ATOM      2  N   UNL d   1      53.732  31.720  53.417  0.00  0.00    -0.205 NA
ATOM      3  O   UNL d   1      53.622  32.300  54.718  0.00  0.00    -0.264 OA
ENDROOT
BRANCH   1   4
ATOM      4  C   UNL d   1      53.944  33.119  53.597  0.00  0.00     0.148 C 
BRANCH   4   5
ATOM      5  N   UNL d   1      53.506  33.780  53.822  0.00  0.00    -0.235 N 
ATOM      6  C   UNL d   1      52.819  33.985  53.396  0.00  0.00     0.273 A 
ATOM      7  C   UNL d   1      52.380  34.646  53.622  0.00  0.00     0.086 A 
ATOM      8  O   UNL d   1      52.582  33.521  52.750  0.00  0.00    -0.266 OA
ATOM      9  C   UNL d   1      51.697  34.856  53.204  0.00  0.00     0.012 C 
ATOM     10  S   UNL d   1      52.628  35.104  54.273  0.00  0.00    -0.077 SA
ATOM     11  C   UNL d   1      53.303  34.896  54.685  0.00  0.00     0.097 A 
ATOM     12  C   UNL d   1      53.742  34.235  54.460  0.00  0.00     0.274 A 
ATOM     13  O   UNL d   1      54.433  34.023  54.883  0.00  0.00    -0.266 OA
ENDBRANCH   4   5
ENDBRANCH   1   4
BRANCH   2  14
ATOM     14  C   UNL d   1      53.553  30.979  53.733  0.00  0.00     0.107 A 
ATOM     15  C   UNL d   1      53.240  30.397  53.255  0.00  0.00     0.114 A 
ATOM     16  C   UNL d   1      53.061  29.666  53.557  0.00  0.00     0.050 A 
ATOM     17  C   UNL d   1      53.199  29.508  54.363  0.00  0.00     0.096 A 
ATOM     18  C   UNL d   1      53.513  30.091  54.841  0.00  0.00     0.026 A 
ATOM     19  C   UNL d   1      53.692  30.837  54.518  0.00  0.00     0.023 A 
BRANCH  15  20
ATOM     20  O   UNL d   1      53.096  30.545  52.440  0.00  0.00    -0.327 OA
ATOM     21  C   UNL d   1      52.930  29.911  51.932  0.00  0.00     0.181 C 
ENDBRANCH  15  20
BRANCH  17  22
ATOM     22  O   UNL d   1      53.014  28.754  54.675  0.00  0.00    -0.328 OA
ATOM     23  C   UNL d   1      53.372  28.486  55.369  0.00  0.00     0.181 C 
ENDBRANCH  17  22
ENDBRANCH   2  14
TORSDOF 5
ENDMDL
MODEL 5
REMARK VINA RESULT:      -6.3      1.501      4.713
REMARK  5 active torsions:
REMARK  status: ('A' for Active; 'I' for Inactive)
REMARK    1  A    between atoms: C_6  and  N_1 
REMARK    2  A    between atoms: C_5  and  C_6 
REMARK       I    between atoms: N_7  and  C_5 
REMARK    3  A    between atoms: C_8  and  N_7 
REMARK    4  A    between atoms: O_19  and  C_9 
REMARK    5  A    between atoms: O_20  and  C_17 
ROOT
ATOM      1  C   UNL d   1      51.772  33.716  52.822  0.00  0.00     0.297 C 
ATOM      2  N   UNL d   1      51.320  34.155  52.290  0.00  0.00    -0.205 NA
ATOM      3  O   UNL d   1      51.496  33.585  53.588  0.00  0.00    -0.264 OA
ENDROOT
BRANCH   1   4
ATOM      4  C   UNL d   1      52.498  33.409  52.590  0.00  0.00     0.148 C 
BRANCH   4   5
ATOM      5  N   UNL d   1      52.903  32.887  53.084  0.00  0.00    -0.235 N 
ATOM      6  C   UNL d   1      53.457  33.181  53.632  0.00  0.00     0.273 A 
ATOM      7  C   UNL d   1      53.862  32.658  54.125  0.00  0.00     0.086 A 
ATOM      8  O   UNL d   1      53.597  33.998  53.677  0.00  0.00    -0.266 OA
ATOM      9  C   UNL d   1      54.413  32.944  54.672  0.00  0.00     0.012 C 
ATOM     10  S   UNL d   1      53.713  31.840  54.071  0.00  0.00    -0.077 SA
ATOM     11  C   UNL d   1      53.168  31.559  53.530  0.00  0.00     0.097 A 
ATOM     12  C   UNL d   1      52.763  32.082  53.037  0.00  0.00     0.274 A 
ATOM     13  O   UNL d   1      52.204  31.793  52.483  0.00  0.00    -0.266 OA
ENDBRANCH   4   5
ENDBRANCH   1   4
BRANCH   2  14
ATOM     14  C   UNL d   1      50.591  34.462  52.525  0.00  0.00     0.107 A 
ATOM     15  C   UNL d   1      49.975  34.503  51.991  0.00  0.00     0.114 A 
ATOM     16  C   UNL d   1      49.256  34.803  52.213  0.00  0.00     0.050 A 
ATOM     17  C   UNL d   1      49.144  35.073  52.993  0.00  0.00     0.096 A 
ATOM     18  C   UNL d   1      49.760  35.032  53.527  0.00  0.00     0.026 A 
ATOM     19  C   UNL d   1      50.494  34.721  53.286  0.00  0.00     0.023 A 
BRANCH  15  20
ATOM     20  O   UNL d   1      50.075  34.234  51.201  0.00  0.00    -0.327 OA
ATOM     21  C   UNL d   1      49.437  34.265  50.673  0.00  0.00     0.181 C 
ENDBRANCH  15  20
BRANCH  17  22
ATOM     22  O   UNL d   1      48.401  35.383  53.222  0.00  0.00    -0.328 OA
ATOM     23  C   UNL d   1      48.354  36.029  53.733  0.00  0.00     0.181 C 
ENDBRANCH  17  22
ENDBRANCH   2  14
TORSDOF 5
ENDMDL
MODEL 6
REMARK VINA RESULT:      -5.4      1.863      5.046
REMARK  5 active torsions:
REMARK  status: ('A' for Active; 'I' for Inactive)
REMARK    1  A    between atoms: C_6  and  N_1 
REMARK    2  A    between atoms: C_5  and  C_6 
REMARK       I    between atoms: N_7  and  C_5 
REMARK    3  A    between atoms: C_8  and  N_7 
REMARK    4  A    between atoms: O_19  and  C_9 
REMARK    5  A    between atoms: O_20  and  C_17 
ROOT
ATOM      1  C   UNL d   1      50.326  34.409  53.068  0.00  0.00     0.297 C 
ATOM      2  N   UNL d   1      49.627  34.781  53.302  0.00  0.00    -0.205 NA
ATOM      3  O   UNL d   1      50.473  34.276  52.267  0.00  0.00    -0.264 OA
ENDROOT
BRANCH   1   4
ATOM      4  C   UNL d   1      50.875  34.172  53.630  0.00  0.00     0.148 C 
BRANCH   4   5
ATOM      5  N   UNL d   1      51.623  33.915  53.395  0.00  0.00    -0.235 N 
ATOM      6  C   UNL d   1      51.755  33.104  53.255  0.00  0.00     0.273 A 
ATOM      7  C   UNL d   1      52.503  32.846  53.020  0.00  0.00     0.086 A 
ATOM      8  O   UNL d   1      51.134  32.562  53.352  0.00  0.00    -0.266 OA
ATOM      9  C   UNL d   1      52.642  32.043  52.878  0.00  0.00     0.012 C 
ATOM     10  S   UNL d   1      53.119  33.399  52.926  0.00  0.00    -0.077 SA
ATOM     11  C   UNL d   1      52.981  34.193  53.066  0.00  0.00     0.097 A 
ATOM     12  C   UNL d   1      52.233  34.451  53.300  0.00  0.00     0.274 A 
ATOM     13  O   UNL d   1      52.093  35.264  53.443  0.00  0.00    -0.266 OA
ENDBRANCH   4   5
ENDBRANCH   1   4
BRANCH   2  14
ATOM     14  C   UNL d   1      49.077  35.019  52.735  0.00  0.00     0.107 A 
ATOM     15  C   UNL d   1      48.578  35.645  52.890  0.00  0.00     0.114 A 
ATOM     16  C   UNL d   1      48.034  35.886  52.339  0.00  0.00     0.050 A 
ATOM     17  C   UNL d   1      47.984  35.489  51.608  0.00  0.00     0.096 A 
ATOM     18  C   UNL d   1      48.483  34.862  51.454  0.00  0.00     0.026 A 
ATOM     19  C   UNL d   1      49.038  34.625  52.029  0.00  0.00     0.023 A 
BRANCH  15  20
ATOM     20  O   UNL d   1      48.619  36.053  53.624  0.00  0.00    -0.327 OA
ATOM     21  C   UNL d   1      48.026  36.597  53.824  0.00  0.00     0.181 C 
ENDBRANCH  15  20
BRANCH  17  22
ATOM     22  O   UNL d   1      47.422  35.737  51.040  0.00  0.00    -0.328 OA
ATOM     23  C   UNL d   1      46.752  35.282  50.883  0.00  0.00     0.181 C 
ENDBRANCH  17  22
ENDBRANCH   2  14
TORSDOF 5
ENDMDL
