MODEL 1
REMARK VINA RESULT:      38.7      0.000      0.000
REMARK  3 active torsions:
REMARK  status: ('A' for Active; 'I' for Inactive)
REMARK    1  A    between atoms: C_16  and  C_4 
REMARK    2  A    between atoms: C_10  and  O_14 
REMARK    3  A    between atoms: O_14  and  C_16 
ROOT
ATOM      1  C   UNL d   1     -58.909 -98.911 -44.914  0.00  0.00     0.030 A 
ATOM      2  C   UNL d   1     -58.127 -98.960 -44.709  0.00  0.00     0.105 A 
ATOM      3  C   UNL d   1     -57.553 -98.908 -45.301  0.00  0.00     0.118 A 
ATOM      4  N   UNL d   1     -57.891 -99.059 -43.930  0.00  0.00    -0.242 NA
ATOM      5  C   UNL d   1     -59.144 -98.812 -45.690  0.00  0.00     0.059 A 
ATOM      6  C   UNL d   1     -57.763 -98.809 -46.082  0.00  0.00     0.027 A 
ATOM      7  C   UNL d   1     -58.566 -98.760 -46.285  0.00  0.00     0.013 A 
ATOM      8 CL   UNL d   1     -59.947 -98.763 -45.891  0.00  0.00    -0.082 Cl
ATOM      9  C   UNL d   1     -59.485 -98.962 -44.328  0.00  0.00     0.004 A 
ATOM     10  C   UNL d   1     -58.468 -99.111 -43.335  0.00  0.00     0.099 A 
ATOM     11  C   UNL d   1     -59.270 -99.062 -43.537  0.00  0.00     0.021 A 
ENDROOT
BRANCH   3  12
ATOM     12  O   UNL d   1     -56.750 -98.957 -45.100  0.00  0.00    -0.302 OA
BRANCH  12  13
ATOM     13  C   UNL d   1     -55.948 -99.013 -44.893  0.00  0.00     0.144 C 
BRANCH  13  14
ATOM     14  C   UNL d   1     -55.655 -99.712 -44.558  0.00  0.00     0.142 A 
ATOM     15  N   UNL d   1     -55.494 -99.834 -43.782  0.00  0.00    -0.057 NA
ATOM     16  C   UNL d   1     -55.222-100.587 -43.696  0.00  0.00     0.735 A 
ATOM     17  N   UNL d   1     -55.216-100.940 -44.452  0.00  0.00    -0.136 N 
ATOM     18  N   UNL d   1     -54.970-101.027 -43.042  0.00  0.00    -0.059 NA
ATOM     19  C   UNL d   1     -55.483-100.397 -44.973  0.00  0.00     0.120 A 
ATOM     20  C   UNL d   1     -54.962-101.716 -44.538  0.00  0.00     0.100 A 
ATOM     21  C   UNL d   1     -54.714-102.148 -43.889  0.00  0.00     0.041 A 
ATOM     22  C   UNL d   1     -54.718-101.798 -43.131  0.00  0.00     0.119 A 
ENDBRANCH  13  14
ENDBRANCH  12  13
ENDBRANCH   3  12
TORSDOF 3
ENDMDL
MODEL 2
REMARK VINA RESULT:      41.0      3.294      4.812
REMARK  3 active torsions:
REMARK  status: ('A' for Active; 'I' for Inactive)
REMARK    1  A    between atoms: C_16  and  C_4 
REMARK    2  A    between atoms: C_10  and  O_14 
REMARK    3  A    between atoms: O_14  and  C_16 
ROOT
ATOM      1  C   UNL d   1     -54.889-100.719 -44.084  0.00  0.00     0.030 A 
ATOM      2  C   UNL d   1     -54.909-101.401 -43.646  0.00  0.00     0.105 A 
ATOM      3  C   UNL d   1     -54.907-101.349 -42.821  0.00  0.00     0.118 A 
ATOM      4  N   UNL d   1     -54.930-102.140 -44.000  0.00  0.00    -0.242 NA
ATOM      5  C   UNL d   1     -54.868 -99.984 -43.730  0.00  0.00     0.059 A 
ATOM      6  C   UNL d   1     -54.887-100.625 -42.446  0.00  0.00     0.027 A 
ATOM      7  C   UNL d   1     -54.866 -99.931 -42.901  0.00  0.00     0.013 A 
ATOM      8 CL   UNL d   1     -54.848 -99.291 -44.186  0.00  0.00    -0.082 Cl
ATOM      9  C   UNL d   1     -54.890-100.767 -44.905  0.00  0.00     0.004 A 
ATOM     10  C   UNL d   1     -54.931-102.193 -44.829  0.00  0.00     0.099 A 
ATOM     11  C   UNL d   1     -54.911-101.500 -45.284  0.00  0.00     0.021 A 
ENDROOT
BRANCH   3  12
ATOM     12  O   UNL d   1     -54.927-102.042 -42.366  0.00  0.00    -0.302 OA
BRANCH  12  13
ATOM     13  C   UNL d   1     -54.954-102.731 -41.904  0.00  0.00     0.144 C 
BRANCH  13  14
ATOM     14  C   UNL d   1     -55.188-102.688 -41.110  0.00  0.00     0.142 A 
ATOM     15  N   UNL d   1     -55.910-102.879 -40.819  0.00  0.00    -0.057 NA
ATOM     16  C   UNL d   1     -55.901-102.757 -40.022  0.00  0.00     0.735 A 
ATOM     17  N   UNL d   1     -55.141-102.480 -39.820  0.00  0.00    -0.136 N 
ATOM     18  N   UNL d   1     -56.469-102.853 -39.429  0.00  0.00    -0.059 NA
ATOM     19  C   UNL d   1     -54.712-102.441 -40.491  0.00  0.00     0.120 A 
ATOM     20  C   UNL d   1     -54.966-102.306 -39.036  0.00  0.00     0.100 A 
ATOM     21  C   UNL d   1     -55.530-102.402 -38.452  0.00  0.00     0.041 A 
ATOM     22  C   UNL d   1     -56.292-102.679 -38.651  0.00  0.00     0.119 A 
ENDBRANCH  13  14
ENDBRANCH  12  13
ENDBRANCH   3  12
TORSDOF 3
ENDMDL
