MODEL 1
REMARK VINA RESULT:      25.5      0.000      0.000
REMARK  4 active torsions:
REMARK  status: ('A' for Active; 'I' for Inactive)
REMARK    1  A    between atoms: C_4  and  C_1 
REMARK    2  A    between atoms: C_2  and  C_3 
REMARK    3  A    between atoms: O_7  and  C_13 
REMARK    4  A    between atoms: C_12  and  O_7 
ROOT
ATOM      1  O   UNL d   1      13.810  12.221  -1.785  0.00  0.00    -0.307 OA
ENDROOT
BRANCH   1   2
ATOM      2  C   UNL d   1      14.240  12.823  -1.408  0.00  0.00     0.100 A 
ATOM      3  C   UNL d   1      13.933  13.165  -0.735  0.00  0.00     0.025 A 
ATOM      4  C   UNL d   1      14.355  13.770  -0.347  0.00  0.00     0.005 A 
ATOM      5  C   UNL d   1      15.067  14.018  -0.636  0.00  0.00     0.039 A 
ATOM      6  C   UNL d   1      15.385  13.671  -1.324  0.00  0.00     0.005 A 
ATOM      7  C   UNL d   1      14.964  13.065  -1.714  0.00  0.00     0.025 A 
BRANCH   5   8
ATOM      8  C   UNL d   1      15.489  14.623  -0.248  0.00  0.00     0.196 C 
ATOM      9  O   UNL d   1      15.125  15.355  -0.084  0.00  0.00    -0.287 OA
ATOM     10  C   UNL d   1      16.272  14.518  -0.015  0.00  0.00     0.045 C 
ENDBRANCH   5   8
ENDBRANCH   1   2
BRANCH   1  11
ATOM     11  C   UNL d   1      13.693  12.223  -2.613  0.00  0.00     0.100 A 
ATOM     12  C   UNL d   1      14.312  11.935  -3.080  0.00  0.00     0.025 A 
ATOM     13  C   UNL d   1      14.197  11.936  -3.911  0.00  0.00     0.005 A 
ATOM     14  C   UNL d   1      13.493  12.213  -4.250  0.00  0.00     0.039 A 
ATOM     15  C   UNL d   1      12.903  12.490  -3.755  0.00  0.00     0.005 A 
ATOM     16  C   UNL d   1      13.001  12.496  -2.937  0.00  0.00     0.025 A 
BRANCH  14  17
ATOM     17  C   UNL d   1      13.383  12.213  -5.049  0.00  0.00     0.196 C 
ATOM     18  O   UNL d   1      13.891  12.651  -5.544  0.00  0.00    -0.287 OA
ATOM     19  C   UNL d   1      12.769  11.781  -5.377  0.00  0.00     0.045 C 
ENDBRANCH  14  17
ENDBRANCH   1  11
TORSDOF 4
ENDMDL
