MODEL 1
REMARK VINA RESULT:      35.0      0.000      0.000
REMARK  6 active torsions:
REMARK  status: ('A' for Active; 'I' for Inactive)
REMARK    1  A    between atoms: C_6  and  C_1 
REMARK    2  A    between atoms: N_8  and  C_5 
REMARK    3  A    between atoms: O_13  and  C_6 
REMARK       I    between atoms: C_7  and  N_8 
REMARK    4  A    between atoms: O_12  and  C_7 
REMARK    5  A    between atoms: C_16  and  O_12 
REMARK    6  A    between atoms: C_17  and  O_13 
ROOT
ATOM      1  C   UNL d   1      60.138  49.339  50.740  0.00  0.00     0.083 A 
ATOM      2  N   UNL d   1      59.815  49.458  49.352  0.00  0.00    -0.244 NA
ATOM      3  C   UNL d   1      60.374  49.338  49.963  0.00  0.00     0.087 A 
ATOM      4  C   UNL d   1      59.334  49.461  50.936  0.00  0.00     0.028 A 
ATOM      5  C   UNL d   1      58.777  49.581  50.339  0.00  0.00     0.104 A 
ATOM      6  C   UNL d   1      59.017  49.579  49.550  0.00  0.00     0.099 A 
ATOM      7  C   UNL d   1      61.172  49.216  49.764  0.00  0.00     0.021 C 
ATOM      8  C   UNL d   1      58.452  49.701  48.937  0.00  0.00     0.022 C 
ENDROOT
BRANCH   5   9
ATOM      9  N   UNL d   1      57.973  49.703  50.536  0.00  0.00    -0.184 NA
ATOM     10  C   UNL d   1      57.412  49.125  50.343  0.00  0.00     0.392 C 
ATOM     11  O   UNL d   1      57.636  48.423  49.957  0.00  0.00    -0.236 OA
BRANCH  10  12
ATOM     12  O   UNL d   1      56.611  49.242  50.537  0.00  0.00    -0.256 OA
BRANCH  12  13
ATOM     13  C   UNL d   1      56.291  48.915  51.220  0.00  0.00     0.128 C 
ATOM     14  C   UNL d   1      56.073  49.393  51.850  0.00  0.00     0.029 C 
ENDBRANCH  12  13
ENDBRANCH  10  12
ENDBRANCH   5   9
BRANCH   1  15
ATOM     15  C   UNL d   1      60.687  49.220  51.341  0.00  0.00     0.302 C 
ATOM     16  O   UNL d   1      61.462  49.001  51.162  0.00  0.00    -0.259 OA
BRANCH  15  17
ATOM     17  O   UNL d   1      60.454  49.323  52.124  0.00  0.00    -0.271 OA
BRANCH  17  18
ATOM     18  C   UNL d   1      60.962  49.701  52.649  0.00  0.00     0.126 C 
ATOM     19  C   UNL d   1      60.856  49.596  53.458  0.00  0.00     0.029 C 
ENDBRANCH  17  18
ENDBRANCH  15  17
ENDBRANCH   1  15
TORSDOF 6
ENDMDL
MODEL 2
REMARK VINA RESULT:      36.0      1.005      3.632
REMARK  6 active torsions:
REMARK  status: ('A' for Active; 'I' for Inactive)
REMARK    1  A    between atoms: C_6  and  C_1 
REMARK    2  A    between atoms: N_8  and  C_5 
REMARK    3  A    between atoms: O_13  and  C_6 
REMARK       I    between atoms: C_7  and  N_8 
REMARK    4  A    between atoms: O_12  and  C_7 
REMARK    5  A    between atoms: C_16  and  O_12 
REMARK    6  A    between atoms: C_17  and  O_13 
ROOT
ATOM      1  C   UNL d   1      58.815  49.661  50.421  0.00  0.00     0.083 A 
ATOM      2  N   UNL d   1      59.969  49.649  49.576  0.00  0.00    -0.244 NA
ATOM      3  C   UNL d   1      59.138  49.645  49.676  0.00  0.00     0.087 A 
ATOM      4  C   UNL d   1      59.311  49.681  51.095  0.00  0.00     0.028 A 
ATOM      5  C   UNL d   1      60.130  49.685  51.004  0.00  0.00     0.104 A 
ATOM      6  C   UNL d   1      60.458  49.669  50.248  0.00  0.00     0.099 A 
ATOM      7  C   UNL d   1      58.649  49.625  49.004  0.00  0.00     0.021 C 
ATOM      8  C   UNL d   1      61.295  49.673  50.150  0.00  0.00     0.022 C 
ENDROOT
BRANCH   5   9
ATOM      9  N   UNL d   1      60.626  49.705  51.679  0.00  0.00    -0.184 NA
ATOM     10  C   UNL d   1      61.025  49.019  51.914  0.00  0.00     0.392 C 
ATOM     11  O   UNL d   1      60.942  48.309  51.489  0.00  0.00    -0.236 OA
BRANCH  10  12
ATOM     12  O   UNL d   1      61.520  49.034  52.584  0.00  0.00    -0.256 OA
BRANCH  12  13
ATOM     13  C   UNL d   1      62.140  49.571  52.637  0.00  0.00     0.128 C 
ATOM     14  C   UNL d   1      62.588  49.626  53.322  0.00  0.00     0.029 C 
ENDBRANCH  12  13
ENDBRANCH  10  12
ENDBRANCH   5   9
BRANCH   1  15
ATOM     15  C   UNL d   1      57.998  49.657  50.520  0.00  0.00     0.302 C 
ATOM     16  O   UNL d   1      57.498  49.693  49.865  0.00  0.00    -0.259 OA
BRANCH  15  17
ATOM     17  O   UNL d   1      57.686  49.616  51.280  0.00  0.00    -0.271 OA
BRANCH  17  18
ATOM     18  C   UNL d   1      57.007  49.171  51.413  0.00  0.00     0.126 C 
ATOM     19  C   UNL d   1      56.302  49.395  51.051  0.00  0.00     0.029 C 
ENDBRANCH  17  18
ENDBRANCH  15  17
ENDBRANCH   1  15
TORSDOF 6
ENDMDL
MODEL 3
REMARK VINA RESULT:      36.2      1.366      2.156
REMARK  6 active torsions:
REMARK  status: ('A' for Active; 'I' for Inactive)
REMARK    1  A    between atoms: C_6  and  C_1 
REMARK    2  A    between atoms: N_8  and  C_5 
REMARK    3  A    between atoms: O_13  and  C_6 
REMARK       I    between atoms: C_7  and  N_8 
REMARK    4  A    between atoms: O_12  and  C_7 
REMARK    5  A    between atoms: C_16  and  O_12 
REMARK    6  A    between atoms: C_17  and  O_13 
ROOT
ATOM      1  C   UNL d   1      60.638  49.249  50.821  0.00  0.00     0.083 A 
ATOM      2  N   UNL d   1      60.473  49.671  52.177  0.00  0.00    -0.244 NA
ATOM      3  C   UNL d   1      60.962  49.515  51.516  0.00  0.00     0.087 A 
ATOM      4  C   UNL d   1      59.812  49.128  50.759  0.00  0.00     0.028 A 
ATOM      5  C   UNL d   1      59.324  49.280  51.406  0.00  0.00     0.104 A 
ATOM      6  C   UNL d   1      59.653  49.550  52.113  0.00  0.00     0.099 A 
ATOM      7  C   UNL d   1      61.782  49.636  51.581  0.00  0.00     0.021 C 
ATOM      8  C   UNL d   1      59.158  49.706  52.776  0.00  0.00     0.022 C 
ENDROOT
BRANCH   5   9
ATOM      9  N   UNL d   1      58.498  49.159  51.344  0.00  0.00    -0.184 NA
ATOM     10  C   UNL d   1      58.116  49.305  50.625  0.00  0.00     0.392 C 
ATOM     11  O   UNL d   1      58.540  49.571  49.960  0.00  0.00    -0.236 OA
BRANCH  10  12
ATOM     12  O   UNL d   1      57.294  49.187  50.558  0.00  0.00    -0.256 OA
BRANCH  12  13
ATOM     13  C   UNL d   1      56.830  49.700  50.114  0.00  0.00     0.128 C 
ATOM     14  C   UNL d   1      56.148  49.433  49.745  0.00  0.00     0.029 C 
ENDBRANCH  12  13
ENDBRANCH  10  12
ENDBRANCH   5   9
BRANCH   1  15
ATOM     15  C   UNL d   1      61.118  49.096  50.170  0.00  0.00     0.302 C 
ATOM     16  O   UNL d   1      61.539  49.706  49.809  0.00  0.00    -0.259 OA
BRANCH  15  17
ATOM     17  O   UNL d   1      61.174  48.326  49.884  0.00  0.00    -0.271 OA
BRANCH  17  18
ATOM     18  C   UNL d   1      61.252  47.704  50.416  0.00  0.00     0.126 C 
ATOM     19  C   UNL d   1      61.496  46.967  50.142  0.00  0.00     0.029 C 
ENDBRANCH  17  18
ENDBRANCH  15  17
ENDBRANCH   1  15
TORSDOF 6
ENDMDL
