MODEL 1
REMARK VINA RESULT:      92.3      0.000      0.000
REMARK  5 active torsions:
REMARK  status: ('A' for Active; 'I' for Inactive)
REMARK    1  A    between atoms: C_3  and  S_1 
REMARK    2  A    between atoms: N_6  and  S_1 
REMARK    3  A    between atoms: S_2  and  N_4 
REMARK    4  A    between atoms: C_10  and  S_2 
REMARK    5  A    between atoms: N_4  and  C_5 
ROOT
ATOM      1  C   UNL d   1     -53.119  23.852  35.728  0.00  0.00     0.105 A 
ATOM      2  C   UNL d   1     -52.607  23.764  34.402  0.00  0.00     0.076 A 
ATOM      3  C   UNL d   1     -52.498  23.968  35.184  0.00  0.00     0.031 A 
ATOM      4  C   UNL d   1     -53.830  23.533  35.466  0.00  0.00     0.012 A 
ATOM      5  C   UNL d   1     -53.321  23.444  34.139  0.00  0.00     0.017 A 
ATOM      6  C   UNL d   1     -53.937  23.326  34.668  0.00  0.00     0.002 A 
ATOM      7  C   UNL d   1     -53.427  23.237  33.340  0.00  0.00     0.002 C 
ATOM      8  C   UNL d   1     -54.451  23.416  36.010  0.00  0.00     0.001 C 
ENDROOT
BRANCH   2   9
ATOM      9  N   UNL d   1     -51.974  23.890  33.881  0.00  0.00    -0.229 N 
ATOM     10  C   UNL d   1     -51.649  23.257  33.494  0.00  0.00     0.111 C 
BRANCH   9  11
ATOM     11  S   UNL d   1     -51.691  24.644  33.768  0.00  0.00     0.271 S 
ATOM     12  O   UNL d   1     -50.942  24.397  34.000  0.00  0.00    -0.200 OA
ATOM     13  O   UNL d   1     -52.442  24.910  33.531  0.00  0.00    -0.200 OA
BRANCH  11  14
ATOM     14  C   UNL d   1     -51.391  25.419  33.654  0.00  0.00     0.104 A 
ATOM     15  C   UNL d   1     -50.580  25.559  33.698  0.00  0.00     0.013 A 
ATOM     16  C   UNL d   1     -50.294  26.312  33.587  0.00  0.00     0.001 A 
ATOM     17  C   UNL d   1     -50.828  26.929  33.429  0.00  0.00     0.000 A 
ATOM     18  C   UNL d   1     -51.619  26.791  33.386  0.00  0.00     0.001 A 
ATOM     19  C   UNL d   1     -50.544  27.709  33.312  0.00  0.00     0.000 C 
ATOM     20  C   UNL d   1     -51.917  26.035  33.497  0.00  0.00     0.013 A 
ENDBRANCH  11  14
ENDBRANCH   9  11
ENDBRANCH   2   9
BRANCH   1  21
ATOM     21  S   UNL d   1     -53.027  24.053  36.526  0.00  0.00     0.271 S 
ATOM     22  O   UNL d   1     -53.360  24.809  36.384  0.00  0.00    -0.200 OA
ATOM     23  O   UNL d   1     -52.693  23.295  36.674  0.00  0.00    -0.200 OA
BRANCH  21  24
ATOM     24  N   UNL d   1     -52.934  24.250  37.326  0.00  0.00    -0.229 N 
ATOM     25  C   UNL d   1     -52.828  23.663  37.888  0.00  0.00     0.092 A 
ATOM     26  C   UNL d   1     -52.733  23.848  38.695  0.00  0.00     0.020 A 
ATOM     27  C   UNL d   1     -52.747  24.633  38.927  0.00  0.00     0.003 A 
ATOM     28  C   UNL d   1     -52.854  25.225  38.358  0.00  0.00     0.020 A 
ATOM     29  C   UNL d   1     -52.656  24.830  39.709  0.00  0.00     0.000 C 
ATOM     30  C   UNL d   1     -52.945  25.032  37.582  0.00  0.00     0.092 A 
ENDBRANCH  21  24
ENDBRANCH   1  21
TORSDOF 5
ENDMDL
MODEL 2
REMARK VINA RESULT:      92.8      2.787      4.872
REMARK  5 active torsions:
REMARK  status: ('A' for Active; 'I' for Inactive)
REMARK    1  A    between atoms: C_3  and  S_1 
REMARK    2  A    between atoms: N_6  and  S_1 
REMARK    3  A    between atoms: S_2  and  N_4 
REMARK    4  A    between atoms: C_10  and  S_2 
REMARK    5  A    between atoms: N_4  and  C_5 
ROOT
ATOM      1  C   UNL d   1     -51.099  26.796  33.559  0.00  0.00     0.105 A 
ATOM      2  C   UNL d   1     -49.895  27.550  33.669  0.00  0.00     0.076 A 
ATOM      3  C   UNL d   1     -50.275  26.828  33.681  0.00  0.00     0.031 A 
ATOM      4  C   UNL d   1     -51.515  27.494  33.428  0.00  0.00     0.012 A 
ATOM      5  C   UNL d   1     -50.313  28.250  33.538  0.00  0.00     0.017 A 
ATOM      6  C   UNL d   1     -51.123  28.228  33.417  0.00  0.00     0.002 A 
ATOM      7  C   UNL d   1     -49.921  28.984  33.526  0.00  0.00     0.002 C 
ATOM      8  C   UNL d   1     -52.338  27.463  33.307  0.00  0.00     0.001 C 
ENDROOT
BRANCH   2   9
ATOM      9  N   UNL d   1     -49.076  27.554  33.793  0.00  0.00    -0.229 N 
ATOM     10  C   UNL d   1     -48.601  27.114  33.306  0.00  0.00     0.111 C 
BRANCH   9  11
ATOM     11  S   UNL d   1     -48.763  27.996  34.398  0.00  0.00     0.271 S 
ATOM     12  O   UNL d   1     -49.485  28.378  34.493  0.00  0.00    -0.200 OA
ATOM     13  O   UNL d   1     -48.026  27.621  34.316  0.00  0.00    -0.200 OA
BRANCH  11  14
ATOM     14  C   UNL d   1     -48.447  28.457  35.024  0.00  0.00     0.104 A 
ATOM     15  C   UNL d   1     -48.818  28.463  35.761  0.00  0.00     0.013 A 
ATOM     16  C   UNL d   1     -48.507  28.911  36.365  0.00  0.00     0.001 A 
ATOM     17  C   UNL d   1     -47.820  29.356  36.227  0.00  0.00     0.000 A 
ATOM     18  C   UNL d   1     -47.459  29.350  35.508  0.00  0.00     0.001 A 
ATOM     19  C   UNL d   1     -47.492  29.821  36.842  0.00  0.00     0.000 C 
ATOM     20  C   UNL d   1     -47.764  28.901  34.892  0.00  0.00     0.013 A 
ENDBRANCH  11  14
ENDBRANCH   9  11
ENDBRANCH   2   9
BRANCH   1  21
ATOM     21  S   UNL d   1     -51.502  26.073  33.568  0.00  0.00     0.271 S 
ATOM     22  O   UNL d   1     -52.236  26.469  33.484  0.00  0.00    -0.200 OA
ATOM     23  O   UNL d   1     -50.768  25.670  33.652  0.00  0.00    -0.200 OA
BRANCH  21  24
ATOM     24  N   UNL d   1     -51.902  25.347  33.577  0.00  0.00    -0.229 N 
ATOM     25  C   UNL d   1     -52.673  25.302  33.854  0.00  0.00     0.092 A 
ATOM     26  C   UNL d   1     -53.086  24.579  33.869  0.00  0.00     0.020 A 
ATOM     27  C   UNL d   1     -52.712  23.901  33.601  0.00  0.00     0.003 A 
ATOM     28  C   UNL d   1     -51.934  23.949  33.322  0.00  0.00     0.020 A 
ATOM     29  C   UNL d   1     -53.101  23.189  33.608  0.00  0.00     0.000 C 
ATOM     30  C   UNL d   1     -51.546  24.654  33.313  0.00  0.00     0.092 A 
ENDBRANCH  21  24
ENDBRANCH   1  21
TORSDOF 5
ENDMDL
