MODEL 1
REMARK VINA RESULT:      -2.5      0.000      0.000
REMARK  3 active torsions:
REMARK  status: ('A' for Active; 'I' for Inactive)
REMARK    1  A    between atoms: N_9  and  C_3 
REMARK    2  A    between atoms: C_14  and  C_4 
REMARK       I    between atoms: C_10  and  N_11 
REMARK    3  A    between atoms: C_13  and  C_10 
ROOT
ATOM      1  N   UNL d   1      32.690  20.502 -22.199  0.00  0.00    -0.196 N 
ATOM      2  C   UNL d   1      32.760  21.310 -22.077  0.00  0.00     0.167 A 
ATOM      3  C   UNL d   1      32.800  20.183 -22.953  0.00  0.00     0.152 A 
ATOM      4  C   UNL d   1      32.622  21.461 -21.283  0.00  0.00     0.057 A 
ATOM      5  N   UNL d   1      32.507  20.150 -21.481  0.00  0.00    -0.161 NA
ATOM      6  N   UNL d   1      32.942  21.812 -22.707  0.00  0.00    -0.227 NA
ATOM      7  C   UNL d   1      32.983  20.686 -23.587  0.00  0.00     0.057 A 
ATOM      8  C   UNL d   1      32.467  20.750 -20.916  0.00  0.00     0.124 A 
ATOM      9  C   UNL d   1      33.054  21.494 -23.465  0.00  0.00     0.086 A 
ATOM     10  C   UNL d   1      33.238  21.993 -24.108  0.00  0.00     0.021 C 
ENDROOT
BRANCH   3  11
ATOM     11  N   UNL d   1      32.730  19.375 -23.075  0.00  0.00    -0.286 N 
ATOM     12  C   UNL d   1      32.162  19.073 -23.584  0.00  0.00     0.101 A 
ATOM     13  C   UNL d   1      32.093  18.256 -23.705  0.00  0.00     0.102 A 
ATOM     14  N   UNL d   1      32.605  17.742 -23.307  0.00  0.00    -0.267 N 
ATOM     15  C   UNL d   1      32.543  16.919 -23.423  0.00  0.00     0.288 C 
ATOM     16  C   UNL d   1      33.172  18.039 -22.799  0.00  0.00     0.102 A 
ATOM     17  O   UNL d   1      33.047  16.401 -23.032  0.00  0.00    -0.264 OA
ATOM     18  C   UNL d   1      33.241  18.857 -22.678  0.00  0.00     0.101 A 
BRANCH  15  19
ATOM     19  C   UNL d   1      31.969  16.623 -23.936  0.00  0.00     0.156 A 
ATOM     20  O   UNL d   1      31.827  16.744 -24.731  0.00  0.00    -0.300 OA
ATOM     21  C   UNL d   1      31.165  16.296 -24.951  0.00  0.00     0.123 A 
ATOM     22  C   UNL d   1      30.909  15.906 -24.293  0.00  0.00     0.029 A 
ATOM     23  C   UNL d   1      31.398  16.101 -23.663  0.00  0.00     0.032 A 
ENDBRANCH  15  19
ENDBRANCH   3  11
BRANCH   4  24
ATOM     24  C   UNL d   1      32.617  22.160 -20.845  0.00  0.00     0.004 A 
ATOM     25  C   UNL d   1      32.019  22.723 -20.968  0.00  0.00     0.000 A 
ATOM     26  C   UNL d   1      32.015  23.421 -20.530  0.00  0.00     0.000 A 
ATOM     27  C   UNL d   1      32.603  23.564 -19.969  0.00  0.00     0.000 A 
ATOM     28  C   UNL d   1      33.199  23.005 -19.844  0.00  0.00     0.000 A 
ATOM     29  C   UNL d   1      33.204  22.306 -20.283  0.00  0.00     0.000 A 
ENDBRANCH   4  24
TORSDOF 3
ENDMDL
MODEL 2
REMARK VINA RESULT:      -0.2      2.062      5.443
REMARK  3 active torsions:
REMARK  status: ('A' for Active; 'I' for Inactive)
REMARK    1  A    between atoms: N_9  and  C_3 
REMARK    2  A    between atoms: C_14  and  C_4 
REMARK       I    between atoms: C_10  and  N_11 
REMARK    3  A    between atoms: C_13  and  C_10 
ROOT
ATOM      1  N   UNL d   1      32.890  19.727 -22.719  0.00  0.00    -0.196 N 
ATOM      2  C   UNL d   1      32.854  19.149 -23.300  0.00  0.00     0.167 A 
ATOM      3  C   UNL d   1      33.042  20.513 -22.921  0.00  0.00     0.152 A 
ATOM      4  C   UNL d   1      32.696  18.431 -22.936  0.00  0.00     0.057 A 
ATOM      5  N   UNL d   1      32.755  19.368 -21.993  0.00  0.00    -0.161 NA
ATOM      6  N   UNL d   1      32.969  19.349 -24.092  0.00  0.00    -0.227 NA
ATOM      7  C   UNL d   1      33.159  20.715 -23.717  0.00  0.00     0.057 A 
ATOM      8  C   UNL d   1      32.635  18.564 -22.134  0.00  0.00     0.124 A 
ATOM      9  C   UNL d   1      33.122  20.137 -24.298  0.00  0.00     0.086 A 
ATOM     10  C   UNL d   1      33.241  20.349 -25.097  0.00  0.00     0.021 C 
ENDROOT
BRANCH   3  11
ATOM     11  N   UNL d   1      33.079  21.090 -22.340  0.00  0.00    -0.286 N 
ATOM     12  C   UNL d   1      33.097  20.889 -21.545  0.00  0.00     0.101 A 
ATOM     13  C   UNL d   1      33.134  21.475 -20.961  0.00  0.00     0.102 A 
ATOM     14  N   UNL d   1      33.152  22.271 -21.184  0.00  0.00    -0.267 N 
ATOM     15  C   UNL d   1      33.189  22.868 -20.602  0.00  0.00     0.288 C 
ATOM     16  C   UNL d   1      33.134  22.476 -21.975  0.00  0.00     0.102 A 
ATOM     17  O   UNL d   1      33.207  23.661 -20.816  0.00  0.00    -0.264 OA
ATOM     18  C   UNL d   1      33.097  21.890 -22.560  0.00  0.00     0.101 A 
BRANCH  15  19
ATOM     19  C   UNL d   1      33.207  22.656 -19.805  0.00  0.00     0.156 A 
ATOM     20  O   UNL d   1      33.212  21.932 -19.428  0.00  0.00    -0.300 OA
ATOM     21  C   UNL d   1      33.232  22.063 -18.609  0.00  0.00     0.123 A 
ATOM     22  C   UNL d   1      33.240  22.860 -18.493  0.00  0.00     0.029 A 
ATOM     23  C   UNL d   1      33.225  23.234 -19.223  0.00  0.00     0.032 A 
ENDBRANCH  15  19
ENDBRANCH   3  11
BRANCH   4  24
ATOM     24  C   UNL d   1      32.599  17.669 -23.235  0.00  0.00     0.004 A 
ATOM     25  C   UNL d   1      31.858  17.427 -23.522  0.00  0.00     0.000 A 
ATOM     26  C   UNL d   1      31.761  16.664 -23.821  0.00  0.00     0.000 A 
ATOM     27  C   UNL d   1      32.398  16.139 -23.837  0.00  0.00     0.000 A 
ATOM     28  C   UNL d   1      33.137  16.379 -23.552  0.00  0.00     0.000 A 
ATOM     29  C   UNL d   1      33.234  17.141 -23.253  0.00  0.00     0.000 A 
ENDBRANCH   4  24
TORSDOF 3
ENDMDL
