MODEL 1
REMARK VINA RESULT:      -5.1      0.000      0.000
REMARK  3 active torsions:
REMARK  status: ('A' for Active; 'I' for Inactive)
REMARK    1  A    between atoms: C_14  and  C_4 
REMARK    2  A    between atoms: C_10  and  O_11 
REMARK    3  A    between atoms: O_11  and  C_14 
ROOT
ATOM      1  C   UNL d   1      57.346   0.541  31.407  0.00  0.00     0.144 C 
ENDROOT
BRANCH   1   2
ATOM      2  O   UNL d   1      57.022  -0.156  31.728  0.00  0.00    -0.303 OA
BRANCH   2   3
ATOM      3  C   UNL d   1      56.459  -0.115  32.302  0.00  0.00     0.100 A 
ATOM      4  C   UNL d   1      56.122  -0.807  32.610  0.00  0.00     0.024 A 
ATOM      5  C   UNL d   1      55.540  -0.747  33.204  0.00  0.00     0.013 A 
ATOM      6  C   UNL d   1      56.343  -1.548  32.347  0.00  0.00     0.002 C 
ATOM      7  C   UNL d   1      55.297  -0.013  33.489  0.00  0.00     0.058 A 
ATOM      8  C   UNL d   1      55.634   0.679  33.181  0.00  0.00     0.013 A 
ATOM      9 CL   UNL d   1      54.705   0.057  34.094  0.00  0.00    -0.082 Cl
ATOM     10  C   UNL d   1      56.218   0.641  32.586  0.00  0.00     0.026 A 
ENDBRANCH   2   3
ENDBRANCH   1   2
BRANCH   1  11
ATOM     11  C   UNL d   1      57.906   0.502  30.824  0.00  0.00     0.142 A 
ATOM     12  N   UNL d   1      58.722   0.568  30.935  0.00  0.00    -0.057 NA
ATOM     13  C   UNL d   1      59.075   0.498  30.210  0.00  0.00     0.735 A 
ATOM     14  N   UNL d   1      58.493   0.389  29.654  0.00  0.00    -0.136 N 
ATOM     15  N   UNL d   1      59.872   0.520  29.979  0.00  0.00    -0.059 NA
ATOM     16  C   UNL d   1      57.786   0.394  30.047  0.00  0.00     0.120 A 
ATOM     17  C   UNL d   1      58.711   0.300  28.851  0.00  0.00     0.100 A 
ATOM     18  C   UNL d   1      59.485   0.321  28.627  0.00  0.00     0.041 A 
ATOM     19  C   UNL d   1      60.072   0.432  29.197  0.00  0.00     0.119 A 
ENDBRANCH   1  11
TORSDOF 3
ENDMDL
MODEL 2
REMARK VINA RESULT:      -4.5      2.381      4.635
REMARK  3 active torsions:
REMARK  status: ('A' for Active; 'I' for Inactive)
REMARK    1  A    between atoms: C_14  and  C_4 
REMARK    2  A    between atoms: C_10  and  O_11 
REMARK    3  A    between atoms: O_11  and  C_14 
ROOT
ATOM      1  C   UNL d   1      57.767   0.151  30.807  0.00  0.00     0.144 C 
ENDROOT
BRANCH   1   2
ATOM      2  O   UNL d   1      58.058  -0.404  30.260  0.00  0.00    -0.303 OA
BRANCH   2   3
ATOM      3  C   UNL d   1      58.709  -0.234  29.817  0.00  0.00     0.100 A 
ATOM      4  C   UNL d   1      58.999  -0.784  29.268  0.00  0.00     0.024 A 
ATOM      5  C   UNL d   1      59.674  -0.593  28.818  0.00  0.00     0.013 A 
ATOM      6  C   UNL d   1      58.642  -1.509  29.155  0.00  0.00     0.002 C 
ATOM      7  C   UNL d   1      60.057   0.132  28.910  0.00  0.00     0.058 A 
ATOM      8  C   UNL d   1      59.767   0.681  29.460  0.00  0.00     0.013 A 
ATOM      9 CL   UNL d   1      60.745   0.334  28.456  0.00  0.00    -0.082 Cl
ATOM     10  C   UNL d   1      59.092   0.510  29.920  0.00  0.00     0.026 A 
ENDBRANCH   2   3
ENDBRANCH   1   2
BRANCH   1  11
ATOM     11  C   UNL d   1      57.233  -0.072  31.373  0.00  0.00     0.142 A 
ATOM     12  N   UNL d   1      57.023  -0.850  31.556  0.00  0.00    -0.057 NA
ATOM     13  C   UNL d   1      56.474  -0.822  32.150  0.00  0.00     0.735 A 
ATOM     14  N   UNL d   1      56.342  -0.043  32.337  0.00  0.00    -0.136 N 
ATOM     15  N   UNL d   1      56.068  -1.422  32.556  0.00  0.00    -0.059 NA
ATOM     16  C   UNL d   1      56.813   0.401  31.853  0.00  0.00     0.120 A 
ATOM     17  C   UNL d   1      55.792   0.141  32.942  0.00  0.00     0.100 A 
ATOM     18  C   UNL d   1      55.398  -0.441  33.335  0.00  0.00     0.041 A 
ATOM     19  C   UNL d   1      55.537  -1.232  33.141  0.00  0.00     0.119 A 
ENDBRANCH   1  11
TORSDOF 3
ENDMDL
MODEL 3
REMARK VINA RESULT:      -4.1      2.396      4.603
REMARK  3 active torsions:
REMARK  status: ('A' for Active; 'I' for Inactive)
REMARK    1  A    between atoms: C_14  and  C_4 
REMARK    2  A    between atoms: C_10  and  O_11 
REMARK    3  A    between atoms: O_11  and  C_14 
ROOT
ATOM      1  C   UNL d   1      57.321  -0.798  31.574  0.00  0.00     0.144 C 
ENDROOT
BRANCH   1   2
ATOM      2  O   UNL d   1      57.474  -0.339  30.896  0.00  0.00    -0.303 OA
BRANCH   2   3
ATOM      3  C   UNL d   1      57.928  -0.635  30.301  0.00  0.00     0.100 A 
ATOM      4  C   UNL d   1      58.275  -0.128  29.745  0.00  0.00     0.024 A 
ATOM      5  C   UNL d   1      58.742  -0.450  29.134  0.00  0.00     0.013 A 
ATOM      6  C   UNL d   1      58.172   0.682  29.777  0.00  0.00     0.002 C 
ATOM      7  C   UNL d   1      58.863  -1.264  29.075  0.00  0.00     0.058 A 
ATOM      8  C   UNL d   1      58.516  -1.771  29.631  0.00  0.00     0.013 A 
ATOM      9 CL   UNL d   1      59.338  -1.600  28.456  0.00  0.00    -0.082 Cl
ATOM     10  C   UNL d   1      58.046  -1.469  30.250  0.00  0.00     0.026 A 
ENDBRANCH   2   3
ENDBRANCH   1   2
BRANCH   1  11
ATOM     11  C   UNL d   1      56.871  -0.500  32.177  0.00  0.00     0.142 A 
ATOM     12  N   UNL d   1      57.147  -0.023  32.793  0.00  0.00    -0.057 NA
ATOM     13  C   UNL d   1      56.518   0.149  33.271  0.00  0.00     0.735 A 
ATOM     14  N   UNL d   1      55.859  -0.212  32.963  0.00  0.00    -0.136 N 
ATOM     15  N   UNL d   1      56.458   0.600  33.966  0.00  0.00    -0.059 NA
ATOM     16  C   UNL d   1      56.093  -0.604  32.296  0.00  0.00     0.120 A 
ATOM     17  C   UNL d   1      55.125  -0.121  33.357  0.00  0.00     0.100 A 
ATOM     18  C   UNL d   1      55.067   0.317  34.031  0.00  0.00     0.041 A 
ATOM     19  C   UNL d   1      55.741   0.682  34.339  0.00  0.00     0.119 A 
ENDBRANCH   1  11
TORSDOF 3
ENDMDL
MODEL 4
REMARK VINA RESULT:      -2.9      9.900     10.563
REMARK  3 active torsions:
REMARK  status: ('A' for Active; 'I' for Inactive)
REMARK    1  A    between atoms: C_14  and  C_4 
REMARK    2  A    between atoms: C_10  and  O_11 
REMARK    3  A    between atoms: O_11  and  C_14 
ROOT
ATOM      1  C   UNL d   1      59.559  -9.699  32.942  0.00  0.00     0.144 C 
ENDROOT
BRANCH   1   2
ATOM      2  O   UNL d   1      58.813  -9.801  32.585  0.00  0.00    -0.303 OA
BRANCH   2   3
ATOM      3  C   UNL d   1      58.745  -9.803  31.783  0.00  0.00     0.100 A 
ATOM      4  C   UNL d   1      57.997  -9.799  31.426  0.00  0.00     0.024 A 
ATOM      5  C   UNL d   1      57.942  -9.801  30.594  0.00  0.00     0.013 A 
ATOM      6  C   UNL d   1      57.309  -9.792  31.866  0.00  0.00     0.002 C 
ATOM      7  C   UNL d   1      58.620  -9.808  30.123  0.00  0.00     0.058 A 
ATOM      8  C   UNL d   1      59.368  -9.813  30.480  0.00  0.00     0.013 A 
ATOM      9 CL   UNL d   1      58.573  -9.811  29.275  0.00  0.00    -0.082 Cl
ATOM     10  C   UNL d   1      59.443  -9.811  31.311  0.00  0.00     0.026 A 
ENDBRANCH   2   3
ENDBRANCH   1   2
BRANCH   1  11
ATOM     11  C   UNL d   1      59.617  -9.400  33.691  0.00  0.00     0.142 A 
ATOM     12  N   UNL d   1      59.890  -8.646  33.889  0.00  0.00    -0.057 NA
ATOM     13  C   UNL d   1      59.857  -8.576  34.695  0.00  0.00     0.735 A 
ATOM     14  N   UNL d   1      59.568  -9.272  34.998  0.00  0.00    -0.136 N 
ATOM     15  N   UNL d   1      60.057  -7.952  35.204  0.00  0.00    -0.059 NA
ATOM     16  C   UNL d   1      59.427  -9.763  34.371  0.00  0.00     0.120 A 
ATOM     17  C   UNL d   1      59.478  -9.346  35.827  0.00  0.00     0.100 A 
ATOM     18  C   UNL d   1      59.672  -8.740  36.322  0.00  0.00     0.041 A 
ATOM     19  C   UNL d   1      59.965  -8.035  36.007  0.00  0.00     0.119 A 
ENDBRANCH   1  11
TORSDOF 3
ENDMDL
MODEL 5
REMARK VINA RESULT:      -2.6      2.484      4.785
REMARK  3 active torsions:
REMARK  status: ('A' for Active; 'I' for Inactive)
REMARK    1  A    between atoms: C_14  and  C_4 
REMARK    2  A    between atoms: C_10  and  O_11 
REMARK    3  A    between atoms: O_11  and  C_14 
ROOT
ATOM      1  C   UNL d   1      56.780  -0.124  32.149  0.00  0.00     0.144 C 
ENDROOT
BRANCH   1   2
ATOM      2  O   UNL d   1      57.458   0.325  31.969  0.00  0.00    -0.303 OA
BRANCH   2   3
ATOM      3  C   UNL d   1      57.839   0.220  31.268  0.00  0.00     0.100 A 
ATOM      4  C   UNL d   1      58.646   0.397  31.198  0.00  0.00     0.024 A 
ATOM      5  C   UNL d   1      59.026   0.283  30.465  0.00  0.00     0.013 A 
ATOM      6  C   UNL d   1      59.081   0.682  31.828  0.00  0.00     0.002 C 
ATOM      7  C   UNL d   1      58.613  -0.004  29.811  0.00  0.00     0.058 A 
ATOM      8  C   UNL d   1      57.806  -0.181  29.881  0.00  0.00     0.013 A 
ATOM      9 CL   UNL d   1      58.993  -0.123  29.061  0.00  0.00    -0.082 Cl
ATOM     10  C   UNL d   1      57.407  -0.073  30.606  0.00  0.00     0.026 A 
ENDBRANCH   2   3
ENDBRANCH   1   2
BRANCH   1  11
ATOM     11  C   UNL d   1      56.332   0.054  32.800  0.00  0.00     0.142 A 
ATOM     12  N   UNL d   1      55.507   0.092  32.820  0.00  0.00    -0.057 NA
ATOM     13  C   UNL d   1      55.289   0.286  33.575  0.00  0.00     0.735 A 
ATOM     14  N   UNL d   1      55.963   0.368  34.021  0.00  0.00    -0.136 N 
ATOM     15  N   UNL d   1      54.544   0.401  33.923  0.00  0.00    -0.059 NA
ATOM     16  C   UNL d   1      56.590   0.223  33.531  0.00  0.00     0.120 A 
ATOM     17  C   UNL d   1      55.892   0.570  34.830  0.00  0.00     0.100 A 
ATOM     18  C   UNL d   1      55.169   0.682  35.168  0.00  0.00     0.041 A 
ATOM     19  C   UNL d   1      54.487   0.597  34.710  0.00  0.00     0.119 A 
ENDBRANCH   1  11
TORSDOF 3
ENDMDL
MODEL 6
REMARK VINA RESULT:      -2.2     10.124     10.282
REMARK  3 active torsions:
REMARK  status: ('A' for Active; 'I' for Inactive)
REMARK    1  A    between atoms: C_14  and  C_4 
REMARK    2  A    between atoms: C_10  and  O_11 
REMARK    3  A    between atoms: O_11  and  C_14 
ROOT
ATOM      1  C   UNL d   1      58.518  -9.774  32.151  0.00  0.00     0.144 C 
ENDROOT
BRANCH   1   2
ATOM      2  O   UNL d   1      59.327  -9.755  32.347  0.00  0.00    -0.303 OA
BRANCH   2   3
ATOM      3  C   UNL d   1      59.557  -9.624  33.108  0.00  0.00     0.100 A 
ATOM      4  C   UNL d   1      60.361  -9.552  33.298  0.00  0.00     0.024 A 
ATOM      5  C   UNL d   1      60.582  -9.416  34.090  0.00  0.00     0.013 A 
ATOM      6  C   UNL d   1      60.945  -9.610  32.729  0.00  0.00     0.002 C 
ATOM      7  C   UNL d   1      60.015  -9.354  34.686  0.00  0.00     0.058 A 
ATOM      8  C   UNL d   1      59.211  -9.426  34.496  0.00  0.00     0.013 A 
ATOM      9 CL   UNL d   1      60.232  -9.216  35.495  0.00  0.00    -0.082 Cl
ATOM     10  C   UNL d   1      58.969  -9.561  33.709  0.00  0.00     0.026 A 
ENDBRANCH   2   3
ENDBRANCH   1   2
BRANCH   1  11
ATOM     11  C   UNL d   1      58.285  -9.777  31.376  0.00  0.00     0.142 A 
ATOM     12  N   UNL d   1      58.788  -9.806  30.722  0.00  0.00    -0.057 NA
ATOM     13  C   UNL d   1      58.326  -9.799  30.057  0.00  0.00     0.735 A 
ATOM     14  N   UNL d   1      57.548  -9.767  30.288  0.00  0.00    -0.136 N 
ATOM     15  N   UNL d   1      58.520  -9.818  29.250  0.00  0.00    -0.059 NA
ATOM     16  C   UNL d   1      57.542  -9.754  31.097  0.00  0.00     0.120 A 
ATOM     17  C   UNL d   1      56.951  -9.754  29.701  0.00  0.00     0.100 A 
ATOM     18  C   UNL d   1      57.139  -9.772  28.918  0.00  0.00     0.041 A 
ATOM     19  C   UNL d   1      57.932  -9.805  28.689  0.00  0.00     0.119 A 
ENDBRANCH   1  11
TORSDOF 3
ENDMDL
