MODEL 1
REMARK VINA RESULT:      13.0      0.000      0.000
REMARK  2 active torsions:
REMARK  status: ('A' for Active; 'I' for Inactive)
REMARK       I    between atoms: N_2  and  C_1 
REMARK       I    between atoms: N_3  and  C_1 
REMARK    1  A    between atoms: C_6  and  N_2 
REMARK    2  A    between atoms: C_5  and  N_3 
ROOT
ATOM      1  C   UNL d   1      44.621 -16.003  36.611  0.00  0.00     0.369 C 
ATOM      2  N   UNL d   1      45.432 -15.981  36.571  0.00  0.00    -0.191 NA
ATOM      3  N   UNL d   1      44.214 -15.380  36.930  0.00  0.00    -0.191 NA
ATOM      4  O   UNL d   1      44.147 -16.660  36.332  0.00  0.00    -0.242 OA
ENDROOT
BRANCH   2   5
ATOM      5  C   UNL d   1      45.830 -15.327  36.853  0.00  0.00     0.086 A 
ATOM      6  C   UNL d   1      45.917 -15.217  37.661  0.00  0.00     0.019 A 
ATOM      7  C   UNL d   1      46.319 -14.559  37.968  0.00  0.00     0.002 A 
ATOM      8  C   UNL d   1      46.641 -13.998  37.440  0.00  0.00     0.000 A 
ATOM      9  C   UNL d   1      46.551 -14.113  36.622  0.00  0.00     0.002 A 
ATOM     10  C   UNL d   1      46.149 -14.772  36.330  0.00  0.00     0.019 A 
ENDBRANCH   2   5
BRANCH   3  11
ATOM     11  C   UNL d   1      43.402 -15.399  36.972  0.00  0.00     0.086 A 
ATOM     12  C   UNL d   1      43.021 -15.153  37.655  0.00  0.00     0.019 A 
ATOM     13  C   UNL d   1      42.198 -15.169  37.707  0.00  0.00     0.002 A 
ATOM     14  C   UNL d   1      41.749 -15.439  37.056  0.00  0.00     0.000 A 
ATOM     15  C   UNL d   1      42.135 -15.686  36.370  0.00  0.00     0.002 A 
ATOM     16  C   UNL d   1      42.959 -15.665  36.330  0.00  0.00     0.019 A 
ENDBRANCH   3  11
TORSDOF 2
ENDMDL
MODEL 2
REMARK VINA RESULT:      14.1      6.807      7.686
REMARK  2 active torsions:
REMARK  status: ('A' for Active; 'I' for Inactive)
REMARK       I    between atoms: N_2  and  C_1 
REMARK       I    between atoms: N_3  and  C_1 
REMARK    1  A    between atoms: C_6  and  N_2 
REMARK    2  A    between atoms: C_5  and  N_3 
ROOT
ATOM      1  C   UNL d   1      45.796 -13.695  44.465  0.00  0.00     0.369 C 
ATOM      2  N   UNL d   1      46.074 -14.281  44.953  0.00  0.00    -0.191 NA
ATOM      3  N   UNL d   1      45.209 -13.857  43.931  0.00  0.00    -0.191 NA
ATOM      4  O   UNL d   1      46.087 -12.890  44.473  0.00  0.00    -0.242 OA
ENDROOT
BRANCH   2   5
ATOM      5  C   UNL d   1      45.757 -15.032  44.901  0.00  0.00     0.086 A 
ATOM      6  C   UNL d   1      44.946 -15.140  44.955  0.00  0.00     0.019 A 
ATOM      7  C   UNL d   1      44.605 -15.895  44.904  0.00  0.00     0.002 A 
ATOM      8  C   UNL d   1      45.101 -16.558  44.795  0.00  0.00     0.000 A 
ATOM      9  C   UNL d   1      45.923 -16.445  44.740  0.00  0.00     0.002 A 
ATOM     10  C   UNL d   1      46.249 -15.688  44.792  0.00  0.00     0.019 A 
ENDBRANCH   2   5
BRANCH   3  11
ATOM     11  C   UNL d   1      44.928 -13.271  43.441  0.00  0.00     0.086 A 
ATOM     12  C   UNL d   1      44.127 -13.102  43.423  0.00  0.00     0.019 A 
ATOM     13  C   UNL d   1      43.833 -12.510  42.929  0.00  0.00     0.002 A 
ATOM     14  C   UNL d   1      44.358 -12.081  42.442  0.00  0.00     0.000 A 
ATOM     15  C   UNL d   1      45.165 -12.254  42.463  0.00  0.00     0.002 A 
ATOM     16  C   UNL d   1      45.447 -12.848  42.961  0.00  0.00     0.019 A 
ENDBRANCH   3  11
TORSDOF 2
ENDMDL
MODEL 3
REMARK VINA RESULT:      15.7      0.805      3.498
REMARK  2 active torsions:
REMARK  status: ('A' for Active; 'I' for Inactive)
REMARK       I    between atoms: N_2  and  C_1 
REMARK       I    between atoms: N_3  and  C_1 
REMARK    1  A    between atoms: C_6  and  N_2 
REMARK    2  A    between atoms: C_5  and  N_3 
ROOT
ATOM      1  C   UNL d   1      44.472 -16.134  36.507  0.00  0.00     0.369 C 
ATOM      2  N   UNL d   1      43.763 -16.489  36.331  0.00  0.00    -0.191 NA
ATOM      3  N   UNL d   1      44.496 -15.346  36.690  0.00  0.00    -0.191 NA
ATOM      4  O   UNL d   1      45.222 -16.546  36.513  0.00  0.00    -0.242 OA
ENDROOT
BRANCH   2   5
ATOM      5  C   UNL d   1      43.078 -16.045  36.341  0.00  0.00     0.086 A 
ATOM      6  C   UNL d   1      42.347 -16.416  36.345  0.00  0.00     0.019 A 
ATOM      7  C   UNL d   1      41.640 -15.982  36.355  0.00  0.00     0.002 A 
ATOM      8  C   UNL d   1      41.676 -15.148  36.361  0.00  0.00     0.000 A 
ATOM      9  C   UNL d   1      42.419 -14.774  36.357  0.00  0.00     0.002 A 
ATOM     10  C   UNL d   1      43.114 -15.218  36.347  0.00  0.00     0.019 A 
ENDBRANCH   2   5
BRANCH   3  11
ATOM     11  C   UNL d   1      45.205 -14.987  36.866  0.00  0.00     0.086 A 
ATOM     12  C   UNL d   1      45.865 -15.135  36.403  0.00  0.00     0.019 A 
ATOM     13  C   UNL d   1      46.588 -14.777  36.573  0.00  0.00     0.002 A 
ATOM     14  C   UNL d   1      46.647 -14.258  37.225  0.00  0.00     0.000 A 
ATOM     15  C   UNL d   1      45.981 -14.111  37.690  0.00  0.00     0.002 A 
ATOM     16  C   UNL d   1      45.263 -14.476  37.509  0.00  0.00     0.019 A 
ENDBRANCH   3  11
TORSDOF 2
ENDMDL
