MODEL 1
REMARK VINA RESULT:     122.3      0.000      0.000
REMARK  8 active torsions:
REMARK  status: ('A' for Active; 'I' for Inactive)
REMARK    1  A    between atoms: C_14  and  N_1 
REMARK    2  A    between atoms: S_10  and  C_2 
REMARK    3  A    between atoms: C_7  and  C_9 
REMARK       I    between atoms: N_8  and  C_7 
REMARK    4  A    between atoms: C_26  and  S_10 
REMARK    5  A    between atoms: C_13  and  C_18 
REMARK    6  A    between atoms: C_16  and  C_26 
REMARK    7  A    between atoms: O_28  and  C_16 
REMARK    8  A    between atoms: C_31  and  O_28 
ROOT
ATOM      1  N   UNL d   1     -56.147-102.589 -39.354  0.00  0.00    -0.254 N 
ATOM      2  C   UNL d   1     -56.852-102.542 -39.759  0.00  0.00     0.182 A 
ATOM      3  C   UNL d   1     -55.429-102.541 -39.766  0.00  0.00     0.268 A 
ATOM      4  N   UNL d   1     -56.856-102.446 -40.572  0.00  0.00    -0.222 NA
ATOM      5  C   UNL d   1     -55.427-102.446 -40.577  0.00  0.00     0.074 A 
ATOM      6  C   UNL d   1     -56.144-102.397 -40.994  0.00  0.00     0.088 A 
ATOM      7  C   UNL d   1     -55.429-102.251 -42.233  0.00  0.00     0.058 A 
ATOM      8  C   UNL d   1     -56.150-102.300 -41.820  0.00  0.00     0.024 A 
ATOM      9  C   UNL d   1     -54.712-102.396 -41.001  0.00  0.00     0.006 A 
ATOM     10  O   UNL d   1     -54.712-102.590 -39.349  0.00  0.00    -0.267 OA
ATOM     11  C   UNL d   1     -54.719-102.301 -41.812  0.00  0.00     0.005 A 
ENDROOT
BRANCH   7  12
ATOM     12  C   UNL d   1     -55.439-102.155 -43.051  0.00  0.00     0.265 C 
ATOM     13  N   UNL d   1     -55.727-101.483 -43.391  0.00  0.00    -0.272 N 
ATOM     14  C   UNL d   1     -56.020-100.875 -42.891  0.00  0.00     0.083 A 
ATOM     15  C   UNL d   1     -55.738-101.386 -44.197  0.00  0.00     0.083 A 
ATOM     16  C   UNL d   1     -56.313-100.189 -43.244  0.00  0.00     0.024 A 
ATOM     17  C   UNL d   1     -56.325-100.090 -44.060  0.00  0.00     0.062 A 
ATOM     18  C   UNL d   1     -56.029-100.705 -44.550  0.00  0.00     0.024 A 
ATOM     19  O   UNL d   1     -55.137-102.787 -43.530  0.00  0.00    -0.267 OA
BRANCH  17  20
ATOM     20  C   UNL d   1     -56.620 -99.400 -44.400  0.00  0.00     0.297 C 
ATOM     21  O   UNL d   1     -57.372 -99.123 -44.186  0.00  0.00    -0.264 OA
ATOM     22  N   UNL d   1     -56.170 -98.978 -44.957  0.00  0.00    -0.102 N 
ENDBRANCH  17  20
ENDBRANCH   7  12
BRANCH   2  23
ATOM     23  S   UNL d   1     -57.577-102.591 -39.343  0.00  0.00    -0.044 SA
BRANCH  23  24
ATOM     24  C   UNL d   1     -58.264-102.761 -39.751  0.00  0.00     0.107 C 
BRANCH  24  25
ATOM     25  C   UNL d   1     -58.978-102.416 -39.494  0.00  0.00     0.307 C 
ATOM     26  O   UNL d   1     -59.659-102.870 -39.413  0.00  0.00    -0.258 OA
BRANCH  25  27
ATOM     27  O   UNL d   1     -58.989-101.603 -39.323  0.00  0.00    -0.271 OA
BRANCH  27  28
ATOM     28  C   UNL d   1     -59.182-101.073 -39.930  0.00  0.00     0.126 C 
ATOM     29  C   UNL d   1     -59.959-100.987 -40.122  0.00  0.00     0.029 C 
ENDBRANCH  27  28
ENDBRANCH  25  27
ENDBRANCH  24  25
ENDBRANCH  23  24
ENDBRANCH   2  23
BRANCH   1  30
ATOM     30  C   UNL d   1     -56.143-102.685 -38.541  0.00  0.00     0.069 A 
ATOM     31  C   UNL d   1     -55.439-102.695 -38.131  0.00  0.00     0.018 A 
ATOM     32  C   UNL d   1     -55.433-102.791 -37.314  0.00  0.00     0.002 A 
ATOM     33  C   UNL d   1     -56.157-102.878 -36.903  0.00  0.00     0.000 A 
ATOM     34  C   UNL d   1     -56.862-102.867 -37.322  0.00  0.00     0.002 A 
ATOM     35  C   UNL d   1     -56.875-102.771 -38.143  0.00  0.00     0.018 A 
ENDBRANCH   1  30
TORSDOF 8
ENDMDL
