MODEL 1
REMARK VINA RESULT:      71.4      0.000      0.000
REMARK  6 active torsions:
REMARK  status: ('A' for Active; 'I' for Inactive)
REMARK    1  A    between atoms: C_7  and  C_1 
REMARK       I    between atoms: C_2  and  N_4 
REMARK    2  A    between atoms: C_10  and  C_2 
REMARK    3  A    between atoms: N_4  and  C_3 
REMARK    4  A    between atoms: O_20  and  C_5 
REMARK    5  A    between atoms: O_21  and  C_7 
REMARK    6  A    between atoms: C_11  and  C_12 
ROOT
ATOM      1  C   UNL d   1      57.413  49.523  51.232  0.00  0.00     0.086 A 
ATOM      2  C   UNL d   1      59.033  49.307  50.951  0.00  0.00     0.148 A 
ATOM      3  C   UNL d   1      57.695  49.275  50.488  0.00  0.00     0.102 A 
ATOM      4  C   UNL d   1      57.962  49.664  51.845  0.00  0.00     0.021 A 
ATOM      5  C   UNL d   1      58.496  49.168  50.351  0.00  0.00     0.057 A 
ATOM      6  C   UNL d   1      58.779  49.556  51.705  0.00  0.00     0.088 A 
ATOM      7 CL   UNL d   1      59.312  49.697  52.311  0.00  0.00    -0.080 Cl
ENDROOT
BRANCH   2   8
ATOM      8  N   UNL d   1      59.850  49.205  50.831  0.00  0.00    -0.364 NA
ATOM      9  C   UNL d   1      60.659  49.070  50.707  0.00  0.00     0.328 C 
ATOM     10  O   UNL d   1      61.170  49.705  50.761  0.00  0.00    -0.251 OA
BRANCH   9  11
ATOM     11  C   UNL d   1      60.922  48.328  50.537  0.00  0.00     0.070 A 
ATOM     12  C   UNL d   1      60.403  47.690  50.593  0.00  0.00     0.006 A 
ATOM     13  C   UNL d   1      60.656  46.923  50.423  0.00  0.00    -0.004 A 
ATOM     14  C   UNL d   1      61.446  46.790  50.192  0.00  0.00    -0.023 A 
ATOM     15  C   UNL d   1      61.968  47.421  50.134  0.00  0.00    -0.004 A 
ATOM     16  C   UNL d   1      61.697  48.189  50.309  0.00  0.00     0.006 A 
BRANCH  14  17
ATOM     17  C   UNL d   1      61.690  46.011  50.023  0.00  0.00     0.019 C 
ATOM     18  C   UNL d   1      62.002  45.826  49.293  0.00  0.00     0.004 C 
ATOM     19  C   UNL d   1      61.607  45.437  50.615  0.00  0.00     0.004 C 
ATOM     20  C   UNL d   1      61.847  46.430  49.330  0.00  0.00     0.004 C 
ENDBRANCH  14  17
ENDBRANCH   9  11
ENDBRANCH   2   8
BRANCH   3  21
ATOM     21  O   UNL d   1      57.165  49.134  49.883  0.00  0.00    -0.328 OA
ATOM     22  C   UNL d   1      57.447  49.058  49.093  0.00  0.00     0.181 C 
ENDBRANCH   3  21
BRANCH   1  23
ATOM     23  C   UNL d   1      56.615  49.625  51.359  0.00  0.00     0.298 C 
ATOM     24  O   UNL d   1      56.099  49.705  50.711  0.00  0.00    -0.259 OA
BRANCH  23  25
ATOM     25  O   UNL d   1      56.320  49.650  52.124  0.00  0.00    -0.296 OA
ATOM     26  C   UNL d   1      56.830  49.693  52.777  0.00  0.00     0.185 C 
ENDBRANCH  23  25
ENDBRANCH   1  23
TORSDOF 6
ENDMDL
MODEL 2
REMARK VINA RESULT:      73.2      1.954      4.961
REMARK  6 active torsions:
REMARK  status: ('A' for Active; 'I' for Inactive)
REMARK    1  A    between atoms: C_7  and  C_1 
REMARK       I    between atoms: C_2  and  N_4 
REMARK    2  A    between atoms: C_10  and  C_2 
REMARK    3  A    between atoms: N_4  and  C_3 
REMARK    4  A    between atoms: O_20  and  C_5 
REMARK    5  A    between atoms: O_21  and  C_7 
REMARK    6  A    between atoms: C_11  and  C_12 
ROOT
ATOM      1  C   UNL d   1      61.595  46.007  50.297  0.00  0.00     0.086 A 
ATOM      2  C   UNL d   1      61.027  47.543  50.560  0.00  0.00     0.148 A 
ATOM      3  C   UNL d   1      60.890  46.142  50.719  0.00  0.00     0.102 A 
ATOM      4  C   UNL d   1      62.021  46.663  50.002  0.00  0.00     0.021 A 
ATOM      5  C   UNL d   1      60.610  46.902  50.849  0.00  0.00     0.057 A 
ATOM      6  C   UNL d   1      61.736  47.437  50.134  0.00  0.00     0.088 A 
ATOM      7 CL   UNL d   1      62.158  48.075  49.842  0.00  0.00    -0.080 Cl
ENDROOT
BRANCH   2   8
ATOM      8  N   UNL d   1      60.760  48.321  50.681  0.00  0.00    -0.364 NA
ATOM      9  C   UNL d   1      60.461  49.086  50.799  0.00  0.00     0.328 C 
ATOM     10  O   UNL d   1      60.993  49.696  50.910  0.00  0.00    -0.251 OA
BRANCH   9  11
ATOM     11  C   UNL d   1      59.666  49.212  50.802  0.00  0.00     0.070 A 
ATOM     12  C   UNL d   1      59.308  49.571  50.150  0.00  0.00     0.006 A 
ATOM     13  C   UNL d   1      58.495  49.707  50.137  0.00  0.00    -0.004 A 
ATOM     14  C   UNL d   1      58.026  49.480  50.789  0.00  0.00    -0.023 A 
ATOM     15  C   UNL d   1      58.376  49.123  51.440  0.00  0.00    -0.004 A 
ATOM     16  C   UNL d   1      59.198  48.992  51.439  0.00  0.00     0.006 A 
BRANCH  14  17
ATOM     17  C   UNL d   1      57.206  49.623  50.764  0.00  0.00     0.019 C 
ATOM     18  C   UNL d   1      56.817  49.677  50.050  0.00  0.00     0.004 C 
ATOM     19  C   UNL d   1      56.800  49.707  51.483  0.00  0.00     0.004 C 
ATOM     20  C   UNL d   1      57.428  49.569  49.972  0.00  0.00     0.004 C 
ENDBRANCH  14  17
ENDBRANCH   9  11
ENDBRANCH   2   8
BRANCH   3  21
ATOM     21  O   UNL d   1      60.467  45.507  51.011  0.00  0.00    -0.328 OA
ATOM     22  C   UNL d   1      60.326  45.446  51.838  0.00  0.00     0.181 C 
ENDBRANCH   3  21
BRANCH   1  23
ATOM     23  C   UNL d   1      61.865  45.248  50.173  0.00  0.00     0.298 C 
ATOM     24  O   UNL d   1      61.639  44.638  50.693  0.00  0.00    -0.259 OA
BRANCH  23  25
ATOM     25  O   UNL d   1      62.358  45.086  49.539  0.00  0.00    -0.296 OA
ATOM     26  C   UNL d   1      62.559  44.306  49.341  0.00  0.00     0.185 C 
ENDBRANCH  23  25
ENDBRANCH   1  23
TORSDOF 6
ENDMDL
