MODEL 1
REMARK VINA RESULT:      65.9      0.000      0.000
REMARK  4 active torsions:
REMARK  status: ('A' for Active; 'I' for Inactive)
REMARK    1  A    between atoms: N_10  and  C_3 
REMARK    2  A    between atoms: C_13  and  C_5 
REMARK    3  A    between atoms: C_12  and  C_9 
REMARK    4  A    between atoms: C_19  and  N_11 
ROOT
ATOM      1  N   UNL d   1     -51.468  26.238  33.384  0.00  0.00    -0.196 N 
ATOM      2  C   UNL d   1     -51.841  25.498  33.375  0.00  0.00     0.167 A 
ATOM      3  C   UNL d   1     -50.654  26.272  33.408  0.00  0.00     0.152 A 
ATOM      4  N   UNL d   1     -52.729  26.859  33.345  0.00  0.00    -0.163 NA
ATOM      5  C   UNL d   1     -52.644  25.445  33.351  0.00  0.00     0.055 A 
ATOM      6  N   UNL d   1     -51.389  24.813  33.390  0.00  0.00    -0.231 NA
ATOM      7  C   UNL d   1     -50.199  25.584  33.423  0.00  0.00     0.052 A 
ATOM      8  C   UNL d   1     -53.096  26.131  33.336  0.00  0.00     0.104 A 
ATOM      9  C   UNL d   1     -50.566  24.856  33.414  0.00  0.00     0.063 A 
ATOM     10  C   UNL d   1     -53.908  26.091  33.312  0.00  0.00     0.023 C 
ENDROOT
BRANCH   3  11
ATOM     11  N   UNL d   1     -50.270  27.035  33.418  0.00  0.00    -0.286 N 
ATOM     12  C   UNL d   1     -50.688  27.767  33.408  0.00  0.00     0.101 A 
ATOM     13  C   UNL d   1     -50.260  28.493  33.419  0.00  0.00     0.100 A 
ATOM     14  N   UNL d   1     -49.409  28.494  33.440  0.00  0.00    -0.300 N 
ATOM     15  C   UNL d   1     -48.999  27.757  33.450  0.00  0.00     0.100 A 
ATOM     16  C   UNL d   1     -49.428  27.017  33.439  0.00  0.00     0.101 A 
BRANCH  14  17
ATOM     17  C   UNL d   1     -48.973  29.216  33.451  0.00  0.00     0.080 C 
ATOM     18  C   UNL d   1     -48.952  29.672  34.164  0.00  0.00     0.021 C 
ENDBRANCH  14  17
ENDBRANCH   3  11
BRANCH   9  19
ATOM     19  C   UNL d   1     -50.100  24.143  33.430  0.00  0.00     0.036 C 
ATOM     20  C   UNL d   1     -49.645  23.436  33.444  0.00  0.00     0.006 C 
ATOM     21  C   UNL d   1     -49.254  24.191  33.521  0.00  0.00     0.006 C 
ATOM     22  C   UNL d   1     -50.489  23.392  33.353  0.00  0.00     0.006 C 
ENDBRANCH   9  19
BRANCH   5  23
ATOM     23  C   UNL d   1     -53.013  24.713  33.342  0.00  0.00     0.004 A 
ATOM     24  C   UNL d   1     -53.829  24.675  33.354  0.00  0.00     0.000 A 
ATOM     25  C   UNL d   1     -54.201  23.935  33.344  0.00  0.00     0.000 A 
ATOM     26  C   UNL d   1     -53.746  23.256  33.323  0.00  0.00     0.000 A 
ATOM     27  C   UNL d   1     -52.928  23.309  33.311  0.00  0.00     0.000 A 
ATOM     28  C   UNL d   1     -52.562  24.037  33.320  0.00  0.00     0.000 A 
ENDBRANCH   5  23
TORSDOF 4
ENDMDL
