MODEL 1
REMARK VINA RESULT:      -8.5      0.000      0.000
REMARK  5 active torsions:
REMARK  status: ('A' for Active; 'I' for Inactive)
REMARK    1  A    between atoms: C_16  and  N_5 
REMARK    2  A    between atoms: S_12  and  C_6 
REMARK    3  A    between atoms: C_10  and  C_14 
REMARK       I    between atoms: N_11  and  C_10 
REMARK    4  A    between atoms: C_14  and  S_12 
REMARK    5  A    between atoms: C_18  and  C_16 
ROOT
ATOM      1  C   UNL d   1      52.723  32.594  53.309  0.00  0.00     0.081 A 
ATOM      2  C   UNL d   1      51.957  32.408  53.069  0.00  0.00     0.117 A 
ATOM      3  N   UNL d   1      51.395  32.992  52.985  0.00  0.00    -0.215 NA
ATOM      4  C   UNL d   1      52.923  33.374  53.465  0.00  0.00     0.268 A 
ATOM      5  N   UNL d   1      52.362  33.965  53.382  0.00  0.00    -0.253 N 
ATOM      6  C   UNL d   1      51.575  33.793  53.138  0.00  0.00     0.182 A 
ATOM      7  S   UNL d   1      51.926  31.561  52.953  0.00  0.00    -0.068 SA
ATOM      8  C   UNL d   1      53.145  31.883  53.338  0.00  0.00     0.013 A 
ATOM      9  C   UNL d   1      52.637  31.272  53.116  0.00  0.00     0.031 A 
ATOM     10  O   UNL d   1      53.684  33.598  53.708  0.00  0.00    -0.267 OA
ATOM     11  C   UNL d   1      53.934  31.720  53.539  0.00  0.00     0.001 A 
ATOM     12  C   UNL d   1      52.925  30.497  53.099  0.00  0.00     0.006 A 
ATOM     13  C   UNL d   1      54.194  30.945  53.514  0.00  0.00     0.000 A 
ATOM     14  C   UNL d   1      53.706  30.348  53.300  0.00  0.00     0.001 A 
ENDROOT
BRANCH   6  15
ATOM     15  S   UNL d   1      51.013  34.384  53.055  0.00  0.00    -0.044 SA
BRANCH  15  16
ATOM     16  C   UNL d   1      50.385  34.279  52.539  0.00  0.00     0.099 C 
BRANCH  16  17
ATOM     17  C   UNL d   1      49.717  34.765  52.614  0.00  0.00     0.272 C 
ATOM     18  N   UNL d   1      49.131  34.832  52.035  0.00  0.00    -0.267 N 
ATOM     19  C   UNL d   1      48.488  35.322  52.149  0.00  0.00     0.110 A 
ATOM     20  C   UNL d   1      49.191  34.400  51.333  0.00  0.00     0.110 A 
ATOM     21  C   UNL d   1      47.871  35.413  51.579  0.00  0.00     0.142 A 
ATOM     22  O   UNL d   1      47.941  34.978  50.880  0.00  0.00    -0.300 OA
ATOM     23  C   UNL d   1      48.616  34.457  50.749  0.00  0.00     0.142 A 
ATOM     24  O   UNL d   1      49.707  35.178  53.344  0.00  0.00    -0.266 OA
ENDBRANCH  16  17
ENDBRANCH  15  16
ENDBRANCH   6  15
BRANCH   5  25
ATOM     25  C   UNL d   1      52.563  34.773  53.541  0.00  0.00     0.085 C 
BRANCH  25  26
ATOM     26  C   UNL d   1      52.925  35.014  54.266  0.00  0.00     0.019 C 
ATOM     27  C   UNL d   1      53.057  35.805  54.448  0.00  0.00     0.002 C 
ENDBRANCH  25  26
ENDBRANCH   5  25
TORSDOF 5
ENDMDL
MODEL 2
REMARK VINA RESULT:      -6.8      1.411      2.628
REMARK  5 active torsions:
REMARK  status: ('A' for Active; 'I' for Inactive)
REMARK    1  A    between atoms: C_16  and  N_5 
REMARK    2  A    between atoms: S_12  and  C_6 
REMARK    3  A    between atoms: C_10  and  C_14 
REMARK       I    between atoms: N_11  and  C_10 
REMARK    4  A    between atoms: C_14  and  S_12 
REMARK    5  A    between atoms: C_18  and  C_16 
ROOT
ATOM      1  C   UNL d   1      53.343  33.454  54.118  0.00  0.00     0.081 A 
ATOM      2  C   UNL d   1      52.920  34.155  54.026  0.00  0.00     0.117 A 
ATOM      3  N   UNL d   1      52.248  34.177  53.567  0.00  0.00    -0.215 NA
ATOM      4  C   UNL d   1      53.085  32.770  53.745  0.00  0.00     0.268 A 
ATOM      5  N   UNL d   1      52.409  32.787  53.283  0.00  0.00    -0.253 N 
ATOM      6  C   UNL d   1      51.965  33.494  53.178  0.00  0.00     0.182 A 
ATOM      7  S   UNL d   1      53.326  34.757  54.478  0.00  0.00    -0.068 SA
ATOM      8  C   UNL d   1      53.986  33.623  54.611  0.00  0.00     0.013 A 
ATOM      9  C   UNL d   1      53.952  34.422  54.815  0.00  0.00     0.031 A 
ATOM     10  O   UNL d   1      53.485  32.047  53.816  0.00  0.00    -0.267 OA
ATOM     11  C   UNL d   1      54.599  33.144  54.898  0.00  0.00     0.001 A 
ATOM     12  C   UNL d   1      54.536  34.737  55.308  0.00  0.00     0.006 A 
ATOM     13  C   UNL d   1      55.165  33.479  55.385  0.00  0.00     0.000 A 
ATOM     14  C   UNL d   1      55.137  34.253  55.586  0.00  0.00     0.001 A 
ENDROOT
BRANCH   6  15
ATOM     15  S   UNL d   1      51.289  33.511  52.715  0.00  0.00    -0.044 SA
BRANCH  15  16
ATOM     16  C   UNL d   1      50.753  34.125  52.799  0.00  0.00     0.099 C 
BRANCH  16  17
ATOM     17  C   UNL d   1      50.197  34.261  52.199  0.00  0.00     0.272 C 
ATOM     18  N   UNL d   1      49.513  34.713  52.300  0.00  0.00    -0.267 N 
ATOM     19  C   UNL d   1      48.991  34.821  51.681  0.00  0.00     0.110 A 
ATOM     20  C   UNL d   1      49.350  35.060  53.032  0.00  0.00     0.110 A 
ATOM     21  C   UNL d   1      48.282  35.277  51.750  0.00  0.00     0.142 A 
ATOM     22  O   UNL d   1      48.130  35.620  52.486  0.00  0.00    -0.300 OA
ATOM     23  C   UNL d   1      48.674  35.512  53.146  0.00  0.00     0.142 A 
ATOM     24  O   UNL d   1      50.412  33.886  51.479  0.00  0.00    -0.266 OA
ENDBRANCH  16  17
ENDBRANCH  15  16
ENDBRANCH   6  15
BRANCH   5  25
ATOM     25  C   UNL d   1      52.137  32.084  52.895  0.00  0.00     0.085 C 
BRANCH  25  26
ATOM     26  C   UNL d   1      52.601  31.378  52.861  0.00  0.00     0.019 C 
ATOM     27  C   UNL d   1      52.265  30.639  52.729  0.00  0.00     0.002 C 
ENDBRANCH  25  26
ENDBRANCH   5  25
TORSDOF 5
ENDMDL
MODEL 3
REMARK VINA RESULT:      -6.7      9.993     10.644
REMARK  5 active torsions:
REMARK  status: ('A' for Active; 'I' for Inactive)
REMARK    1  A    between atoms: C_16  and  N_5 
REMARK    2  A    between atoms: S_12  and  C_6 
REMARK    3  A    between atoms: C_10  and  C_14 
REMARK       I    between atoms: N_11  and  C_10 
REMARK    4  A    between atoms: C_14  and  S_12 
REMARK    5  A    between atoms: C_18  and  C_16 
ROOT
ATOM      1  C   UNL d   1      44.954  28.287  57.946  0.00  0.00     0.081 A 
ATOM      2  C   UNL d   1      44.865  28.193  58.760  0.00  0.00     0.117 A 
ATOM      3  N   UNL d   1      44.830  28.841  59.251  0.00  0.00    -0.215 NA
ATOM      4  C   UNL d   1      45.008  29.040  57.626  0.00  0.00     0.268 A 
ATOM      5  N   UNL d   1      44.974  29.696  58.117  0.00  0.00    -0.253 N 
ATOM      6  C   UNL d   1      44.883  29.618  58.949  0.00  0.00     0.182 A 
ATOM      7  S   UNL d   1      44.826  27.353  58.915  0.00  0.00    -0.068 SA
ATOM      8  C   UNL d   1      44.969  27.528  57.616  0.00  0.00     0.013 A 
ATOM      9  C   UNL d   1      44.889  26.979  58.227  0.00  0.00     0.031 A 
ATOM     10  O   UNL d   1      45.099  29.173  56.812  0.00  0.00    -0.267 OA
ATOM     11  C   UNL d   1      45.045  27.271  56.831  0.00  0.00     0.001 A 
ATOM     12  C   UNL d   1      44.886  26.173  58.046  0.00  0.00     0.006 A 
ATOM     13  C   UNL d   1      45.040  26.468  56.677  0.00  0.00     0.000 A 
ATOM     14  C   UNL d   1      44.963  25.931  57.265  0.00  0.00     0.001 A 
ENDROOT
BRANCH   6  15
ATOM     15  S   UNL d   1      44.849  30.274  59.440  0.00  0.00    -0.044 SA
BRANCH  15  16
ATOM     16  C   UNL d   1      44.784  30.174  60.250  0.00  0.00     0.099 C 
BRANCH  16  17
ATOM     17  C   UNL d   1      44.673  30.840  60.732  0.00  0.00     0.272 C 
ATOM     18  N   UNL d   1      44.554  30.802  61.548  0.00  0.00    -0.267 N 
ATOM     19  C   UNL d   1      44.449  31.484  61.985  0.00  0.00     0.110 A 
ATOM     20  C   UNL d   1      44.541  30.070  61.931  0.00  0.00     0.110 A 
ATOM     21  C   UNL d   1      44.325  31.481  62.822  0.00  0.00     0.142 A 
ATOM     22  O   UNL d   1      44.314  30.743  63.194  0.00  0.00    -0.300 OA
ATOM     23  C   UNL d   1      44.424  30.017  62.743  0.00  0.00     0.142 A 
ATOM     24  O   UNL d   1      44.695  31.554  60.291  0.00  0.00    -0.266 OA
ENDBRANCH  16  17
ENDBRANCH  15  16
ENDBRANCH   6  15
BRANCH   5  25
ATOM     25  C   UNL d   1      45.030  30.477  57.792  0.00  0.00     0.085 C 
BRANCH  25  26
ATOM     26  C   UNL d   1      44.536  30.740  57.158  0.00  0.00     0.019 C 
ATOM     27  C   UNL d   1      44.550  31.515  56.884  0.00  0.00     0.002 C 
ENDBRANCH  25  26
ENDBRANCH   5  25
TORSDOF 5
ENDMDL
MODEL 4
REMARK VINA RESULT:      -6.1      0.943      1.160
REMARK  5 active torsions:
REMARK  status: ('A' for Active; 'I' for Inactive)
REMARK    1  A    between atoms: C_16  and  N_5 
REMARK    2  A    between atoms: S_12  and  C_6 
REMARK    3  A    between atoms: C_10  and  C_14 
REMARK       I    between atoms: N_11  and  C_10 
REMARK    4  A    between atoms: C_14  and  S_12 
REMARK    5  A    between atoms: C_18  and  C_16 
ROOT
ATOM      1  C   UNL d   1      53.060  31.680  53.646  0.00  0.00     0.081 A 
ATOM      2  C   UNL d   1      52.458  31.735  53.085  0.00  0.00     0.117 A 
ATOM      3  N   UNL d   1      52.118  32.454  52.912  0.00  0.00    -0.215 NA
ATOM      4  C   UNL d   1      53.319  32.354  54.035  0.00  0.00     0.268 A 
ATOM      5  N   UNL d   1      52.979  33.080  53.864  0.00  0.00    -0.253 N 
ATOM      6  C   UNL d   1      52.364  33.155  53.294  0.00  0.00     0.182 A 
ATOM      7  S   UNL d   1      52.318  30.947  52.786  0.00  0.00    -0.068 SA
ATOM      8  C   UNL d   1      53.279  30.883  53.687  0.00  0.00     0.013 A 
ATOM      9  C   UNL d   1      52.812  30.459  53.154  0.00  0.00     0.031 A 
ATOM     10  O   UNL d   1      53.921  32.337  54.605  0.00  0.00    -0.267 OA
ATOM     11  C   UNL d   1      53.848  30.492  54.147  0.00  0.00     0.001 A 
ATOM     12  C   UNL d   1      52.920  29.643  53.085  0.00  0.00     0.006 A 
ATOM     13  C   UNL d   1      53.936  29.683  54.061  0.00  0.00     0.000 A 
ATOM     14  C   UNL d   1      53.486  29.267  53.545  0.00  0.00     0.001 A 
ENDROOT
BRANCH   6  15
ATOM     15  S   UNL d   1      52.024  33.881  53.123  0.00  0.00    -0.044 SA
BRANCH  15  16
ATOM     16  C   UNL d   1      51.377  33.920  52.621  0.00  0.00     0.099 C 
BRANCH  16  17
ATOM     17  C   UNL d   1      50.789  34.486  52.765  0.00  0.00     0.272 C 
ATOM     18  N   UNL d   1      50.125  34.591  52.285  0.00  0.00    -0.267 N 
ATOM     19  C   UNL d   1      49.569  35.161  52.463  0.00  0.00     0.110 A 
ATOM     20  C   UNL d   1      50.019  34.117  51.616  0.00  0.00     0.110 A 
ATOM     21  C   UNL d   1      48.878  35.295  51.993  0.00  0.00     0.142 A 
ATOM     22  O   UNL d   1      48.782  34.815  51.327  0.00  0.00    -0.300 OA
ATOM     23  C   UNL d   1      49.364  34.210  51.130  0.00  0.00     0.142 A 
ATOM     24  O   UNL d   1      50.948  34.938  53.455  0.00  0.00    -0.266 OA
ENDBRANCH  16  17
ENDBRANCH  15  16
ENDBRANCH   6  15
BRANCH   5  25
ATOM     25  C   UNL d   1      53.242  33.781  54.261  0.00  0.00     0.085 C 
BRANCH  25  26
ATOM     26  C   UNL d   1      54.054  33.911  54.459  0.00  0.00     0.019 C 
ATOM     27  C   UNL d   1      54.310  34.602  54.824  0.00  0.00     0.002 C 
ENDBRANCH  25  26
ENDBRANCH   5  25
TORSDOF 5
ENDMDL
MODEL 5
REMARK VINA RESULT:      -5.8      1.271      4.737
REMARK  5 active torsions:
REMARK  status: ('A' for Active; 'I' for Inactive)
REMARK    1  A    between atoms: C_16  and  N_5 
REMARK    2  A    between atoms: S_12  and  C_6 
REMARK    3  A    between atoms: C_10  and  C_14 
REMARK       I    between atoms: N_11  and  C_10 
REMARK    4  A    between atoms: C_14  and  S_12 
REMARK    5  A    between atoms: C_18  and  C_16 
ROOT
ATOM      1  C   UNL d   1      50.575  34.478  52.839  0.00  0.00     0.081 A 
ATOM      2  C   UNL d   1      50.727  33.843  52.337  0.00  0.00     0.117 A 
ATOM      3  N   UNL d   1      51.410  33.407  52.414  0.00  0.00    -0.215 NA
ATOM      4  C   UNL d   1      51.117  34.675  53.423  0.00  0.00     0.268 A 
ATOM      5  N   UNL d   1      51.806  34.239  53.504  0.00  0.00    -0.253 N 
ATOM      6  C   UNL d   1      51.977  33.587  53.000  0.00  0.00     0.182 A 
ATOM      7  S   UNL d   1      50.065  33.783  51.798  0.00  0.00    -0.068 SA
ATOM      8  C   UNL d   1      49.845  34.795  52.613  0.00  0.00     0.013 A 
ATOM      9  C   UNL d   1      49.557  34.354  51.978  0.00  0.00     0.031 A 
ATOM     10  O   UNL d   1      50.998  35.308  53.946  0.00  0.00    -0.267 OA
ATOM     11  C   UNL d   1      49.407  35.435  52.911  0.00  0.00     0.001 A 
ATOM     12  C   UNL d   1      48.829  34.557  51.644  0.00  0.00     0.006 A 
ATOM     13  C   UNL d   1      48.690  35.616  52.563  0.00  0.00     0.000 A 
ATOM     14  C   UNL d   1      48.405  35.191  51.947  0.00  0.00     0.001 A 
ENDROOT
BRANCH   6  15
ATOM     15  S   UNL d   1      52.666  33.151  53.081  0.00  0.00    -0.044 SA
BRANCH  15  16
ATOM     16  C   UNL d   1      52.675  32.359  52.872  0.00  0.00     0.099 C 
BRANCH  16  17
ATOM     17  C   UNL d   1      53.279  31.871  53.162  0.00  0.00     0.272 C 
ATOM     18  N   UNL d   1      53.190  31.061  53.298  0.00  0.00    -0.267 N 
ATOM     19  C   UNL d   1      53.811  30.617  53.585  0.00  0.00     0.110 A 
ATOM     20  C   UNL d   1      52.467  30.693  53.142  0.00  0.00     0.110 A 
ATOM     21  C   UNL d   1      53.755  29.787  53.735  0.00  0.00     0.142 A 
ATOM     22  O   UNL d   1      53.028  29.428  53.576  0.00  0.00    -0.300 OA
ATOM     23  C   UNL d   1      52.364  29.888  53.272  0.00  0.00     0.142 A 
ATOM     24  O   UNL d   1      53.988  32.298  53.302  0.00  0.00    -0.266 OA
ENDBRANCH  16  17
ENDBRANCH  15  16
ENDBRANCH   6  15
BRANCH   5  25
ATOM     25  C   UNL d   1      52.370  34.437  54.105  0.00  0.00     0.085 C 
BRANCH  25  26
ATOM     26  C   UNL d   1      52.761  35.187  54.130  0.00  0.00     0.019 C 
ATOM     27  C   UNL d   1      53.273  35.394  54.739  0.00  0.00     0.002 C 
ENDBRANCH  25  26
ENDBRANCH   5  25
TORSDOF 5
ENDMDL
MODEL 6
REMARK VINA RESULT:      -5.8     10.416     11.007
REMARK  5 active torsions:
REMARK  status: ('A' for Active; 'I' for Inactive)
REMARK    1  A    between atoms: C_16  and  N_5 
REMARK    2  A    between atoms: S_12  and  C_6 
REMARK    3  A    between atoms: C_10  and  C_14 
REMARK       I    between atoms: N_11  and  C_10 
REMARK    4  A    between atoms: C_14  and  S_12 
REMARK    5  A    between atoms: C_18  and  C_16 
ROOT
ATOM      1  C   UNL d   1      44.487  28.678  61.016  0.00  0.00     0.081 A 
ATOM      2  C   UNL d   1      44.604  29.445  60.739  0.00  0.00     0.117 A 
ATOM      3  N   UNL d   1      44.669  29.592  59.940  0.00  0.00    -0.215 NA
ATOM      4  C   UNL d   1      44.435  28.055  60.484  0.00  0.00     0.268 A 
ATOM      5  N   UNL d   1      44.499  28.199  59.680  0.00  0.00    -0.253 N 
ATOM      6  C   UNL d   1      44.620  28.975  59.379  0.00  0.00     0.182 A 
ATOM      7  S   UNL d   1      44.634  29.960  61.421  0.00  0.00    -0.068 SA
ATOM      8  C   UNL d   1      44.446  28.724  61.841  0.00  0.00     0.013 A 
ATOM      9  C   UNL d   1      44.538  29.514  62.061  0.00  0.00     0.031 A 
ATOM     10  O   UNL d   1      44.317  27.271  60.727  0.00  0.00    -0.267 OA
ATOM     11  C   UNL d   1      44.335  28.139  62.420  0.00  0.00     0.001 A 
ATOM     12  C   UNL d   1      44.519  29.713  62.863  0.00  0.00     0.006 A 
ATOM     13  C   UNL d   1      44.320  28.362  63.206  0.00  0.00     0.000 A 
ATOM     14  C   UNL d   1      44.409  29.126  63.426  0.00  0.00     0.001 A 
ENDROOT
BRANCH   6  15
ATOM     15  S   UNL d   1      44.684  29.118  58.575  0.00  0.00    -0.044 SA
BRANCH  15  16
ATOM     16  C   UNL d   1      44.727  29.889  58.300  0.00  0.00     0.099 C 
BRANCH  16  17
ATOM     17  C   UNL d   1      44.663  30.031  57.486  0.00  0.00     0.272 C 
ATOM     18  N   UNL d   1      44.547  30.781  57.158  0.00  0.00    -0.267 N 
ATOM     19  C   UNL d   1      44.489  30.877  56.350  0.00  0.00     0.110 A 
ATOM     20  C   UNL d   1      44.489  31.443  57.650  0.00  0.00     0.110 A 
ATOM     21  C   UNL d   1      44.371  31.629  55.982  0.00  0.00     0.142 A 
ATOM     22  O   UNL d   1      44.314  32.284  56.482  0.00  0.00    -0.300 OA
ATOM     23  C   UNL d   1      44.374  32.194  57.337  0.00  0.00     0.142 A 
ATOM     24  O   UNL d   1      44.728  29.325  57.036  0.00  0.00    -0.266 OA
ENDBRANCH  16  17
ENDBRANCH  15  16
ENDBRANCH   6  15
BRANCH   5  25
ATOM     25  C   UNL d   1      44.446  27.560  59.125  0.00  0.00     0.085 C 
BRANCH  25  26
ATOM     26  C   UNL d   1      45.016  26.936  59.098  0.00  0.00     0.019 C 
ATOM     27  C   UNL d   1      44.867  26.223  58.716  0.00  0.00     0.002 C 
ENDBRANCH  25  26
ENDBRANCH   5  25
TORSDOF 5
ENDMDL
MODEL 7
REMARK VINA RESULT:      -5.6      1.983      5.121
REMARK  5 active torsions:
REMARK  status: ('A' for Active; 'I' for Inactive)
REMARK    1  A    between atoms: C_16  and  N_5 
REMARK    2  A    between atoms: S_12  and  C_6 
REMARK    3  A    between atoms: C_10  and  C_14 
REMARK       I    between atoms: N_11  and  C_10 
REMARK    4  A    between atoms: C_14  and  S_12 
REMARK    5  A    between atoms: C_18  and  C_16 
ROOT
ATOM      1  C   UNL d   1      52.011  33.559  53.319  0.00  0.00     0.081 A 
ATOM      2  C   UNL d   1      51.741  32.817  53.082  0.00  0.00     0.117 A 
ATOM      3  N   UNL d   1      52.225  32.164  53.133  0.00  0.00    -0.215 NA
ATOM      4  C   UNL d   1      52.773  33.642  53.609  0.00  0.00     0.268 A 
ATOM      5  N   UNL d   1      53.263  32.988  53.663  0.00  0.00    -0.253 N 
ATOM      6  C   UNL d   1      53.005  32.223  53.426  0.00  0.00     0.182 A 
ATOM      7  S   UNL d   1      50.936  32.914  52.810  0.00  0.00    -0.068 SA
ATOM      8  C   UNL d   1      51.389  34.091  53.195  0.00  0.00     0.013 A 
ATOM      9  C   UNL d   1      50.749  33.673  52.885  0.00  0.00     0.031 A 
ATOM     10  O   UNL d   1      53.078  34.373  53.857  0.00  0.00    -0.267 OA
ATOM     11  C   UNL d   1      51.331  34.909  53.328  0.00  0.00     0.001 A 
ATOM     12  C   UNL d   1      50.051  34.080  52.710  0.00  0.00     0.006 A 
ATOM     13  C   UNL d   1      50.629  35.287  53.146  0.00  0.00     0.000 A 
ATOM     14  C   UNL d   1      50.005  34.887  52.845  0.00  0.00     0.001 A 
ENDROOT
BRANCH   6  15
ATOM     15  S   UNL d   1      53.496  31.569  53.480  0.00  0.00    -0.044 SA
BRANCH  15  16
ATOM     16  C   UNL d   1      53.171  30.819  53.534  0.00  0.00     0.099 C 
BRANCH  16  17
ATOM     17  C   UNL d   1      53.675  30.163  53.588  0.00  0.00     0.272 C 
ATOM     18  N   UNL d   1      53.559  29.537  54.114  0.00  0.00    -0.267 N 
ATOM     19  C   UNL d   1      54.081  28.910  54.135  0.00  0.00     0.110 A 
ATOM     20  C   UNL d   1      52.910  29.541  54.625  0.00  0.00     0.110 A 
ATOM     21  C   UNL d   1      53.992  28.253  54.661  0.00  0.00     0.142 A 
ATOM     22  O   UNL d   1      53.340  28.267  55.167  0.00  0.00    -0.300 OA
ATOM     23  C   UNL d   1      52.782  28.924  55.154  0.00  0.00     0.142 A 
ATOM     24  O   UNL d   1      54.315  30.212  53.047  0.00  0.00    -0.266 OA
ENDBRANCH  16  17
ENDBRANCH  15  16
ENDBRANCH   6  15
BRANCH   5  25
ATOM     25  C   UNL d   1      54.052  33.067  53.963  0.00  0.00     0.085 C 
BRANCH  25  26
ATOM     26  C   UNL d   1      54.215  33.374  54.734  0.00  0.00     0.019 C 
ATOM     27  C   UNL d   1      54.982  33.471  55.014  0.00  0.00     0.002 C 
ENDBRANCH  25  26
ENDBRANCH   5  25
TORSDOF 5
ENDMDL
