MODEL 1
REMARK VINA RESULT:      54.7      0.000      0.000
REMARK  6 active torsions:
REMARK  status: ('A' for Active; 'I' for Inactive)
REMARK    1  A    between atoms: C_15  and  N_1 
REMARK    2  A    between atoms: S_12  and  C_3 
REMARK    3  A    between atoms: C_4  and  N_11 
REMARK    4  A    between atoms: C_14  and  C_8 
REMARK       I    between atoms: N_11  and  C_13 
REMARK    5  A    between atoms: C_17  and  S_12 
REMARK    6  A    between atoms: C_13  and  C_17 
ROOT
ATOM      1  N   UNL d   1     -56.332-101.886 -41.779  0.00  0.00    -0.018 NA
ATOM      2  C   UNL d   1     -55.985-101.706 -42.499  0.00  0.00     0.302 C 
ATOM      3  O   UNL d   1     -56.455-101.436 -43.129  0.00  0.00    -0.264 OA
ENDROOT
BRANCH   2   4
ATOM      4  C   UNL d   1     -55.172-101.793 -42.598  0.00  0.00     0.101 C 
BRANCH   4   5
ATOM      5  S   UNL d   1     -54.782-101.397 -43.217  0.00  0.00    -0.041 SA
BRANCH   5   6
ATOM      6  C   UNL d   1     -54.764-101.727 -43.972  0.00  0.00     0.219 A 
ATOM      7  N   UNL d   1     -54.792-101.230 -44.634  0.00  0.00    -0.186 N 
ATOM      8  N   UNL d   1     -54.766-101.707 -45.310  0.00  0.00    -0.038 NA
ATOM      9  N   UNL d   1     -54.723-102.488 -45.067  0.00  0.00    -0.022 NA
ATOM     10  N   UNL d   1     -54.722-102.498 -44.241  0.00  0.00    -0.101 NA
BRANCH   7  11
ATOM     11  C   UNL d   1     -54.838-100.412 -44.664  0.00  0.00     0.087 A 
ATOM     12  C   UNL d   1     -55.009-100.041 -45.382  0.00  0.00     0.019 A 
ATOM     13  C   UNL d   1     -55.055 -99.219 -45.416  0.00  0.00     0.002 A 
ATOM     14  C   UNL d   1     -54.935 -98.763 -44.750  0.00  0.00     0.000 A 
ATOM     15  C   UNL d   1     -54.762 -99.133 -44.021  0.00  0.00     0.002 A 
ATOM     16  C   UNL d   1     -54.714 -99.964 -43.981  0.00  0.00     0.019 A 
ENDBRANCH   7  11
ENDBRANCH   5   6
ENDBRANCH   4   5
ENDBRANCH   2   4
BRANCH   1  17
ATOM     17  C   UNL d   1     -55.861-102.157 -41.148  0.00  0.00     0.760 A 
ATOM     18  N   UNL d   1     -55.980-102.018 -40.352  0.00  0.00    -0.051 NA
ATOM     19  C   UNL d   1     -55.381-102.392 -39.942  0.00  0.00     0.147 A 
ATOM     20  S   UNL d   1     -54.899-102.757 -40.480  0.00  0.00     0.052 SA
ATOM     21  N   UNL d   1     -55.205-102.605 -41.226  0.00  0.00    -0.019 NA
BRANCH  19  22
ATOM     22  C   UNL d   1     -55.313-102.376 -39.115  0.00  0.00     0.026 A 
ATOM     23  C   UNL d   1     -54.779-101.856 -38.761  0.00  0.00     0.003 A 
ATOM     24  C   UNL d   1     -54.714-101.843 -37.941  0.00  0.00     0.011 A 
ATOM     25  C   UNL d   1     -55.180-102.348 -37.480  0.00  0.00     0.058 A 
ATOM     26  C   UNL d   1     -55.703-102.858 -37.832  0.00  0.00     0.011 A 
ATOM     27 CL   UNL d   1     -55.125-102.346 -36.663  0.00  0.00    -0.082 Cl
ATOM     28  C   UNL d   1     -55.773-102.876 -38.656  0.00  0.00     0.003 A 
ENDBRANCH  19  22
ENDBRANCH   1  17
TORSDOF 6
ENDMDL
MODEL 2
REMARK VINA RESULT:      56.1      1.704      2.125
REMARK  6 active torsions:
REMARK  status: ('A' for Active; 'I' for Inactive)
REMARK    1  A    between atoms: C_15  and  N_1 
REMARK    2  A    between atoms: S_12  and  C_3 
REMARK    3  A    between atoms: C_4  and  N_11 
REMARK    4  A    between atoms: C_14  and  C_8 
REMARK       I    between atoms: N_11  and  C_13 
REMARK    5  A    between atoms: C_17  and  S_12 
REMARK    6  A    between atoms: C_13  and  C_17 
ROOT
ATOM      1  N   UNL d   1     -56.058-102.606 -43.004  0.00  0.00    -0.018 NA
ATOM      2  C   UNL d   1     -56.054-101.934 -43.473  0.00  0.00     0.302 C 
ATOM      3  O   UNL d   1     -56.444-101.941 -44.208  0.00  0.00    -0.264 OA
ENDROOT
BRANCH   2   4
ATOM      4  C   UNL d   1     -55.666-101.254 -43.218  0.00  0.00     0.101 C 
BRANCH   4   5
ATOM      5  S   UNL d   1     -55.987-100.504 -43.378  0.00  0.00    -0.041 SA
BRANCH   5   6
ATOM      6  C   UNL d   1     -55.580 -99.973 -43.858  0.00  0.00     0.219 A 
ATOM      7  N   UNL d   1     -55.993 -99.351 -44.216  0.00  0.00    -0.186 N 
ATOM      8  N   UNL d   1     -55.451 -98.911 -44.662  0.00  0.00    -0.038 NA
ATOM      9  N   UNL d   1     -54.714 -99.259 -44.578  0.00  0.00    -0.022 NA
ATOM     10  N   UNL d   1     -54.796 -99.914 -44.083  0.00  0.00    -0.101 NA
BRANCH   7  11
ATOM     11  C   UNL d   1     -56.790 -99.163 -44.169  0.00  0.00     0.087 A 
ATOM     12  C   UNL d   1     -57.146 -99.088 -43.429  0.00  0.00     0.019 A 
ATOM     13  C   UNL d   1     -57.947 -98.900 -43.377  0.00  0.00     0.002 A 
ATOM     14  C   UNL d   1     -58.395 -98.785 -44.049  0.00  0.00     0.000 A 
ATOM     15  C   UNL d   1     -58.040 -98.859 -44.802  0.00  0.00     0.002 A 
ATOM     16  C   UNL d   1     -57.231 -99.050 -44.859  0.00  0.00     0.019 A 
ENDBRANCH   7  11
ENDBRANCH   5   6
ENDBRANCH   4   5
ENDBRANCH   2   4
BRANCH   1  17
ATOM     17  C   UNL d   1     -55.668-102.599 -42.268  0.00  0.00     0.760 A 
ATOM     18  N   UNL d   1     -56.009-102.677 -41.531  0.00  0.00    -0.051 NA
ATOM     19  C   UNL d   1     -55.413-102.638 -40.974  0.00  0.00     0.147 A 
ATOM     20  S   UNL d   1     -54.712-102.537 -41.366  0.00  0.00     0.052 SA
ATOM     21  N   UNL d   1     -54.881-102.514 -42.169  0.00  0.00    -0.019 NA
BRANCH  19  22
ATOM     22  C   UNL d   1     -55.544-102.696 -40.157  0.00  0.00     0.026 A 
ATOM     23  C   UNL d   1     -56.310-102.823 -39.876  0.00  0.00     0.003 A 
ATOM     24  C   UNL d   1     -56.436-102.879 -39.066  0.00  0.00     0.011 A 
ATOM     25  C   UNL d   1     -55.801-102.810 -38.540  0.00  0.00     0.058 A 
ATOM     26  C   UNL d   1     -55.050-102.685 -38.821  0.00  0.00     0.011 A 
ATOM     27 CL   UNL d   1     -55.912-102.865 -37.732  0.00  0.00    -0.082 Cl
ATOM     28  C   UNL d   1     -54.916-102.627 -39.635  0.00  0.00     0.003 A 
ENDBRANCH  19  22
ENDBRANCH   1  17
TORSDOF 6
ENDMDL
