MODEL 1
REMARK VINA RESULT:      -4.0      0.000      0.000
REMARK  5 active torsions:
REMARK  status: ('A' for Active; 'I' for Inactive)
REMARK    1  A    between atoms: C_6  and  N_1 
REMARK    2  A    between atoms: C_10  and  C_6 
REMARK    3  A    between atoms: O_18  and  C_12 
REMARK    4  A    between atoms: C_20  and  O_18 
REMARK    5  A    between atoms: C_21  and  C_20 
ROOT
ATOM      1  N   UNL d   1     -41.445-122.621 -53.191  0.00  0.00    -0.251 N 
ATOM      2  C   UNL d   1     -41.360-123.445 -53.088  0.00  0.00     0.378 A 
ATOM      3  C   UNL d   1     -41.692-122.487 -53.970  0.00  0.00     0.092 A 
ATOM      4  O   UNL d   1     -41.555-123.815 -53.802  0.00  0.00    -0.258 OA
ATOM      5  C   UNL d   1     -41.760-123.224 -54.347  0.00  0.00     0.121 A 
ATOM      6  O   UNL d   1     -41.123-123.817 -52.394  0.00  0.00    -0.237 OA
ATOM      7  C   UNL d   1     -41.861-121.793 -54.374  0.00  0.00     0.020 A 
ATOM      8  C   UNL d   1     -42.001-123.253 -55.138  0.00  0.00     0.026 A 
ATOM      9  C   UNL d   1     -42.100-121.832 -55.163  0.00  0.00     0.002 A 
ATOM     10  C   UNL d   1     -42.170-122.559 -55.543  0.00  0.00     0.002 A 
ATOM     11  C   UNL d   1     -42.270-121.130 -55.568  0.00  0.00     0.000 C 
ENDROOT
BRANCH   1  12
ATOM     12  C   UNL d   1     -41.317-122.015 -52.646  0.00  0.00     0.085 C 
BRANCH  12  13
ATOM     13  C   UNL d   1     -41.616-122.084 -51.879  0.00  0.00     0.018 A 
ATOM     14  C   UNL d   1     -41.123-122.273 -51.257  0.00  0.00     0.004 A 
ATOM     15  C   UNL d   1     -41.421-122.340 -50.498  0.00  0.00     0.025 A 
ATOM     16  C   UNL d   1     -42.225-122.218 -50.360  0.00  0.00     0.100 A 
ATOM     17  C   UNL d   1     -42.723-122.028 -50.988  0.00  0.00     0.025 A 
ATOM     18  C   UNL d   1     -42.420-121.960 -51.754  0.00  0.00     0.004 A 
BRANCH  16  19
ATOM     19  O   UNL d   1     -42.524-122.286 -49.599  0.00  0.00    -0.305 OA
BRANCH  19  20
ATOM     20  C   UNL d   1     -42.485-123.006 -49.209  0.00  0.00     0.123 C 
BRANCH  20  21
ATOM     21  C   UNL d   1     -42.608-123.043 -48.401  0.00  0.00     0.027 C 
ATOM     22  C   UNL d   1     -42.738-123.771 -48.034  0.00  0.00     0.002 C 
ENDBRANCH  20  21
ENDBRANCH  19  20
ENDBRANCH  16  19
ENDBRANCH  12  13
ENDBRANCH   1  12
TORSDOF 5
ENDMDL
MODEL 2
REMARK VINA RESULT:      -1.2      1.058      4.942
REMARK  5 active torsions:
REMARK  status: ('A' for Active; 'I' for Inactive)
REMARK    1  A    between atoms: C_6  and  N_1 
REMARK    2  A    between atoms: C_10  and  C_6 
REMARK    3  A    between atoms: O_18  and  C_12 
REMARK    4  A    between atoms: C_20  and  O_18 
REMARK    5  A    between atoms: C_21  and  C_20 
ROOT
ATOM      1  N   UNL d   1     -42.219-122.455 -50.038  0.00  0.00    -0.251 N 
ATOM      2  C   UNL d   1     -43.017-122.344 -50.260  0.00  0.00     0.378 A 
ATOM      3  C   UNL d   1     -42.210-122.877 -49.326  0.00  0.00     0.092 A 
ATOM      4  O   UNL d   1     -43.495-122.699 -49.685  0.00  0.00    -0.258 OA
ATOM      5  C   UNL d   1     -42.997-123.028 -49.108  0.00  0.00     0.121 A 
ATOM      6  O   UNL d   1     -43.274-121.951 -50.934  0.00  0.00    -0.237 OA
ATOM      7  C   UNL d   1     -41.589-123.139 -48.858  0.00  0.00     0.020 A 
ATOM      8  C   UNL d   1     -43.151-123.447 -48.411  0.00  0.00     0.026 A 
ATOM      9  C   UNL d   1     -41.752-123.556 -48.164  0.00  0.00     0.002 A 
ATOM     10  C   UNL d   1     -42.530-123.709 -47.942  0.00  0.00     0.002 A 
ATOM     11  C   UNL d   1     -41.123-123.818 -47.695  0.00  0.00     0.000 C 
ENDROOT
BRANCH   1  12
ATOM     12  C   UNL d   1     -41.535-122.205 -50.426  0.00  0.00     0.085 C 
BRANCH  12  13
ATOM     13  C   UNL d   1     -41.431-122.380 -51.226  0.00  0.00     0.018 A 
ATOM     14  C   UNL d   1     -41.289-123.146 -51.468  0.00  0.00     0.004 A 
ATOM     15  C   UNL d   1     -41.186-123.318 -52.261  0.00  0.00     0.025 A 
ATOM     16  C   UNL d   1     -41.226-122.713 -52.821  0.00  0.00     0.100 A 
ATOM     17  C   UNL d   1     -41.370-121.941 -52.577  0.00  0.00     0.025 A 
ATOM     18  C   UNL d   1     -41.474-121.769 -51.775  0.00  0.00     0.004 A 
BRANCH  16  19
ATOM     19  O   UNL d   1     -41.123-122.886 -53.617  0.00  0.00    -0.305 OA
BRANCH  19  20
ATOM     20  C   UNL d   1     -41.539-122.464 -54.182  0.00  0.00     0.123 C 
BRANCH  20  21
ATOM     21  C   UNL d   1     -41.496-122.680 -54.970  0.00  0.00     0.027 C 
ATOM     22  C   UNL d   1     -41.983-122.315 -55.528  0.00  0.00     0.002 C 
ENDBRANCH  20  21
ENDBRANCH  19  20
ENDBRANCH  16  19
ENDBRANCH  12  13
ENDBRANCH   1  12
TORSDOF 5
ENDMDL
