MODEL 1
REMARK VINA RESULT:      60.5      0.000      0.000
REMARK  6 active torsions:
REMARK  status: ('A' for Active; 'I' for Inactive)
REMARK    1  A    between atoms: C_4  and  C_1 
REMARK       I    between atoms: N_6  and  C_1 
REMARK    2  A    between atoms: C_7  and  C_4 
REMARK    3  A    between atoms: O_20  and  C_5 
REMARK    4  A    between atoms: C_8  and  N_6 
REMARK    5  A    between atoms: C_13  and  C_7 
REMARK    6  A    between atoms: O_21  and  C_10 
ROOT
ATOM      1  C   UNL d   1      57.706  49.546  51.722  0.00  0.00     0.076 C 
ENDROOT
BRANCH   1   2
ATOM      2  C   UNL d   1      57.077  49.476  52.218  0.00  0.00     0.328 C 
ATOM      3  N   UNL d   1      57.177  49.497  53.038  0.00  0.00    -0.365 NA
ATOM      4  O   UNL d   1      56.315  49.381  51.910  0.00  0.00    -0.251 OA
BRANCH   3   5
ATOM      5  C   UNL d   1      57.290  49.520  53.869  0.00  0.00     0.136 A 
ATOM      6  C   UNL d   1      56.648  49.449  54.377  0.00  0.00     0.044 A 
ATOM      7  C   UNL d   1      56.755  49.472  55.218  0.00  0.00     0.071 A 
ATOM      8 CL   UNL d   1      56.122  49.402  55.718  0.00  0.00    -0.081 Cl
ATOM      9  C   UNL d   1      57.528  49.567  55.506  0.00  0.00     0.069 A 
ATOM     10  C   UNL d   1      58.169  49.638  54.999  0.00  0.00     0.015 A 
ATOM     11 CL   UNL d   1      57.619  49.588  56.328  0.00  0.00    -0.082 Cl
ATOM     12  C   UNL d   1      58.067  49.617  54.181  0.00  0.00     0.033 A 
ENDBRANCH   3   5
ENDBRANCH   1   2
BRANCH   1  13
ATOM     13  C   UNL d   1      58.463  49.706  52.023  0.00  0.00     0.006 C 
BRANCH  13  14
ATOM     14  C   UNL d   1      59.123  49.593  51.542  0.00  0.00     0.002 A 
ATOM     15  C   UNL d   1      59.047  49.385  50.750  0.00  0.00     0.026 A 
ATOM     16  C   UNL d   1      59.715  49.275  50.278  0.00  0.00     0.116 A 
ATOM     17  C   UNL d   1      60.466  49.370  50.594  0.00  0.00     0.116 A 
ATOM     18  C   UNL d   1      60.558  49.582  51.401  0.00  0.00     0.026 A 
ATOM     19  C   UNL d   1      59.890  49.693  51.872  0.00  0.00     0.002 A 
BRANCH  16  20
ATOM     20  O   UNL d   1      59.627  49.064  49.476  0.00  0.00    -0.326 OA
ATOM     21  C   UNL d   1      60.251  49.174  48.954  0.00  0.00     0.181 C 
ENDBRANCH  16  20
BRANCH  17  22
ATOM     22  O   UNL d   1      61.131  49.260  50.126  0.00  0.00    -0.326 OA
ATOM     23  C   UNL d   1      61.873  49.523  50.404  0.00  0.00     0.181 C 
ENDBRANCH  17  22
ENDBRANCH  13  14
ENDBRANCH   1  13
TORSDOF 6
ENDMDL
MODEL 2
REMARK VINA RESULT:      61.3      2.501      4.223
REMARK  6 active torsions:
REMARK  status: ('A' for Active; 'I' for Inactive)
REMARK    1  A    between atoms: C_4  and  C_1 
REMARK       I    between atoms: N_6  and  C_1 
REMARK    2  A    between atoms: C_7  and  C_4 
REMARK    3  A    between atoms: O_20  and  C_5 
REMARK    4  A    between atoms: C_8  and  N_6 
REMARK    5  A    between atoms: C_13  and  C_7 
REMARK    6  A    between atoms: O_21  and  C_10 
ROOT
ATOM      1  C   UNL d   1      60.332  49.064  49.411  0.00  0.00     0.076 C 
ENDROOT
BRANCH   1   2
ATOM      2  C   UNL d   1      61.057  49.272  49.689  0.00  0.00     0.328 C 
ATOM      3  N   UNL d   1      61.206  49.319  50.500  0.00  0.00    -0.365 NA
ATOM      4  O   UNL d   1      61.671  49.443  49.160  0.00  0.00    -0.251 OA
BRANCH   3   5
ATOM      5  C   UNL d   1      61.344  49.364  51.327  0.00  0.00     0.136 A 
ATOM      6  C   UNL d   1      60.735  49.215  51.857  0.00  0.00     0.044 A 
ATOM      7  C   UNL d   1      60.868  49.259  52.695  0.00  0.00     0.071 A 
ATOM      8 CL   UNL d   1      60.268  49.113  53.217  0.00  0.00    -0.081 Cl
ATOM      9  C   UNL d   1      61.632  49.455  52.954  0.00  0.00     0.069 A 
ATOM     10  C   UNL d   1      62.241  49.604  52.423  0.00  0.00     0.015 A 
ATOM     11 CL   UNL d   1      61.748  49.494  53.772  0.00  0.00    -0.082 Cl
ATOM     12  C   UNL d   1      62.113  49.562  51.610  0.00  0.00     0.033 A 
ENDBRANCH   3   5
ENDBRANCH   1   2
BRANCH   1  13
ATOM     13  C   UNL d   1      59.778  49.648  49.207  0.00  0.00     0.006 C 
BRANCH  13  14
ATOM     14  C   UNL d   1      59.000  49.579  49.473  0.00  0.00     0.002 A 
ATOM     15  C   UNL d   1      58.809  49.662  50.269  0.00  0.00     0.026 A 
ATOM     16  C   UNL d   1      58.027  49.590  50.523  0.00  0.00     0.116 A 
ATOM     17  C   UNL d   1      57.429  49.435  49.984  0.00  0.00     0.116 A 
ATOM     18  C   UNL d   1      57.610  49.348  49.169  0.00  0.00     0.026 A 
ATOM     19  C   UNL d   1      58.392  49.420  48.916  0.00  0.00     0.002 A 
BRANCH  16  20
ATOM     20  O   UNL d   1      57.845  49.676  51.333  0.00  0.00    -0.326 OA
ATOM     21  C   UNL d   1      57.073  49.564  51.591  0.00  0.00     0.181 C 
ENDBRANCH  16  20
BRANCH  17  22
ATOM     22  O   UNL d   1      56.651  49.364  50.236  0.00  0.00    -0.326 OA
ATOM     23  C   UNL d   1      56.060  49.164  49.682  0.00  0.00     0.181 C 
ENDBRANCH  17  22
ENDBRANCH  13  14
ENDBRANCH   1  13
TORSDOF 6
ENDMDL
