MODEL 1
REMARK VINA RESULT:      82.7      0.000      0.000
REMARK  5 active torsions:
REMARK  status: ('A' for Active; 'I' for Inactive)
REMARK       I    between atoms: N_3  and  C_1 
REMARK    1  A    between atoms: C_4  and  C_1 
REMARK    2  A    between atoms: N_2  and  C_4 
REMARK       I    between atoms: C_5  and  N_2 
REMARK    3  A    between atoms: C_18  and  C_4 
REMARK    4  A    between atoms: C_9  and  C_5 
REMARK    5  A    between atoms: C_7  and  N_6 
ROOT
ATOM      1  C   UNL d   1      61.148  49.183  51.467  0.00  0.00     0.283 C 
ATOM      2  N   UNL d   1      61.223  48.474  51.053  0.00  0.00    -0.268 N 
ATOM      3  N   UNL d   1      61.375  47.061  50.229  0.00  0.00    -0.286 N 
ATOM      4  O   UNL d   1      61.811  49.651  51.618  0.00  0.00    -0.265 OA
ATOM      5  C   UNL d   1      60.559  48.012  50.905  0.00  0.00     0.102 A 
ATOM      6  C   UNL d   1      61.968  48.235  50.790  0.00  0.00     0.102 A 
ATOM      7  C   UNL d   1      62.042  47.522  50.375  0.00  0.00     0.101 A 
ATOM      8  C   UNL d   1      60.641  47.305  50.492  0.00  0.00     0.101 A 
ENDROOT
BRANCH   1   9
ATOM      9  C   UNL d   1      60.403  49.423  51.730  0.00  0.00     0.141 C 
BRANCH   9  10
ATOM     10  N   UNL d   1      59.785  49.526  51.185  0.00  0.00    -0.203 NA
ATOM     11  C   UNL d   1      59.023  49.286  51.381  0.00  0.00     0.279 C 
ATOM     12  O   UNL d   1      58.872  48.945  52.111  0.00  0.00    -0.265 OA
BRANCH  11  13
ATOM     13  C   UNL d   1      58.410  49.390  50.838  0.00  0.00     0.058 A 
ATOM     14  C   UNL d   1      57.639  49.498  51.099  0.00  0.00     0.005 A 
ATOM     15  C   UNL d   1      57.027  49.602  50.566  0.00  0.00     0.000 A 
ATOM     16  C   UNL d   1      57.186  49.598  49.756  0.00  0.00     0.000 A 
ATOM     17  C   UNL d   1      57.958  49.490  49.478  0.00  0.00     0.000 A 
ATOM     18  C   UNL d   1      56.574  49.702  49.205  0.00  0.00     0.000 C 
ATOM     19  C   UNL d   1      58.569  49.386  50.029  0.00  0.00     0.005 A 
ENDBRANCH  11  13
ENDBRANCH   9  10
BRANCH   9  20
ATOM     20  C   UNL d   1      60.265  49.561  52.526  0.00  0.00     0.022 C 
ATOM     21  C   UNL d   1      60.905  49.551  53.059  0.00  0.00     0.002 C 
ATOM     22  C   UNL d   1      59.503  49.708  52.803  0.00  0.00     0.002 C 
ENDBRANCH   9  20
ENDBRANCH   1   9
BRANCH   3  23
ATOM     23  C   UNL d   1      61.453  46.350  49.813  0.00  0.00     0.148 A 
ATOM     24  N   UNL d   1      62.128  46.210  49.361  0.00  0.00    -0.227 NA
ATOM     25  C   UNL d   1      62.202  45.500  48.948  0.00  0.00     0.101 A 
ATOM     26  C   UNL d   1      61.610  44.932  48.984  0.00  0.00     0.021 A 
ATOM     27  C   UNL d   1      60.929  45.079  49.443  0.00  0.00     0.005 A 
ATOM     28  C   UNL d   1      60.854  45.786  49.856  0.00  0.00     0.037 A 
ENDBRANCH   3  23
TORSDOF 5
ENDMDL
MODEL 2
REMARK VINA RESULT:      83.2      1.469      1.886
REMARK  5 active torsions:
REMARK  status: ('A' for Active; 'I' for Inactive)
REMARK       I    between atoms: N_3  and  C_1 
REMARK    1  A    between atoms: C_4  and  C_1 
REMARK    2  A    between atoms: N_2  and  C_4 
REMARK       I    between atoms: C_5  and  N_2 
REMARK    3  A    between atoms: C_18  and  C_4 
REMARK    4  A    between atoms: C_9  and  C_5 
REMARK    5  A    between atoms: C_7  and  N_6 
ROOT
ATOM      1  C   UNL d   1      60.859  48.103  50.329  0.00  0.00     0.283 C 
ATOM      2  N   UNL d   1      60.948  47.316  50.559  0.00  0.00    -0.268 N 
ATOM      3  N   UNL d   1      61.126  45.748  51.015  0.00  0.00    -0.286 N 
ATOM      4  O   UNL d   1      61.120  48.354  49.588  0.00  0.00    -0.265 OA
ATOM      5  C   UNL d   1      60.685  47.071  51.300  0.00  0.00     0.102 A 
ATOM      6  C   UNL d   1      61.301  46.779  50.041  0.00  0.00     0.102 A 
ATOM      7  C   UNL d   1      61.390  45.989  50.273  0.00  0.00     0.101 A 
ATOM      8  C   UNL d   1      60.777  46.284  51.523  0.00  0.00     0.101 A 
ENDROOT
BRANCH   1   9
ATOM      9  C   UNL d   1      60.505  48.639  50.848  0.00  0.00     0.141 C 
BRANCH   9  10
ATOM     10  N   UNL d   1      59.681  48.741  50.842  0.00  0.00    -0.203 NA
ATOM     11  C   UNL d   1      59.339  49.274  50.319  0.00  0.00     0.279 C 
ATOM     12  O   UNL d   1      59.807  49.707  49.804  0.00  0.00    -0.265 OA
BRANCH  11  13
ATOM     13  C   UNL d   1      58.519  49.373  50.315  0.00  0.00     0.058 A 
ATOM     14  C   UNL d   1      58.120  49.495  49.609  0.00  0.00     0.005 A 
ATOM     15  C   UNL d   1      57.307  49.594  49.598  0.00  0.00     0.000 A 
ATOM     16  C   UNL d   1      56.884  49.571  50.306  0.00  0.00     0.000 A 
ATOM     17  C   UNL d   1      57.273  49.449  51.026  0.00  0.00     0.000 A 
ATOM     18  C   UNL d   1      56.060  49.670  50.309  0.00  0.00     0.000 C 
ATOM     19  C   UNL d   1      58.096  49.350  51.023  0.00  0.00     0.005 A 
ENDBRANCH  11  13
ENDBRANCH   9  10
BRANCH   9  20
ATOM     20  C   UNL d   1      60.960  49.076  51.372  0.00  0.00     0.022 C 
ATOM     21  C   UNL d   1      60.773  49.064  52.183  0.00  0.00     0.002 C 
ATOM     22  C   UNL d   1      61.598  49.524  51.105  0.00  0.00     0.002 C 
ENDBRANCH   9  20
ENDBRANCH   1   9
BRANCH   3  23
ATOM     23  C   UNL d   1      61.217  44.958  51.243  0.00  0.00     0.148 A 
ATOM     24  N   UNL d   1      60.844  44.681  51.926  0.00  0.00    -0.227 NA
ATOM     25  C   UNL d   1      60.937  43.894  52.150  0.00  0.00     0.101 A 
ATOM     26  C   UNL d   1      61.396  43.382  51.700  0.00  0.00     0.021 A 
ATOM     27  C   UNL d   1      61.770  43.667  51.011  0.00  0.00     0.005 A 
ATOM     28  C   UNL d   1      61.679  44.452  50.786  0.00  0.00     0.037 A 
ENDBRANCH   3  23
TORSDOF 5
ENDMDL
