MODEL 1
REMARK VINA RESULT:      -7.4      0.000      0.000
REMARK  5 active torsions:
REMARK  status: ('A' for Active; 'I' for Inactive)
REMARK    1  A    between atoms: O_8  and  C_1 
REMARK    2  A    between atoms: C_12  and  C_5 
REMARK    3  A    between atoms: C_10  and  O_8 
REMARK    4  A    between atoms: N_16  and  C_12 
REMARK    5  A    between atoms: O_19  and  C_15 
ROOT
ATOM      1  C   UNL d   1     -48.268  13.621  23.191  0.00  0.00     0.161 A 
ATOM      2  C   UNL d   1     -46.754  12.943  23.093  0.00  0.00     0.108 A 
ATOM      3  C   UNL d   1     -47.399  12.489  23.373  0.00  0.00     0.064 A 
ATOM      4  C   UNL d   1     -48.148  12.824  23.422  0.00  0.00     0.222 A 
ATOM      5  C   UNL d   1     -45.997  12.605  23.043  0.00  0.00     0.079 A 
ATOM      6  O   UNL d   1     -46.862  13.732  22.862  0.00  0.00    -0.305 OA
ATOM      7  C   UNL d   1     -47.629  14.070  22.914  0.00  0.00     0.126 A 
ATOM      8  C   UNL d   1     -47.270  11.699  23.600  0.00  0.00     0.009 A 
ATOM      9  C   UNL d   1     -45.885  11.818  23.273  0.00  0.00     0.199 A 
ATOM     10  O   UNL d   1     -48.786  12.380  23.698  0.00  0.00    -0.284 OA
ATOM     11  C   UNL d   1     -46.518  11.368  23.549  0.00  0.00     0.042 A 
ATOM     12  O   UNL d   1     -45.127  11.490  23.219  0.00  0.00    -0.286 OA
ATOM     13  C   UNL d   1     -47.746  14.853  22.687  0.00  0.00     0.029 C 
ENDROOT
BRANCH   1  14
ATOM     14  O   UNL d   1     -49.018  13.953  23.241  0.00  0.00    -0.300 OA
BRANCH  14  15
ATOM     15  C   UNL d   1     -49.540  13.887  22.607  0.00  0.00     0.122 A 
ATOM     16  C   UNL d   1     -50.263  14.279  22.628  0.00  0.00     0.117 A 
ATOM     17  C   UNL d   1     -50.784  14.214  21.994  0.00  0.00     0.026 A 
ATOM     18  C   UNL d   1     -50.582  13.755  21.339  0.00  0.00     0.002 A 
ATOM     19  C   UNL d   1     -49.847  13.359  21.323  0.00  0.00     0.002 A 
ATOM     20  C   UNL d   1     -49.333  13.428  21.954  0.00  0.00     0.027 A 
BRANCH  16  21
ATOM     21  O   UNL d   1     -50.465  14.738  23.284  0.00  0.00    -0.326 OA
ATOM     22  C   UNL d   1     -51.064  15.298  23.222  0.00  0.00     0.181 C 
ENDBRANCH  16  21
ENDBRANCH  14  15
ENDBRANCH   1  14
BRANCH   5  23
ATOM     23  C   UNL d   1     -45.363  13.055  22.766  0.00  0.00     0.086 C 
BRANCH  23  24
ATOM     24  N   UNL d   1     -44.956  12.813  22.099  0.00  0.00    -0.300 N 
ATOM     25  C   UNL d   1     -45.304  12.889  21.354  0.00  0.00     0.100 C 
ATOM     26  C   UNL d   1     -44.197  12.491  22.164  0.00  0.00     0.100 C 
ENDBRANCH  23  24
ENDBRANCH   5  23
TORSDOF 5
ENDMDL
MODEL 2
REMARK VINA RESULT:      -6.8      1.499      4.507
REMARK  5 active torsions:
REMARK  status: ('A' for Active; 'I' for Inactive)
REMARK    1  A    between atoms: O_8  and  C_1 
REMARK    2  A    between atoms: C_12  and  C_5 
REMARK    3  A    between atoms: C_10  and  O_8 
REMARK    4  A    between atoms: N_16  and  C_12 
REMARK    5  A    between atoms: O_19  and  C_15 
ROOT
ATOM      1  C   UNL d   1     -47.289  13.387  22.334  0.00  0.00     0.161 A 
ATOM      2  C   UNL d   1     -48.876  13.770  22.644  0.00  0.00     0.108 A 
ATOM      3  C   UNL d   1     -48.685  13.251  22.016  0.00  0.00     0.064 A 
ATOM      4  C   UNL d   1     -47.901  13.061  21.861  0.00  0.00     0.222 A 
ATOM      5  C   UNL d   1     -49.669  13.962  22.800  0.00  0.00     0.079 A 
ATOM      6  O   UNL d   1     -48.278  14.097  23.117  0.00  0.00    -0.305 OA
ATOM      7  C   UNL d   1     -47.478  13.901  22.956  0.00  0.00     0.126 A 
ATOM      8  C   UNL d   1     -49.299  12.932  21.552  0.00  0.00     0.009 A 
ATOM      9  C   UNL d   1     -50.268  13.637  22.330  0.00  0.00     0.199 A 
ATOM     10  O   UNL d   1     -47.709  12.550  21.243  0.00  0.00    -0.284 OA
ATOM     11  C   UNL d   1     -50.084  13.125  21.710  0.00  0.00     0.042 A 
ATOM     12  O   UNL d   1     -51.055  13.834  22.494  0.00  0.00    -0.286 OA
ATOM     13  C   UNL d   1     -46.878  14.221  23.420  0.00  0.00     0.029 C 
ENDROOT
BRANCH   1  14
ATOM     14  O   UNL d   1     -46.505  13.195  22.177  0.00  0.00    -0.300 OA
BRANCH  14  15
ATOM     15  C   UNL d   1     -46.144  12.577  22.584  0.00  0.00     0.122 A 
ATOM     16  C   UNL d   1     -45.340  12.436  22.487  0.00  0.00     0.117 A 
ATOM     17  C   UNL d   1     -44.979  11.818  22.894  0.00  0.00     0.026 A 
ATOM     18  C   UNL d   1     -45.423  11.341  23.399  0.00  0.00     0.002 A 
ATOM     19  C   UNL d   1     -46.239  11.488  23.494  0.00  0.00     0.002 A 
ATOM     20  C   UNL d   1     -46.593  12.103  23.088  0.00  0.00     0.027 A 
BRANCH  16  21
ATOM     21  O   UNL d   1     -44.895  12.913  21.981  0.00  0.00    -0.326 OA
ATOM     22  C   UNL d   1     -44.138  12.680  21.759  0.00  0.00     0.181 C 
ENDBRANCH  16  21
ENDBRANCH  14  15
ENDBRANCH   1  14
BRANCH   5  23
ATOM     23  C   UNL d   1     -49.853  14.473  23.420  0.00  0.00     0.086 C 
BRANCH  23  24
ATOM     24  N   UNL d   1     -50.242  15.177  23.262  0.00  0.00    -0.300 N 
ATOM     25  C   UNL d   1     -51.063  15.215  23.323  0.00  0.00     0.100 C 
ATOM     26  C   UNL d   1     -49.816  15.851  23.041  0.00  0.00     0.100 C 
ENDBRANCH  23  24
ENDBRANCH   5  23
TORSDOF 5
ENDMDL
MODEL 3
REMARK VINA RESULT:      -6.7      0.897      1.592
REMARK  5 active torsions:
REMARK  status: ('A' for Active; 'I' for Inactive)
REMARK    1  A    between atoms: O_8  and  C_1 
REMARK    2  A    between atoms: C_12  and  C_5 
REMARK    3  A    between atoms: C_10  and  O_8 
REMARK    4  A    between atoms: N_16  and  C_12 
REMARK    5  A    between atoms: O_19  and  C_15 
ROOT
ATOM      1  C   UNL d   1     -48.518  13.434  23.183  0.00  0.00     0.161 A 
ATOM      2  C   UNL d   1     -47.006  12.863  22.797  0.00  0.00     0.108 A 
ATOM      3  C   UNL d   1     -47.159  13.686  22.785  0.00  0.00     0.064 A 
ATOM      4  C   UNL d   1     -47.907  13.969  22.976  0.00  0.00     0.222 A 
ATOM      5  C   UNL d   1     -46.250  12.578  22.604  0.00  0.00     0.079 A 
ATOM      6  O   UNL d   1     -47.604  12.326  23.000  0.00  0.00    -0.305 OA
ATOM      7  C   UNL d   1     -48.366  12.619  23.194  0.00  0.00     0.126 A 
ATOM      8  C   UNL d   1     -46.546  14.210  22.579  0.00  0.00     0.009 A 
ATOM      9  C   UNL d   1     -45.651  13.111  22.401  0.00  0.00     0.199 A 
ATOM     10  O   UNL d   1     -48.062  14.780  22.966  0.00  0.00    -0.284 OA
ATOM     11  C   UNL d   1     -45.798  13.923  22.389  0.00  0.00     0.042 A 
ATOM     12  O   UNL d   1     -44.901  12.816  22.211  0.00  0.00    -0.286 OA
ATOM     13  C   UNL d   1     -48.966  12.093  23.397  0.00  0.00     0.029 C 
ENDROOT
BRANCH   1  14
ATOM     14  O   UNL d   1     -49.265  13.720  23.373  0.00  0.00    -0.300 OA
BRANCH  14  15
ATOM     15  C   UNL d   1     -49.819  13.850  22.778  0.00  0.00     0.122 A 
ATOM     16  C   UNL d   1     -50.427  14.391  22.895  0.00  0.00     0.117 A 
ATOM     17  C   UNL d   1     -50.981  14.522  22.300  0.00  0.00     0.026 A 
ATOM     18  C   UNL d   1     -50.926  14.109  21.587  0.00  0.00     0.002 A 
ATOM     19  C   UNL d   1     -50.307  13.561  21.474  0.00  0.00     0.002 A 
ATOM     20  C   UNL d   1     -49.760  13.435  22.067  0.00  0.00     0.027 A 
BRANCH  16  21
ATOM     21  O   UNL d   1     -50.482  14.804  23.607  0.00  0.00    -0.326 OA
ATOM     22  C   UNL d   1     -51.052  15.389  23.698  0.00  0.00     0.181 C 
ENDBRANCH  16  21
ENDBRANCH  14  15
ENDBRANCH   1  14
BRANCH   5  23
ATOM     23  C   UNL d   1     -46.103  11.766  22.617  0.00  0.00     0.086 C 
BRANCH  23  24
ATOM     24  N   UNL d   1     -45.549  11.464  23.138  0.00  0.00    -0.300 N 
ATOM     25  C   UNL d   1     -45.771  10.891  23.689  0.00  0.00     0.100 C 
ATOM     26  C   UNL d   1     -44.765  11.728  23.118  0.00  0.00     0.100 C 
ENDBRANCH  23  24
ENDBRANCH   5  23
TORSDOF 5
ENDMDL
MODEL 4
REMARK VINA RESULT:      -5.8      8.479      9.840
REMARK  5 active torsions:
REMARK  status: ('A' for Active; 'I' for Inactive)
REMARK    1  A    between atoms: O_8  and  C_1 
REMARK    2  A    between atoms: C_12  and  C_5 
REMARK    3  A    between atoms: C_10  and  O_8 
REMARK    4  A    between atoms: N_16  and  C_12 
REMARK    5  A    between atoms: O_19  and  C_15 
ROOT
ATOM      1  C   UNL d   1     -39.244  15.208  20.459  0.00  0.00     0.161 A 
ATOM      2  C   UNL d   1     -39.396  15.073  18.810  0.00  0.00     0.108 A 
ATOM      3  C   UNL d   1     -40.018  14.820  19.310  0.00  0.00     0.064 A 
ATOM      4  C   UNL d   1     -39.943  14.887  20.126  0.00  0.00     0.222 A 
ATOM      5  C   UNL d   1     -39.472  15.006  17.985  0.00  0.00     0.079 A 
ATOM      6  O   UNL d   1     -38.701  15.392  19.130  0.00  0.00    -0.305 OA
ATOM      7  C   UNL d   1     -38.628  15.458  19.963  0.00  0.00     0.126 A 
ATOM      8  C   UNL d   1     -40.708  14.503  18.971  0.00  0.00     0.009 A 
ATOM      9  C   UNL d   1     -40.165  14.689  17.663  0.00  0.00     0.199 A 
ATOM     10  O   UNL d   1     -40.553  14.638  20.623  0.00  0.00    -0.284 OA
ATOM     11  C   UNL d   1     -40.779  14.438  18.153  0.00  0.00     0.042 A 
ATOM     12  O   UNL d   1     -40.230  14.626  16.840  0.00  0.00    -0.286 OA
ATOM     13  C   UNL d   1     -37.942  15.774  20.290  0.00  0.00     0.029 C 
ENDROOT
BRANCH   1  14
ATOM     14  O   UNL d   1     -39.172  15.273  21.276  0.00  0.00    -0.300 OA
BRANCH  14  15
ATOM     15  C   UNL d   1     -38.883  14.638  21.714  0.00  0.00     0.122 A 
ATOM     16  C   UNL d   1     -38.864  14.682  22.536  0.00  0.00     0.117 A 
ATOM     17  C   UNL d   1     -38.575  14.048  22.974  0.00  0.00     0.026 A 
ATOM     18  C   UNL d   1     -38.307  13.369  22.590  0.00  0.00     0.002 A 
ATOM     19  C   UNL d   1     -38.329  13.329  21.757  0.00  0.00     0.002 A 
ATOM     20  C   UNL d   1     -38.616  13.961  21.326  0.00  0.00     0.027 A 
BRANCH  16  21
ATOM     21  O   UNL d   1     -39.133  15.361  22.919  0.00  0.00    -0.326 OA
ATOM     22  C   UNL d   1     -38.892  15.518  23.690  0.00  0.00     0.181 C 
ENDBRANCH  16  21
ENDBRANCH  14  15
ENDBRANCH   1  14
BRANCH   5  23
ATOM     23  C   UNL d   1     -38.858  15.257  17.495  0.00  0.00     0.086 C 
BRANCH  23  24
ATOM     24  N   UNL d   1     -38.540  14.737  16.948  0.00  0.00    -0.300 N 
ATOM     25  C   UNL d   1     -38.090  14.095  17.203  0.00  0.00     0.100 C 
ATOM     26  C   UNL d   1     -38.667  14.852  16.138  0.00  0.00     0.100 C 
ENDBRANCH  23  24
ENDBRANCH   5  23
TORSDOF 5
ENDMDL
MODEL 5
REMARK VINA RESULT:      -5.3      7.520     10.495
REMARK  5 active torsions:
REMARK  status: ('A' for Active; 'I' for Inactive)
REMARK    1  A    between atoms: O_8  and  C_1 
REMARK    2  A    between atoms: C_12  and  C_5 
REMARK    3  A    between atoms: C_10  and  O_8 
REMARK    4  A    between atoms: N_16  and  C_12 
REMARK    5  A    between atoms: O_19  and  C_15 
ROOT
ATOM      1  C   UNL d   1     -39.382  15.501  17.594  0.00  0.00     0.161 A 
ATOM      2  C   UNL d   1     -39.919  15.561  19.165  0.00  0.00     0.108 A 
ATOM      3  C   UNL d   1     -39.115  15.713  18.991  0.00  0.00     0.064 A 
ATOM      4  C   UNL d   1     -38.848  15.683  18.214  0.00  0.00     0.222 A 
ATOM      5  C   UNL d   1     -40.188  15.591  19.950  0.00  0.00     0.079 A 
ATOM      6  O   UNL d   1     -40.455  15.379  18.558  0.00  0.00    -0.305 OA
ATOM      7  C   UNL d   1     -40.179  15.350  17.766  0.00  0.00     0.126 A 
ATOM      8  C   UNL d   1     -38.592  15.893  19.613  0.00  0.00     0.009 A 
ATOM      9  C   UNL d   1     -39.657  15.771  20.558  0.00  0.00     0.199 A 
ATOM     10  O   UNL d   1     -38.056  15.833  18.039  0.00  0.00    -0.284 OA
ATOM     11  C   UNL d   1     -38.863  15.922  20.390  0.00  0.00     0.042 A 
ATOM     12  O   UNL d   1     -39.935  15.799  21.337  0.00  0.00    -0.286 OA
ATOM     13  C   UNL d   1     -40.703  15.171  17.157  0.00  0.00     0.029 C 
ENDROOT
BRANCH   1  14
ATOM     14  O   UNL d   1     -39.112  15.472  16.817  0.00  0.00    -0.300 OA
BRANCH  14  15
ATOM     15  C   UNL d   1     -38.731  14.797  16.540  0.00  0.00     0.122 A 
ATOM     16  C   UNL d   1     -38.336  14.816  15.819  0.00  0.00     0.117 A 
ATOM     17  C   UNL d   1     -37.955  14.141  15.541  0.00  0.00     0.026 A 
ATOM     18  C   UNL d   1     -37.970  13.446  15.985  0.00  0.00     0.002 A 
ATOM     19  C   UNL d   1     -38.373  13.432  16.716  0.00  0.00     0.002 A 
ATOM     20  C   UNL d   1     -38.749  14.104  16.987  0.00  0.00     0.027 A 
BRANCH  16  21
ATOM     21  O   UNL d   1     -38.320  15.511  15.374  0.00  0.00    -0.326 OA
ATOM     22  C   UNL d   1     -37.940  15.522  14.646  0.00  0.00     0.181 C 
ENDBRANCH  16  21
ENDBRANCH  14  15
ENDBRANCH   1  14
BRANCH   5  23
ATOM     23  C   UNL d   1     -40.982  15.440  20.118  0.00  0.00     0.086 C 
BRANCH  23  24
ATOM     24  N   UNL d   1     -41.184  15.070  20.820  0.00  0.00    -0.300 N 
ATOM     25  C   UNL d   1     -41.556  15.498  21.419  0.00  0.00     0.100 C 
ATOM     26  C   UNL d   1     -41.017  14.268  20.934  0.00  0.00     0.100 C 
ENDBRANCH  23  24
ENDBRANCH   5  23
TORSDOF 5
ENDMDL
MODEL 6
REMARK VINA RESULT:      -5.3      8.363     10.502
REMARK  5 active torsions:
REMARK  status: ('A' for Active; 'I' for Inactive)
REMARK    1  A    between atoms: O_8  and  C_1 
REMARK    2  A    between atoms: C_12  and  C_5 
REMARK    3  A    between atoms: C_10  and  O_8 
REMARK    4  A    between atoms: N_16  and  C_12 
REMARK    5  A    between atoms: O_19  and  C_15 
ROOT
ATOM      1  C   UNL d   1     -38.269  14.416  19.487  0.00  0.00     0.161 A 
ATOM      2  C   UNL d   1     -38.128  14.610  17.843  0.00  0.00     0.108 A 
ATOM      3  C   UNL d   1     -38.248  13.847  18.166  0.00  0.00     0.064 A 
ATOM      4  C   UNL d   1     -38.318  13.750  18.979  0.00  0.00     0.222 A 
ATOM      5  C   UNL d   1     -38.058  14.707  17.021  0.00  0.00     0.079 A 
ATOM      6  O   UNL d   1     -38.079  15.274  18.337  0.00  0.00    -0.305 OA
ATOM      7  C   UNL d   1     -38.150  15.171  19.166  0.00  0.00     0.126 A 
ATOM      8  C   UNL d   1     -38.295  13.192  17.654  0.00  0.00     0.009 A 
ATOM      9  C   UNL d   1     -38.107  14.046  16.525  0.00  0.00     0.199 A 
ATOM     10  O   UNL d   1     -38.436  13.000  19.302  0.00  0.00    -0.284 OA
ATOM     11  C   UNL d   1     -38.225  13.293  16.840  0.00  0.00     0.042 A 
ATOM     12  O   UNL d   1     -38.035  14.154  15.707  0.00  0.00    -0.286 OA
ATOM     13  C   UNL d   1     -38.103  15.824  19.665  0.00  0.00     0.029 C 
ENDROOT
BRANCH   1  14
ATOM     14  O   UNL d   1     -38.339  14.316  20.300  0.00  0.00    -0.300 OA
BRANCH  14  15
ATOM     15  C   UNL d   1     -39.082  14.345  20.655  0.00  0.00     0.122 A 
ATOM     16  C   UNL d   1     -39.183  14.056  21.418  0.00  0.00     0.117 A 
ATOM     17  C   UNL d   1     -39.926  14.085  21.773  0.00  0.00     0.026 A 
ATOM     18  C   UNL d   1     -40.567  14.403  21.363  0.00  0.00     0.002 A 
ATOM     19  C   UNL d   1     -40.459  14.695  20.589  0.00  0.00     0.002 A 
ATOM     20  C   UNL d   1     -39.720  14.664  20.241  0.00  0.00     0.027 A 
BRANCH  16  21
ATOM     21  O   UNL d   1     -38.542  13.737  21.828  0.00  0.00    -0.326 OA
ATOM     22  C   UNL d   1     -38.633  13.501  22.610  0.00  0.00     0.181 C 
ENDBRANCH  16  21
ENDBRANCH  14  15
ENDBRANCH   1  14
BRANCH   5  23
ATOM     23  C   UNL d   1     -37.940  15.460  16.705  0.00  0.00     0.086 C 
BRANCH  23  24
ATOM     24  N   UNL d   1     -38.456  15.747  16.139  0.00  0.00    -0.300 N 
ATOM     25  C   UNL d   1     -38.181  15.920  15.381  0.00  0.00     0.100 C 
ATOM     26  C   UNL d   1     -39.255  15.865  16.320  0.00  0.00     0.100 C 
ENDBRANCH  23  24
ENDBRANCH   5  23
TORSDOF 5
ENDMDL
