MODEL 1
REMARK VINA RESULT:      -7.8      0.000      0.000
REMARK  3 active torsions:
REMARK  status: ('A' for Active; 'I' for Inactive)
REMARK    1  A    between atoms: N_5  and  C_2 
REMARK    2  A    between atoms: C_14  and  C_4 
REMARK       I    between atoms: C_7  and  N_5 
REMARK    3  A    between atoms: C_8  and  C_7 
ROOT
ATOM      1  S   UNL d   1      53.285  31.460  53.666  0.00  0.00    -0.026 SA
ATOM      2  C   UNL d   1      53.186  32.180  53.271  0.00  0.00     0.219 A 
ATOM      3  N   UNL d   1      52.779  31.162  52.495  0.00  0.00    -0.139 NA
ATOM      4  C   UNL d   1      53.035  30.847  53.187  0.00  0.00     0.135 A 
ATOM      5  N   UNL d   1      52.869  31.992  52.536  0.00  0.00    -0.121 NA
ENDROOT
BRANCH   2   6
ATOM      6  N   UNL d   1      53.341  32.969  53.480  0.00  0.00    -0.181 NA
ATOM      7  C   UNL d   1      52.739  33.418  53.789  0.00  0.00     0.287 C 
ATOM      8  O   UNL d   1      51.974  33.120  53.904  0.00  0.00    -0.265 OA
BRANCH   7   9
ATOM      9  C   UNL d   1      52.892  34.182  53.990  0.00  0.00     0.087 A 
ATOM     10  S   UNL d   1      53.221  34.414  54.694  0.00  0.00    -0.082 SA
ATOM     11  C   UNL d   1      53.286  35.251  54.679  0.00  0.00     0.036 A 
ATOM     12  C   UNL d   1      52.999  35.503  53.978  0.00  0.00     0.008 A 
ATOM     13  C   UNL d   1      52.752  34.874  53.538  0.00  0.00     0.012 A 
ENDBRANCH   7   9
ENDBRANCH   2   6
BRANCH   4  14
ATOM     14  C   UNL d   1      53.052  30.027  53.401  0.00  0.00     0.026 C 
ATOM     15  C   UNL d   1      53.601  29.719  53.934  0.00  0.00     0.002 C 
ATOM     16  C   UNL d   1      52.489  29.511  53.058  0.00  0.00     0.002 C 
ENDBRANCH   4  14
TORSDOF 3
ENDMDL
MODEL 2
REMARK VINA RESULT:      -7.5      2.102      2.928
REMARK  3 active torsions:
REMARK  status: ('A' for Active; 'I' for Inactive)
REMARK    1  A    between atoms: N_5  and  C_2 
REMARK    2  A    between atoms: C_14  and  C_4 
REMARK       I    between atoms: C_7  and  N_5 
REMARK    3  A    between atoms: C_8  and  C_7 
ROOT
ATOM      1  S   UNL d   1      53.343  33.461  54.262  0.00  0.00    -0.026 SA
ATOM      2  C   UNL d   1      53.000  33.229  53.546  0.00  0.00     0.219 A 
ATOM      3  N   UNL d   1      54.278  32.818  53.607  0.00  0.00    -0.139 NA
ATOM      4  C   UNL d   1      54.120  33.207  54.290  0.00  0.00     0.135 A 
ATOM      5  N   UNL d   1      53.587  32.826  53.135  0.00  0.00    -0.121 NA
ENDROOT
BRANCH   2   6
ATOM      6  N   UNL d   1      52.243  33.331  53.220  0.00  0.00    -0.181 NA
ATOM      7  C   UNL d   1      52.015  34.073  52.981  0.00  0.00     0.287 C 
ATOM      8  O   UNL d   1      52.509  34.735  53.050  0.00  0.00    -0.265 OA
BRANCH   7   9
ATOM      9  C   UNL d   1      51.282  34.167  52.665  0.00  0.00     0.087 A 
ATOM     10  S   UNL d   1      50.606  34.288  53.099  0.00  0.00    -0.082 SA
ATOM     11  C   UNL d   1      49.968  34.357  52.558  0.00  0.00     0.036 A 
ATOM     12  C   UNL d   1      50.265  34.279  51.822  0.00  0.00     0.008 A 
ATOM     13  C   UNL d   1      51.062  34.162  51.856  0.00  0.00     0.012 A 
ENDBRANCH   7   9
ENDBRANCH   2   6
BRANCH   4  14
ATOM     14  C   UNL d   1      54.650  33.340  54.937  0.00  0.00     0.026 C 
ATOM     15  C   UNL d   1      55.338  33.791  54.862  0.00  0.00     0.002 C 
ATOM     16  C   UNL d   1      54.470  33.002  55.681  0.00  0.00     0.002 C 
ENDBRANCH   4  14
TORSDOF 3
ENDMDL
MODEL 3
REMARK VINA RESULT:      -7.5      1.047      4.026
REMARK  3 active torsions:
REMARK  status: ('A' for Active; 'I' for Inactive)
REMARK    1  A    between atoms: N_5  and  C_2 
REMARK    2  A    between atoms: C_14  and  C_4 
REMARK       I    between atoms: C_7  and  N_5 
REMARK    3  A    between atoms: C_8  and  C_7 
ROOT
ATOM      1  S   UNL d   1      52.867  33.317  53.893  0.00  0.00    -0.026 SA
ATOM      2  C   UNL d   1      53.437  32.723  53.816  0.00  0.00     0.219 A 
ATOM      3  N   UNL d   1      53.967  33.920  53.513  0.00  0.00    -0.139 NA
ATOM      4  C   UNL d   1      53.198  34.042  53.707  0.00  0.00     0.135 A 
ATOM      5  N   UNL d   1      54.127  33.102  53.578  0.00  0.00    -0.121 NA
ENDROOT
BRANCH   2   6
ATOM      6  N   UNL d   1      53.419  31.900  53.930  0.00  0.00    -0.181 NA
ATOM      7  C   UNL d   1      53.144  31.427  53.331  0.00  0.00     0.287 C 
ATOM      8  O   UNL d   1      52.879  31.733  52.607  0.00  0.00    -0.265 OA
BRANCH   7   9
ATOM      9  C   UNL d   1      53.128  30.631  53.445  0.00  0.00     0.087 A 
ATOM     10  S   UNL d   1      52.646  30.118  53.041  0.00  0.00    -0.082 SA
ATOM     11  C   UNL d   1      52.804  29.345  53.327  0.00  0.00     0.036 A 
ATOM     12  C   UNL d   1      53.368  29.405  53.887  0.00  0.00     0.008 A 
ATOM     13  C   UNL d   1      53.585  30.176  53.980  0.00  0.00     0.012 A 
ENDBRANCH   7   9
ENDBRANCH   2   6
BRANCH   4  14
ATOM     14  C   UNL d   1      52.785  34.781  53.721  0.00  0.00     0.026 C 
ATOM     15  C   UNL d   1      52.155  34.948  53.214  0.00  0.00     0.002 C 
ATOM     16  C   UNL d   1      53.025  35.364  54.271  0.00  0.00     0.002 C 
ENDBRANCH   4  14
TORSDOF 3
ENDMDL
MODEL 4
REMARK VINA RESULT:      -6.9      2.199      3.411
REMARK  3 active torsions:
REMARK  status: ('A' for Active; 'I' for Inactive)
REMARK    1  A    between atoms: N_5  and  C_2 
REMARK    2  A    between atoms: C_14  and  C_4 
REMARK       I    between atoms: C_7  and  N_5 
REMARK    3  A    between atoms: C_8  and  C_7 
ROOT
ATOM      1  S   UNL d   1      51.055  33.927  53.145  0.00  0.00    -0.026 SA
ATOM      2  C   UNL d   1      51.834  33.682  53.016  0.00  0.00     0.219 A 
ATOM      3  N   UNL d   1      51.296  34.144  51.875  0.00  0.00    -0.139 NA
ATOM      4  C   UNL d   1      50.736  34.206  52.446  0.00  0.00     0.135 A 
ATOM      5  N   UNL d   1      51.985  33.818  52.219  0.00  0.00    -0.121 NA
ENDROOT
BRANCH   2   6
ATOM      6  N   UNL d   1      52.417  33.357  53.511  0.00  0.00    -0.181 NA
ATOM      7  C   UNL d   1      52.938  33.857  53.884  0.00  0.00     0.287 C 
ATOM      8  O   UNL d   1      52.912  34.681  53.789  0.00  0.00    -0.265 OA
BRANCH   7   9
ATOM      9  C   UNL d   1      53.501  33.540  54.362  0.00  0.00     0.087 A 
ATOM     10  S   UNL d   1      53.987  33.971  54.849  0.00  0.00    -0.082 SA
ATOM     11  C   UNL d   1      54.488  33.429  55.248  0.00  0.00     0.036 A 
ATOM     12  C   UNL d   1      54.299  32.696  55.000  0.00  0.00     0.008 A 
ATOM     13  C   UNL d   1      53.701  32.732  54.460  0.00  0.00     0.012 A 
ENDBRANCH   7   9
ENDBRANCH   2   6
BRANCH   4  14
ATOM     14  C   UNL d   1      49.948  34.506  52.358  0.00  0.00     0.026 C 
ATOM     15  C   UNL d   1      49.550  34.891  52.971  0.00  0.00     0.002 C 
ATOM     16  C   UNL d   1      49.560  34.409  51.624  0.00  0.00     0.002 C 
ENDBRANCH   4  14
TORSDOF 3
ENDMDL
