MODEL 1
REMARK VINA RESULT:      -2.6      0.000      0.000
REMARK  4 active torsions:
REMARK  status: ('A' for Active; 'I' for Inactive)
REMARK    1  A    between atoms: C_12  and  N_1 
REMARK    2  A    between atoms: N_3  and  C_11 
REMARK    3  A    between atoms: C_11  and  C_15 
REMARK    4  A    between atoms: C_15  and  C_12 
ROOT
ATOM      1  N   UNL d   1      33.240  19.193 -23.326  0.00  0.00    -0.303 N 
ATOM      2  C   UNL d   1      33.240  19.718 -23.971  0.00  0.00     0.064 A 
ATOM      3  C   UNL d   1      33.239  20.487 -23.674  0.00  0.00     0.018 A 
ATOM      4  C   UNL d   1      33.238  20.447 -22.849  0.00  0.00     0.018 A 
ATOM      5  C   UNL d   1      33.239  19.643 -22.633  0.00  0.00     0.064 A 
ATOM      6  C   UNL d   1      33.239  19.432 -21.834  0.00  0.00     0.018 A 
ATOM      7  C   UNL d   1      33.237  21.031 -22.265  0.00  0.00     0.002 A 
ATOM      8  C   UNL d   1      33.237  20.014 -21.255  0.00  0.00     0.002 A 
ATOM      9  C   UNL d   1      33.237  20.810 -21.469  0.00  0.00     0.000 A 
ATOM     10  C   UNL d   1      33.241  19.503 -24.767  0.00  0.00     0.019 C 
ATOM     11  C   UNL d   1      33.239  21.176 -24.127  0.00  0.00     0.002 C 
ATOM     12  C   UNL d   1      33.236  21.393 -20.889  0.00  0.00     0.000 C 
ENDROOT
BRANCH   1  13
ATOM     13  C   UNL d   1      33.241  18.367 -23.371  0.00  0.00     0.124 C 
BRANCH  13  14
ATOM     14  C   UNL d   1      32.567  17.973 -23.646  0.00  0.00     0.232 C 
ATOM     15  O   UNL d   1      31.848  18.361 -23.667  0.00  0.00    -0.283 OA
BRANCH  14  16
ATOM     16  C   UNL d   1      32.630  17.191 -23.896  0.00  0.00     0.144 C 
BRANCH  16  17
ATOM     17  N   UNL d   1      31.981  16.688 -23.861  0.00  0.00    -0.225 N 
ATOM     18  N   UNL d   1      31.413  16.681 -23.259  0.00  0.00    -0.165 NA
ATOM     19  C   UNL d   1      30.859  16.091 -23.440  0.00  0.00     0.103 A 
ATOM     20  C   UNL d   1      30.197  15.887 -22.997  0.00  0.00     0.022 C 
ATOM     21  C   UNL d   1      31.088  15.736 -24.154  0.00  0.00     0.040 A 
ATOM     22  C   UNL d   1      31.782  16.107 -24.412  0.00  0.00     0.085 A 
ATOM     23  C   UNL d   1      32.201  15.929 -25.097  0.00  0.00     0.021 C 
ENDBRANCH  16  17
ENDBRANCH  14  16
ENDBRANCH  13  14
ENDBRANCH   1  13
TORSDOF 4
ENDMDL
MODEL 2
REMARK VINA RESULT:      -1.9      0.774      1.794
REMARK  4 active torsions:
REMARK  status: ('A' for Active; 'I' for Inactive)
REMARK    1  A    between atoms: C_12  and  N_1 
REMARK    2  A    between atoms: N_3  and  C_11 
REMARK    3  A    between atoms: C_11  and  C_15 
REMARK    4  A    between atoms: C_15  and  C_12 
ROOT
ATOM      1  N   UNL d   1      33.230  19.521 -23.112  0.00  0.00    -0.303 N 
ATOM      2  C   UNL d   1      33.232  19.631 -22.287  0.00  0.00     0.064 A 
ATOM      3  C   UNL d   1      33.236  20.443 -22.139  0.00  0.00     0.018 A 
ATOM      4  C   UNL d   1      33.236  20.838 -22.864  0.00  0.00     0.018 A 
ATOM      5  C   UNL d   1      33.232  20.266 -23.468  0.00  0.00     0.064 A 
ATOM      6  C   UNL d   1      33.231  20.502 -24.260  0.00  0.00     0.018 A 
ATOM      7  C   UNL d   1      33.239  21.641 -23.058  0.00  0.00     0.002 A 
ATOM      8  C   UNL d   1      33.234  21.301 -24.450  0.00  0.00     0.002 A 
ATOM      9  C   UNL d   1      33.238  21.868 -23.852  0.00  0.00     0.000 A 
ATOM     10  C   UNL d   1      33.231  19.033 -21.720  0.00  0.00     0.019 C 
ATOM     11  C   UNL d   1      33.239  20.794 -21.394  0.00  0.00     0.002 C 
ATOM     12  C   UNL d   1      33.241  22.669 -24.043  0.00  0.00     0.000 C 
ENDROOT
BRANCH   1  13
ATOM     13  C   UNL d   1      33.226  18.793 -23.504  0.00  0.00     0.124 C 
BRANCH  13  14
ATOM     14  C   UNL d   1      32.551  18.315 -23.470  0.00  0.00     0.232 C 
ATOM     15  O   UNL d   1      31.838  18.632 -23.227  0.00  0.00    -0.283 OA
BRANCH  14  16
ATOM     16  C   UNL d   1      32.607  17.521 -23.682  0.00  0.00     0.144 C 
BRANCH  16  17
ATOM     17  N   UNL d   1      31.951  17.120 -23.973  0.00  0.00    -0.225 N 
ATOM     18  N   UNL d   1      31.292  17.473 -24.330  0.00  0.00    -0.165 NA
ATOM     19  C   UNL d   1      30.764  16.870 -24.540  0.00  0.00     0.103 A 
ATOM     20  C   UNL d   1      30.035  16.963 -24.910  0.00  0.00     0.022 C 
ATOM     21  C   UNL d   1      31.098  16.145 -24.312  0.00  0.00     0.040 A 
ATOM     22  C   UNL d   1      31.832  16.303 -23.961  0.00  0.00     0.085 A 
ATOM     23  C   UNL d   1      32.352  15.745 -23.654  0.00  0.00     0.021 C 
ENDBRANCH  16  17
ENDBRANCH  14  16
ENDBRANCH  13  14
ENDBRANCH   1  13
TORSDOF 4
ENDMDL
MODEL 3
REMARK VINA RESULT:      -1.4      1.325      4.447
REMARK  4 active torsions:
REMARK  status: ('A' for Active; 'I' for Inactive)
REMARK    1  A    between atoms: C_12  and  N_1 
REMARK    2  A    between atoms: N_3  and  C_11 
REMARK    3  A    between atoms: C_11  and  C_15 
REMARK    4  A    between atoms: C_15  and  C_12 
ROOT
ATOM      1  N   UNL d   1      32.781  18.904 -23.567  0.00  0.00    -0.303 N 
ATOM      2  C   UNL d   1      32.313  19.050 -24.240  0.00  0.00     0.064 A 
ATOM      3  C   UNL d   1      31.951  18.341 -24.457  0.00  0.00     0.018 A 
ATOM      4  C   UNL d   1      32.189  17.755 -23.926  0.00  0.00     0.018 A 
ATOM      5  C   UNL d   1      32.704  18.104 -23.373  0.00  0.00     0.064 A 
ATOM      6  C   UNL d   1      33.032  17.646 -22.769  0.00  0.00     0.018 A 
ATOM      7  C   UNL d   1      32.007  16.951 -23.869  0.00  0.00     0.002 A 
ATOM      8  C   UNL d   1      32.850  16.847 -22.715  0.00  0.00     0.002 A 
ATOM      9  C   UNL d   1      32.340  16.501 -23.262  0.00  0.00     0.000 A 
ATOM     10  C   UNL d   1      32.229  19.776 -24.620  0.00  0.00     0.019 C 
ATOM     11  C   UNL d   1      31.440  18.240 -25.096  0.00  0.00     0.002 C 
ATOM     12  C   UNL d   1      32.158  15.701 -23.207  0.00  0.00     0.000 C 
ENDROOT
BRANCH   1  13
ATOM     13  C   UNL d   1      33.241  19.461 -23.165  0.00  0.00     0.124 C 
BRANCH  13  14
ATOM     14  C   UNL d   1      32.875  19.998 -22.652  0.00  0.00     0.232 C 
ATOM     15  O   UNL d   1      32.356  19.728 -22.080  0.00  0.00    -0.283 OA
BRANCH  14  16
ATOM     16  C   UNL d   1      33.039  20.802 -22.725  0.00  0.00     0.144 C 
BRANCH  16  17
ATOM     17  N   UNL d   1      33.048  21.288 -22.062  0.00  0.00    -0.225 N 
ATOM     18  N   UNL d   1      32.971  21.031 -21.279  0.00  0.00    -0.165 NA
ATOM     19  C   UNL d   1      33.010  21.697 -20.788  0.00  0.00     0.103 A 
ATOM     20  C   UNL d   1      32.959  21.706 -19.967  0.00  0.00     0.022 C 
ATOM     21  C   UNL d   1      33.112  22.365 -21.270  0.00  0.00     0.040 A 
ATOM     22  C   UNL d   1      33.135  22.108 -22.058  0.00  0.00     0.085 A 
ATOM     23  C   UNL d   1      33.229  22.586 -22.720  0.00  0.00     0.021 C 
ENDBRANCH  16  17
ENDBRANCH  14  16
ENDBRANCH  13  14
ENDBRANCH   1  13
TORSDOF 4
ENDMDL
MODEL 4
REMARK VINA RESULT:      -0.8      1.711      2.965
REMARK  4 active torsions:
REMARK  status: ('A' for Active; 'I' for Inactive)
REMARK    1  A    between atoms: C_12  and  N_1 
REMARK    2  A    between atoms: N_3  and  C_11 
REMARK    3  A    between atoms: C_11  and  C_15 
REMARK    4  A    between atoms: C_15  and  C_12 
ROOT
ATOM      1  N   UNL d   1      32.177  17.307 -24.247  0.00  0.00    -0.303 N 
ATOM      2  C   UNL d   1      32.480  17.131 -23.493  0.00  0.00     0.064 A 
ATOM      3  C   UNL d   1      32.857  17.807 -23.206  0.00  0.00     0.018 A 
ATOM      4  C   UNL d   1      32.790  18.402 -23.775  0.00  0.00     0.018 A 
ATOM      5  C   UNL d   1      32.369  18.092 -24.422  0.00  0.00     0.064 A 
ATOM      6  C   UNL d   1      32.217  18.566 -25.081  0.00  0.00     0.018 A 
ATOM      7  C   UNL d   1      33.056  19.184 -23.794  0.00  0.00     0.002 A 
ATOM      8  C   UNL d   1      32.482  19.344 -25.097  0.00  0.00     0.002 A 
ATOM      9  C   UNL d   1      32.900  19.651 -24.457  0.00  0.00     0.000 A 
ATOM     10  C   UNL d   1      32.415  16.408 -23.103  0.00  0.00     0.019 C 
ATOM     11  C   UNL d   1      33.233  17.873 -22.476  0.00  0.00     0.002 C 
ATOM     12  C   UNL d   1      33.165  20.430 -24.473  0.00  0.00     0.000 C 
ENDROOT
BRANCH   1  13
ATOM     13  C   UNL d   1      31.758  16.787 -24.736  0.00  0.00     0.124 C 
BRANCH  13  14
ATOM     14  C   UNL d   1      30.974  16.599 -24.553  0.00  0.00     0.232 C 
ATOM     15  O   UNL d   1      30.810  16.077 -23.946  0.00  0.00    -0.283 OA
BRANCH  14  16
ATOM     16  C   UNL d   1      30.364  16.942 -24.988  0.00  0.00     0.144 C 
BRANCH  16  17
ATOM     17  N   UNL d   1      29.579  16.784 -24.803  0.00  0.00    -0.225 N 
ATOM     18  N   UNL d   1      29.285  16.053 -24.544  0.00  0.00    -0.165 NA
ATOM     19  C   UNL d   1      28.470  16.136 -24.422  0.00  0.00     0.103 A 
ATOM     20  C   UNL d   1      27.951  15.553 -24.165  0.00  0.00     0.022 C 
ATOM     21  C   UNL d   1      28.262  16.918 -24.605  0.00  0.00     0.040 A 
ATOM     22  C   UNL d   1      28.950  17.316 -24.841  0.00  0.00     0.085 A 
ATOM     23  C   UNL d   1      28.999  18.104 -25.072  0.00  0.00     0.021 C 
ENDBRANCH  16  17
ENDBRANCH  14  16
ENDBRANCH  13  14
ENDBRANCH   1  13
TORSDOF 4
ENDMDL
