MODEL 1
REMARK VINA RESULT:      69.3      0.000      0.000
REMARK  6 active torsions:
REMARK  status: ('A' for Active; 'I' for Inactive)
REMARK    1  A    between atoms: C_7  and  S_1 
REMARK    2  A    between atoms: N_11  and  S_1 
REMARK    3  A    between atoms: C_5  and  C_21 
REMARK    4  A    between atoms: C_22  and  N_11 
REMARK    5  A    between atoms: C_20  and  C_13 
REMARK    6  A    between atoms: C_21  and  C_22 
ROOT
ATOM      1  S   UNL d   1      61.372  48.789  50.549  0.00  0.00     0.285 S 
ATOM      2  O   UNL d   1      61.298  49.562  50.834  0.00  0.00    -0.198 OA
ATOM      3  O   UNL d   1      62.190  48.838  50.635  0.00  0.00    -0.198 OA
ENDROOT
BRANCH   1   4
ATOM      4  C   UNL d   1      61.447  48.024  50.266  0.00  0.00     0.105 A 
ATOM      5  C   UNL d   1      61.921  47.881  49.599  0.00  0.00     0.013 A 
ATOM      6  C   UNL d   1      61.995  47.103  49.317  0.00  0.00     0.001 A 
ATOM      7  C   UNL d   1      61.607  46.487  49.687  0.00  0.00     0.000 A 
ATOM      8  C   UNL d   1      61.135  46.633  50.352  0.00  0.00     0.001 A 
ATOM      9  C   UNL d   1      61.055  47.402  50.641  0.00  0.00     0.013 A 
BRANCH   7  10
ATOM     10  C   UNL d   1      61.680  45.720  49.408  0.00  0.00     0.000 A 
ATOM     11  C   UNL d   1      61.017  45.239  49.334  0.00  0.00     0.000 A 
ATOM     12  C   UNL d   1      61.102  44.469  49.053  0.00  0.00     0.000 A 
ATOM     13  C   UNL d   1      61.845  44.181  48.846  0.00  0.00     0.000 A 
ATOM     14  C   UNL d   1      62.513  44.663  48.920  0.00  0.00     0.000 A 
ATOM     15  C   UNL d   1      62.423  45.433  49.202  0.00  0.00     0.000 A 
ENDBRANCH   7  10
ENDBRANCH   1   4
BRANCH   1  16
ATOM     16  N   UNL d   1      60.553  48.745  50.463  0.00  0.00    -0.157 NA
BRANCH  16  17
ATOM     17  C   UNL d   1      60.127  49.402  50.240  0.00  0.00     0.114 C 
BRANCH  17  18
ATOM     18  C   UNL d   1      59.536  49.708  50.737  0.00  0.00     0.042 C 
BRANCH  18  19
ATOM     19  C   UNL d   1      58.738  49.682  50.487  0.00  0.00     0.102 A 
ATOM     20  N   UNL d   1      58.079  49.627  50.974  0.00  0.00    -0.227 NA
ATOM     21  C   UNL d   1      57.400  49.618  50.506  0.00  0.00     0.148 A 
ATOM     22  C   UNL d   1      56.602  49.571  50.685  0.00  0.00     0.037 A 
ATOM     23  N   UNL d   1      57.637  49.667  49.712  0.00  0.00    -0.288 N 
ATOM     24  C   UNL d   1      56.033  49.573  50.081  0.00  0.00     0.005 A 
ATOM     25  C   UNL d   1      56.267  49.622  49.299  0.00  0.00     0.019 A 
ATOM     26  C   UNL d   1      57.069  49.669  49.108  0.00  0.00     0.082 A 
ATOM     27  C   UNL d   1      58.465  49.707  49.690  0.00  0.00     0.101 A 
ENDBRANCH  18  19
ENDBRANCH  17  18
ENDBRANCH  16  17
ENDBRANCH   1  16
TORSDOF 6
ENDMDL
