MODEL 1
REMARK VINA RESULT:      35.2      0.000      0.000
REMARK  5 active torsions:
REMARK  status: ('A' for Active; 'I' for Inactive)
REMARK    1  A    between atoms: N_2  and  S_1 
REMARK    2  A    between atoms: C_8  and  S_1 
REMARK    3  A    between atoms: S_7  and  C_3 
REMARK    4  A    between atoms: C_11  and  S_7 
REMARK    5  A    between atoms: C_12  and  C_11 
ROOT
ATOM      1  N   UNL d   1     -55.331 -99.470 -44.475  0.00  0.00    -0.208 N 
ATOM      2  C   UNL d   1     -55.988 -99.026 -44.732  0.00  0.00     0.189 A 
ATOM      3  N   UNL d   1     -55.845 -98.780 -45.511  0.00  0.00    -0.219 NA
ATOM      4  C   UNL d   1     -54.780 -99.498 -45.102  0.00  0.00     0.114 A 
ATOM      5  C   UNL d   1     -55.101 -99.073 -45.735  0.00  0.00     0.121 A 
ENDROOT
BRANCH   1   6
ATOM      6  S   UNL d   1     -55.243 -99.822 -43.727  0.00  0.00     0.273 S 
ATOM      7  O   UNL d   1     -55.374 -99.079 -43.404  0.00  0.00    -0.200 OA
ATOM      8  O   UNL d   1     -55.199 -99.933 -42.907  0.00  0.00    -0.200 OA
BRANCH   6   9
ATOM      9  C   UNL d   1     -55.109-100.578 -44.036  0.00  0.00     0.104 A 
ATOM     10  C   UNL d   1     -54.848-100.657 -44.811  0.00  0.00     0.013 A 
ATOM     11  C   UNL d   1     -54.715-101.410 -45.117  0.00  0.00     0.001 A 
ATOM     12  C   UNL d   1     -54.843-102.076 -44.648  0.00  0.00     0.000 A 
ATOM     13  C   UNL d   1     -55.104-101.992 -43.874  0.00  0.00     0.001 A 
ATOM     14  C   UNL d   1     -55.238-101.232 -43.568  0.00  0.00     0.013 A 
ENDBRANCH   6   9
ENDBRANCH   1   6
BRANCH   2  15
ATOM     15  S   UNL d   1     -56.669 -98.859 -44.282  0.00  0.00    -0.049 SA
BRANCH  15  16
ATOM     16  C   UNL d   1     -57.409 -98.834 -44.650  0.00  0.00     0.038 C 
BRANCH  16  17
ATOM     17  C   UNL d   1     -58.095 -98.840 -44.191  0.00  0.00     0.007 A 
ATOM     18  C   UNL d   1     -58.053 -98.758 -43.371  0.00  0.00     0.001 A 
ATOM     19  C   UNL d   1     -58.755 -98.766 -42.920  0.00  0.00     0.000 A 
ATOM     20  C   UNL d   1     -59.488 -98.855 -43.294  0.00  0.00     0.000 A 
ATOM     21  C   UNL d   1     -59.535 -98.936 -44.110  0.00  0.00     0.000 A 
ATOM     22  C   UNL d   1     -58.846 -98.929 -44.560  0.00  0.00     0.001 A 
ENDBRANCH  16  17
ENDBRANCH  15  16
ENDBRANCH   2  15
TORSDOF 5
ENDMDL
