MODEL 1
REMARK VINA RESULT:      63.1      0.000      0.000
REMARK  5 active torsions:
REMARK  status: ('A' for Active; 'I' for Inactive)
REMARK    1  A    between atoms: C_7  and  C_1 
REMARK       I    between atoms: C_3  and  N_8 
REMARK       I    between atoms: N_10  and  C_3 
REMARK    2  A    between atoms: N_8  and  C_6 
REMARK    3  A    between atoms: O_14  and  C_7 
REMARK    4  A    between atoms: C_13  and  N_10 
REMARK    5  A    between atoms: C_23  and  O_14 
ROOT
ATOM      1  C   UNL d   1     -47.868  30.317  35.071  0.00  0.00     0.083 A 
ATOM      2  N   UNL d   1     -47.951  29.242  36.000  0.00  0.00    -0.244 NA
ATOM      3  C   UNL d   1     -47.822  30.035  35.840  0.00  0.00     0.087 A 
ATOM      4  C   UNL d   1     -48.043  29.808  34.457  0.00  0.00     0.028 A 
ATOM      5  C   UNL d   1     -48.175  29.005  34.608  0.00  0.00     0.104 A 
ATOM      6  C   UNL d   1     -48.129  28.723  35.376  0.00  0.00     0.099 A 
ATOM      7  C   UNL d   1     -47.644  30.554  36.464  0.00  0.00     0.021 C 
ATOM      8  C   UNL d   1     -48.261  27.918  35.532  0.00  0.00     0.022 C 
ENDROOT
BRANCH   5   9
ATOM      9  N   UNL d   1     -48.353  28.487  33.984  0.00  0.00    -0.189 NA
ATOM     10  C   UNL d   1     -49.067  28.086  33.969  0.00  0.00     0.369 C 
ATOM     11  N   UNL d   1     -49.253  27.569  33.354  0.00  0.00    -0.191 NA
ATOM     12  O   UNL d   1     -49.619  28.198  34.581  0.00  0.00    -0.242 OA
BRANCH  11  13
ATOM     13  C   UNL d   1     -49.963  27.173  33.342  0.00  0.00     0.086 A 
ATOM     14  C   UNL d   1     -50.670  27.598  33.319  0.00  0.00     0.020 A 
ATOM     15  C   UNL d   1     -51.393  27.188  33.307  0.00  0.00     0.008 A 
ATOM     16  C   UNL d   1     -51.403  26.363  33.318  0.00  0.00     0.035 A 
ATOM     17  C   UNL d   1     -50.695  25.940  33.341  0.00  0.00     0.008 A 
ATOM     18 BR   UNL d   1     -52.113  25.967  33.306  0.00  0.00    -0.049 Br
ATOM     19  C   UNL d   1     -49.972  26.341  33.353  0.00  0.00     0.020 A 
ENDBRANCH  11  13
ENDBRANCH   5   9
BRANCH   1  20
ATOM     20  C   UNL d   1     -47.737  31.114  34.919  0.00  0.00     0.302 C 
ATOM     21  O   UNL d   1     -47.261  31.549  35.414  0.00  0.00    -0.259 OA
BRANCH  20  22
ATOM     22  O   UNL d   1     -48.084  31.462  34.274  0.00  0.00    -0.271 OA
BRANCH  22  23
ATOM     23  C   UNL d   1     -47.784  32.165  33.986  0.00  0.00     0.126 C 
ATOM     24  C   UNL d   1     -48.249  32.843  33.992  0.00  0.00     0.029 C 
ENDBRANCH  22  23
ENDBRANCH  20  22
ENDBRANCH   1  20
TORSDOF 5
ENDMDL
MODEL 2
REMARK VINA RESULT:      65.4      0.909      1.349
REMARK  5 active torsions:
REMARK  status: ('A' for Active; 'I' for Inactive)
REMARK    1  A    between atoms: C_7  and  C_1 
REMARK       I    between atoms: C_3  and  N_8 
REMARK       I    between atoms: N_10  and  C_3 
REMARK    2  A    between atoms: N_8  and  C_6 
REMARK    3  A    between atoms: O_14  and  C_7 
REMARK    4  A    between atoms: C_13  and  N_10 
REMARK    5  A    between atoms: C_23  and  O_14 
ROOT
ATOM      1  C   UNL d   1     -47.596  31.115  34.724  0.00  0.00     0.083 A 
ATOM      2  N   UNL d   1     -47.516  30.812  36.112  0.00  0.00    -0.244 NA
ATOM      3  C   UNL d   1     -47.524  31.360  35.503  0.00  0.00     0.087 A 
ATOM      4  C   UNL d   1     -47.659  30.320  34.548  0.00  0.00     0.028 A 
ATOM      5  C   UNL d   1     -47.651  29.758  35.155  0.00  0.00     0.104 A 
ATOM      6  C   UNL d   1     -47.580  30.003  35.935  0.00  0.00     0.099 A 
ATOM      7  C   UNL d   1     -47.460  32.169  35.681  0.00  0.00     0.021 C 
ATOM      8  C   UNL d   1     -47.572  29.443  36.548  0.00  0.00     0.022 C 
ENDROOT
BRANCH   5   9
ATOM      9  N   UNL d   1     -47.716  28.949  34.978  0.00  0.00    -0.189 NA
ATOM     10  C   UNL d   1     -48.430  28.635  34.730  0.00  0.00     0.369 C 
ATOM     11  N   UNL d   1     -48.504  27.833  34.551  0.00  0.00    -0.191 NA
ATOM     12  O   UNL d   1     -49.097  29.127  34.655  0.00  0.00    -0.242 OA
BRANCH  11  13
ATOM     13  C   UNL d   1     -49.215  27.524  34.305  0.00  0.00     0.086 A 
ATOM     14  C   UNL d   1     -49.276  27.177  33.559  0.00  0.00     0.020 A 
ATOM     15  C   UNL d   1     -50.004  26.862  33.312  0.00  0.00     0.008 A 
ATOM     16  C   UNL d   1     -50.661  26.898  33.811  0.00  0.00     0.035 A 
ATOM     17  C   UNL d   1     -50.599  27.245  34.556  0.00  0.00     0.008 A 
ATOM     18 BR   UNL d   1     -51.372  26.588  33.565  0.00  0.00    -0.049 Br
ATOM     19  C   UNL d   1     -49.877  27.560  34.808  0.00  0.00     0.020 A 
ENDBRANCH  11  13
ENDBRANCH   5   9
BRANCH   1  20
ATOM     20  C   UNL d   1     -47.604  31.671  34.119  0.00  0.00     0.302 C 
ATOM     21  O   UNL d   1     -46.969  31.730  33.615  0.00  0.00    -0.259 OA
BRANCH  20  22
ATOM     22  O   UNL d   1     -48.246  32.157  34.028  0.00  0.00    -0.271 OA
BRANCH  22  23
ATOM     23  C   UNL d   1     -48.310  32.618  33.357  0.00  0.00     0.126 C 
ATOM     24  C   UNL d   1     -48.510  33.413  33.423  0.00  0.00     0.029 C 
ENDBRANCH  22  23
ENDBRANCH  20  22
ENDBRANCH   1  20
TORSDOF 5
ENDMDL
