MODEL 1
REMARK VINA RESULT:      -2.8      0.000      0.000
REMARK  1 active torsions:
REMARK  status: ('A' for Active; 'I' for Inactive)
REMARK    1  A    between atoms: C_10  and  C_4 
ROOT
ATOM      1  C   UNL d   1      30.469  17.588 -24.543  0.00  0.00     0.111 A 
ATOM      2  C   UNL d   1      29.825  16.506 -23.841  0.00  0.00     0.062 A 
ATOM      3  C   UNL d   1      29.756  17.940 -24.673  0.00  0.00     0.213 A 
ATOM      4  C   UNL d   1      30.519  16.851 -24.116  0.00  0.00     0.018 A 
ATOM      5  C   UNL d   1      29.075  16.884 -23.982  0.00  0.00     0.105 A 
ATOM      6  O   UNL d   1      29.035  17.566 -24.377  0.00  0.00    -0.287 OA
ATOM      7  C   UNL d   1      31.159  17.931 -24.817  0.00  0.00     0.105 C 
ATOM      8  C   UNL d   1      29.838  15.795 -23.425  0.00  0.00     0.198 A 
ATOM      9  N   UNL d   1      31.861  18.280 -25.097  0.00  0.00    -0.191 NA
ATOM     10  N   UNL d   1      29.691  18.674 -25.096  0.00  0.00    -0.120 N 
ATOM     11  O   UNL d   1      30.581  15.463 -23.310  0.00  0.00    -0.286 OA
ATOM     12  C   UNL d   1      28.373  16.535 -23.702  0.00  0.00     0.025 A 
ATOM     13  C   UNL d   1      29.149  15.453 -23.151  0.00  0.00     0.042 A 
ATOM     14  C   UNL d   1      28.412  15.803 -23.278  0.00  0.00     0.005 A 
ENDROOT
BRANCH   4  15
ATOM     15  C   UNL d   1      31.228  16.480 -23.975  0.00  0.00     0.001 A 
ATOM     16  C   UNL d   1      31.506  15.879 -24.474  0.00  0.00     0.000 A 
ATOM     17  C   UNL d   1      32.227  15.509 -24.321  0.00  0.00     0.000 A 
ATOM     18  C   UNL d   1      32.685  15.726 -23.674  0.00  0.00     0.000 A 
ATOM     19  C   UNL d   1      32.408  16.328 -23.174  0.00  0.00     0.000 A 
ATOM     20  C   UNL d   1      31.686  16.697 -23.328  0.00  0.00     0.000 A 
ENDBRANCH   4  15
TORSDOF 1
ENDMDL
MODEL 2
REMARK VINA RESULT:      -2.6      0.902      2.587
REMARK  1 active torsions:
REMARK  status: ('A' for Active; 'I' for Inactive)
REMARK    1  A    between atoms: C_10  and  C_4 
ROOT
ATOM      1  C   UNL d   1      30.391  17.637 -24.590  0.00  0.00     0.111 A 
ATOM      2  C   UNL d   1      31.136  16.582 -23.948  0.00  0.00     0.062 A 
ATOM      3  C   UNL d   1      31.070  18.055 -24.710  0.00  0.00     0.213 A 
ATOM      4  C   UNL d   1      30.411  16.878 -24.200  0.00  0.00     0.018 A 
ATOM      5  C   UNL d   1      31.848  17.030 -24.078  0.00  0.00     0.105 A 
ATOM      6  O   UNL d   1      31.824  17.731 -24.439  0.00  0.00    -0.287 OA
ATOM      7  C   UNL d   1      29.671  17.931 -24.841  0.00  0.00     0.105 C 
ATOM      8  C   UNL d   1      31.191  15.854 -23.568  0.00  0.00     0.198 A 
ATOM      9  N   UNL d   1      28.937  18.230 -25.096  0.00  0.00    -0.191 NA
ATOM     10  N   UNL d   1      31.065  18.812 -25.097  0.00  0.00    -0.120 N 
ATOM     11  O   UNL d   1      30.481  15.453 -23.462  0.00  0.00    -0.286 OA
ATOM     12  C   UNL d   1      32.583  16.731 -23.822  0.00  0.00     0.025 A 
ATOM     13  C   UNL d   1      31.911  15.560 -23.318  0.00  0.00     0.042 A 
ATOM     14  C   UNL d   1      32.613  15.979 -23.434  0.00  0.00     0.005 A 
ENDROOT
BRANCH   4  15
ATOM     15  C   UNL d   1      29.739  16.440 -24.070  0.00  0.00     0.001 A 
ATOM     16  C   UNL d   1      29.465  15.896 -24.633  0.00  0.00     0.000 A 
ATOM     17  C   UNL d   1      28.781  15.457 -24.491  0.00  0.00     0.000 A 
ATOM     18  C   UNL d   1      28.358  15.547 -23.792  0.00  0.00     0.000 A 
ATOM     19  C   UNL d   1      28.632  16.092 -23.228  0.00  0.00     0.000 A 
ATOM     20  C   UNL d   1      29.316  16.531 -23.371  0.00  0.00     0.000 A 
ENDBRANCH   4  15
TORSDOF 1
ENDMDL
MODEL 3
REMARK VINA RESULT:      -2.1      5.731      7.019
REMARK  1 active torsions:
REMARK  status: ('A' for Active; 'I' for Inactive)
REMARK    1  A    between atoms: C_10  and  C_4 
ROOT
ATOM      1  C   UNL d   1      32.938  21.254 -21.948  0.00  0.00     0.111 A 
ATOM      2  C   UNL d   1      32.935  22.395 -22.831  0.00  0.00     0.062 A 
ATOM      3  C   UNL d   1      33.131  20.769 -22.563  0.00  0.00     0.213 A 
ATOM      4  C   UNL d   1      32.834  22.092 -22.073  0.00  0.00     0.018 A 
ATOM      5  C   UNL d   1      33.139  21.876 -23.475  0.00  0.00     0.105 A 
ATOM      6  O   UNL d   1      33.234  21.101 -23.354  0.00  0.00    -0.287 OA
ATOM      7  C   UNL d   1      32.839  20.953 -21.195  0.00  0.00     0.105 C 
ATOM      8  C   UNL d   1      32.842  23.198 -22.986  0.00  0.00     0.198 A 
ATOM      9  N   UNL d   1      32.737  20.647 -20.428  0.00  0.00    -0.191 NA
ATOM     10  N   UNL d   1      33.238  19.933 -22.454  0.00  0.00    -0.120 N 
ATOM     11  O   UNL d   1      32.645  23.665 -22.338  0.00  0.00    -0.286 OA
ATOM     12  C   UNL d   1      33.240  22.182 -24.242  0.00  0.00     0.025 A 
ATOM     13  C   UNL d   1      32.942  23.499 -23.739  0.00  0.00     0.042 A 
ATOM     14  C   UNL d   1      33.139  23.012 -24.376  0.00  0.00     0.005 A 
ENDROOT
BRANCH   4  15
ATOM     15  C   UNL d   1      32.640  22.598 -21.468  0.00  0.00     0.001 A 
ATOM     16  C   UNL d   1      31.850  22.716 -21.243  0.00  0.00     0.000 A 
ATOM     17  C   UNL d   1      31.664  23.233 -20.628  0.00  0.00     0.000 A 
ATOM     18  C   UNL d   1      32.252  23.640 -20.224  0.00  0.00     0.000 A 
ATOM     19  C   UNL d   1      33.043  23.523 -20.449  0.00  0.00     0.000 A 
ATOM     20  C   UNL d   1      33.229  23.006 -21.065  0.00  0.00     0.000 A 
ENDBRANCH   4  15
TORSDOF 1
ENDMDL
MODEL 4
REMARK VINA RESULT:      -1.8      1.710      3.482
REMARK  1 active torsions:
REMARK  status: ('A' for Active; 'I' for Inactive)
REMARK    1  A    between atoms: C_10  and  C_4 
ROOT
ATOM      1  C   UNL d   1      31.261  16.262 -23.357  0.00  0.00     0.111 A 
ATOM      2  C   UNL d   1      31.789  17.275 -24.238  0.00  0.00     0.062 A 
ATOM      3  C   UNL d   1      32.005  16.086 -23.100  0.00  0.00     0.213 A 
ATOM      4  C   UNL d   1      31.137  16.871 -23.942  0.00  0.00     0.018 A 
ATOM      5  C   UNL d   1      32.571  17.083 -23.961  0.00  0.00     0.105 A 
ATOM      6  O   UNL d   1      32.680  16.519 -23.420  0.00  0.00    -0.287 OA
ATOM      7  C   UNL d   1      30.613  15.861 -23.063  0.00  0.00     0.105 C 
ATOM      8  C   UNL d   1      31.704  17.868 -24.803  0.00  0.00     0.198 A 
ATOM      9  N   UNL d   1      29.952  15.453 -22.763  0.00  0.00    -0.191 NA
ATOM     10  N   UNL d   1      32.144  15.483 -22.518  0.00  0.00    -0.120 N 
ATOM     11  O   UNL d   1      30.933  18.023 -25.043  0.00  0.00    -0.286 OA
ATOM     12  C   UNL d   1      33.232  17.492 -24.261  0.00  0.00     0.025 A 
ATOM     13  C   UNL d   1      32.352  18.269 -25.097  0.00  0.00     0.042 A 
ATOM     14  C   UNL d   1      33.119  18.097 -24.841  0.00  0.00     0.005 A 
ENDROOT
BRANCH   4  15
ATOM     15  C   UNL d   1      30.396  17.064 -24.214  0.00  0.00     0.001 A 
ATOM     16  C   UNL d   1      30.038  16.635 -24.828  0.00  0.00     0.000 A 
ATOM     17  C   UNL d   1      29.286  16.839 -25.097  0.00  0.00     0.000 A 
ATOM     18  C   UNL d   1      28.874  17.470 -24.766  0.00  0.00     0.000 A 
ATOM     19  C   UNL d   1      29.232  17.899 -24.152  0.00  0.00     0.000 A 
ATOM     20  C   UNL d   1      29.984  17.694 -23.883  0.00  0.00     0.000 A 
ENDBRANCH   4  15
TORSDOF 1
ENDMDL
