MODEL 1
REMARK VINA RESULT:       0.9      0.000      0.000
REMARK  4 active torsions:
REMARK  status: ('A' for Active; 'I' for Inactive)
REMARK    1  A    between atoms: S_5  and  C_3 
REMARK    2  A    between atoms: C_12  and  S_5 
REMARK    3  A    between atoms: C_23  and  N_6 
REMARK    4  A    between atoms: C_28  and  C_23 
ROOT
ATOM      1  C   UNL d   1      58.685  -1.061  29.807  0.00  0.00     0.155 A 
ATOM      2  C   UNL d   1      58.775  -0.456  30.346  0.00  0.00     0.092 A 
ATOM      3  C   UNL d   1      57.602  -0.874  31.017  0.00  0.00     0.124 A 
ATOM      4  N   UNL d   1      59.232  -1.155  29.197  0.00  0.00    -0.210 NA
ATOM      5  N   UNL d   1      58.059  -1.572  29.868  0.00  0.00    -0.273 N 
ATOM      6  C   UNL d   1      57.510  -1.486  30.471  0.00  0.00     0.181 A 
ATOM      7  C   UNL d   1      59.410   0.061  30.284  0.00  0.00     0.269 A 
ATOM      8  N   UNL d   1      59.953  -0.034  29.677  0.00  0.00    -0.258 N 
ATOM      9  C   UNL d   1      58.236  -0.360  30.952  0.00  0.00     0.022 A 
ATOM     10  C   UNL d   1      59.857  -0.647  29.133  0.00  0.00     0.152 A 
ATOM     11  N   UNL d   1      56.871  -2.011  30.529  0.00  0.00    -0.128 N 
ATOM     12  C   UNL d   1      60.594   0.479  29.604  0.00  0.00     0.084 A 
ATOM     13  O   UNL d   1      59.506   0.681  30.834  0.00  0.00    -0.266 OA
ATOM     14  C   UNL d   1      60.404  -0.741  28.524  0.00  0.00     0.038 A 
ATOM     15  C   UNL d   1      61.133   0.383  28.999  0.00  0.00     0.019 A 
ATOM     16  C   UNL d   1      61.038  -0.230  28.455  0.00  0.00     0.005 A 
ENDROOT
BRANCH   3  17
ATOM     17  S   UNL d   1      57.051  -0.782  31.629  0.00  0.00     0.213 S 
ATOM     18  O   UNL d   1      57.440  -1.364  32.082  0.00  0.00    -0.217 OA
ATOM     19  O   UNL d   1      56.658  -0.202  31.187  0.00  0.00    -0.217 OA
BRANCH  17  20
ATOM     20  C   UNL d   1      56.490  -0.680  32.239  0.00  0.00     0.088 A 
ATOM     21  C   UNL d   1      56.294   0.080  32.500  0.00  0.00     0.014 A 
ATOM     22  C   UNL d   1      55.733   0.182  33.111  0.00  0.00     0.030 A 
ATOM     23  C   UNL d   1      55.372  -0.480  33.456  0.00  0.00     0.140 A 
ATOM     24  C   UNL d   1      55.576  -1.249  33.187  0.00  0.00     0.030 A 
ATOM     25  F   UNL d   1      54.814  -0.387  34.063  0.00  0.00    -0.204 F 
ATOM     26  C   UNL d   1      56.134  -1.348  32.580  0.00  0.00     0.014 A 
ENDBRANCH  17  20
ENDBRANCH   3  17
BRANCH   5  27
ATOM     27  C   UNL d   1      57.965  -2.195  29.313  0.00  0.00     0.083 C 
BRANCH  27  28
ATOM     28  C   UNL d   1      58.222  -2.965  29.513  0.00  0.00     0.019 C 
ATOM     29  C   UNL d   1      58.361  -3.533  28.917  0.00  0.00     0.002 C 
ENDBRANCH  27  28
ENDBRANCH   5  27
TORSDOF 4
ENDMDL
MODEL 2
REMARK VINA RESULT:       3.6      2.622      5.563
REMARK  4 active torsions:
REMARK  status: ('A' for Active; 'I' for Inactive)
REMARK    1  A    between atoms: S_5  and  C_3 
REMARK    2  A    between atoms: C_12  and  S_5 
REMARK    3  A    between atoms: C_23  and  N_6 
REMARK    4  A    between atoms: C_28  and  C_23 
ROOT
ATOM      1  C   UNL d   1      56.372   0.455  33.991  0.00  0.00     0.155 A 
ATOM      2  C   UNL d   1      55.879   0.279  33.365  0.00  0.00     0.092 A 
ATOM      3  C   UNL d   1      56.997   0.188  32.505  0.00  0.00     0.124 A 
ATOM      4  N   UNL d   1      56.056   0.589  34.740  0.00  0.00    -0.210 NA
ATOM      5  N   UNL d   1      57.174   0.498  33.879  0.00  0.00    -0.273 N 
ATOM      6  C   UNL d   1      57.497   0.366  33.137  0.00  0.00     0.181 A 
ATOM      7  C   UNL d   1      55.067   0.236  33.479  0.00  0.00     0.269 A 
ATOM      8  N   UNL d   1      54.754   0.370  34.226  0.00  0.00    -0.258 N 
ATOM      9  C   UNL d   1      56.188   0.145  32.622  0.00  0.00     0.022 A 
ATOM     10  C   UNL d   1      55.257   0.547  34.855  0.00  0.00     0.152 A 
ATOM     11  N   UNL d   1      58.317   0.411  33.027  0.00  0.00    -0.128 N 
ATOM     12  C   UNL d   1      53.941   0.329  34.352  0.00  0.00     0.084 A 
ATOM     13  O   UNL d   1      54.559   0.056  32.842  0.00  0.00    -0.266 OA
ATOM     14  C   UNL d   1      54.941   0.681  35.604  0.00  0.00     0.038 A 
ATOM     15  C   UNL d   1      53.631   0.463  35.096  0.00  0.00     0.019 A 
ATOM     16  C   UNL d   1      54.134   0.640  35.726  0.00  0.00     0.005 A 
ENDROOT
BRANCH   3  17
ATOM     17  S   UNL d   1      57.317   0.053  31.752  0.00  0.00     0.213 S 
ATOM     18  O   UNL d   1      57.890   0.647  31.877  0.00  0.00    -0.217 OA
ATOM     19  O   UNL d   1      56.753  -0.538  31.618  0.00  0.00    -0.217 OA
BRANCH  17  20
ATOM     20  C   UNL d   1      57.632  -0.091  30.992  0.00  0.00     0.088 A 
ATOM     21  C   UNL d   1      57.787   0.540  30.480  0.00  0.00     0.014 A 
ATOM     22  C   UNL d   1      58.102   0.396  29.720  0.00  0.00     0.030 A 
ATOM     23  C   UNL d   1      58.258  -0.381  29.477  0.00  0.00     0.140 A 
ATOM     24  C   UNL d   1      58.098  -1.018  30.001  0.00  0.00     0.030 A 
ATOM     25  F   UNL d   1      58.571  -0.533  28.723  0.00  0.00    -0.204 F 
ATOM     26  C   UNL d   1      57.786  -0.872  30.757  0.00  0.00     0.014 A 
ENDBRANCH  17  20
ENDBRANCH   3  17
BRANCH   5  27
ATOM     27  C   UNL d   1      57.682   0.679  34.522  0.00  0.00     0.083 C 
BRANCH  27  28
ATOM     28  C   UNL d   1      58.510   0.677  34.405  0.00  0.00     0.019 C 
ATOM     29  C   UNL d   1      59.026   0.494  35.035  0.00  0.00     0.002 C 
ENDBRANCH  27  28
ENDBRANCH   5  27
TORSDOF 4
ENDMDL
