MODEL 1
REMARK VINA RESULT:      19.5      0.000      0.000
REMARK  2 active torsions:
REMARK  status: ('A' for Active; 'I' for Inactive)
REMARK    1  A    between atoms: C_12  and  C_9 
REMARK    2  A    between atoms: N_15  and  C_12 
ROOT
ATOM      1  C   UNL d   1     -54.721-101.560 -37.634  0.00  0.00     0.176 A 
ATOM      2  C   UNL d   1     -54.717-100.749 -37.786  0.00  0.00     0.174 A 
ATOM      3  N   UNL d   1     -54.725-101.835 -36.839  0.00  0.00    -0.240 N 
ATOM      4  N   UNL d   1     -54.721-100.483 -36.372  0.00  0.00    -0.223 N 
ATOM      5  C   UNL d   1     -54.725-101.307 -36.217  0.00  0.00     0.343 A 
ATOM      6  C   UNL d   1     -54.717-100.200 -37.146  0.00  0.00     0.289 A 
ATOM      7  N   UNL d   1     -54.721-102.107 -38.243  0.00  0.00    -0.206 NA
ATOM      8  N   UNL d   1     -54.713-101.017 -39.191  0.00  0.00    -0.217 NA
ATOM      9  C   UNL d   1     -54.717-101.838 -39.024  0.00  0.00     0.182 A 
ATOM     10  O   UNL d   1     -54.729-101.579 -35.431  0.00  0.00    -0.245 OA
ATOM     11  O   UNL d   1     -54.713 -99.386 -37.299  0.00  0.00    -0.265 OA
ATOM     12  C   UNL d   1     -54.729-102.653 -36.685  0.00  0.00     0.105 C 
ATOM     13  C   UNL d   1     -54.721 -99.916 -35.704  0.00  0.00     0.107 C 
ENDROOT
BRANCH   9  14
ATOM     14  C   UNL d   1     -54.718-102.514 -39.478  0.00  0.00     0.120 C 
BRANCH  14  15
ATOM     15  N   UNL d   1     -55.121-102.753 -40.127  0.00  0.00    -0.297 N 
ATOM     16  C   UNL d   1     -54.735-102.874 -40.825  0.00  0.00     0.100 C 
ATOM     17  C   UNL d   1     -55.916-102.874 -40.080  0.00  0.00     0.100 C 
ENDBRANCH  14  15
ENDBRANCH   9  14
TORSDOF 2
ENDMDL
