MODEL 1
REMARK VINA RESULT:      -1.2      0.000      0.000
REMARK  5 active torsions:
REMARK  status: ('A' for Active; 'I' for Inactive)
REMARK    1  A    between atoms: O_8  and  C_2 
REMARK    2  A    between atoms: C_9  and  C_5 
REMARK    3  A    between atoms: C_14  and  O_8 
REMARK    4  A    between atoms: N_11  and  C_9 
REMARK    5  A    between atoms: O_20  and  C_17 
ROOT
ATOM      1  C   UNL d   1      57.278  -0.301  31.548  0.00  0.00     0.108 A 
ATOM      2  C   UNL d   1      58.087  -0.583  30.121  0.00  0.00     0.161 A 
ATOM      3  C   UNL d   1      57.142  -1.009  31.120  0.00  0.00     0.064 A 
ATOM      4  C   UNL d   1      57.547  -1.147  30.409  0.00  0.00     0.222 A 
ATOM      5  C   UNL d   1      56.882  -0.162  32.248  0.00  0.00     0.079 A 
ATOM      6  O   UNL d   1      57.819   0.261  31.257  0.00  0.00    -0.305 OA
ATOM      7  C   UNL d   1      58.223   0.119  30.544  0.00  0.00     0.126 A 
ATOM      8  C   UNL d   1      56.604  -1.556  31.419  0.00  0.00     0.009 A 
ATOM      9  C   UNL d   1      56.346  -0.711  32.542  0.00  0.00     0.199 A 
ATOM     10  O   UNL d   1      57.412  -1.846  29.987  0.00  0.00    -0.284 OA
ATOM     11  C   UNL d   1      56.209  -1.410  32.124  0.00  0.00     0.042 A 
ATOM     12  O   UNL d   1      55.948  -0.567  33.250  0.00  0.00    -0.286 OA
ATOM     13  C   UNL d   1      58.761   0.682  30.258  0.00  0.00     0.029 C 
ENDROOT
BRANCH   2  14
ATOM     14  O   UNL d   1      58.486  -0.727  29.412  0.00  0.00    -0.302 OA
BRANCH  14  15
ATOM     15  C   UNL d   1      59.189  -1.160  29.406  0.00  0.00     0.102 A 
ATOM     16  C   UNL d   1      59.173  -1.961  29.237  0.00  0.00     0.049 A 
ATOM     17  C   UNL d   1      59.879  -2.392  29.231  0.00  0.00     0.096 A 
ATOM     18  C   UNL d   1      60.600  -2.016  29.395  0.00  0.00     0.024 A 
ATOM     19  C   UNL d   1      60.606  -1.205  29.565  0.00  0.00     0.004 A 
ATOM     20  C   UNL d   1      59.902  -0.781  29.570  0.00  0.00     0.025 A 
BRANCH  17  21
ATOM     21  O   UNL d   1      59.863  -3.193  29.061  0.00  0.00    -0.328 OA
ATOM     22  C   UNL d   1      60.539  -3.572  28.771  0.00  0.00     0.181 C 
ENDBRANCH  17  21
ENDBRANCH  14  15
ENDBRANCH   2  14
BRANCH   5  23
ATOM     23  C   UNL d   1      57.017   0.527  32.660  0.00  0.00     0.085 C 
BRANCH  23  24
ATOM     24  N   UNL d   1      57.247   0.588  33.440  0.00  0.00    -0.302 N 
ATOM     25  C   UNL d   1      56.752   0.626  34.085  0.00  0.00     0.080 A 
ATOM     26  C   UNL d   1      57.209   0.682  34.744  0.00  0.00     0.021 A 
ATOM     27  C   UNL d   1      57.975   0.680  34.522  0.00  0.00     0.021 A 
ATOM     28  C   UNL d   1      58.005   0.621  33.704  0.00  0.00     0.080 A 
ENDBRANCH  23  24
ENDBRANCH   5  23
TORSDOF 5
ENDMDL
