MODEL 1
REMARK VINA RESULT:      55.9      0.000      0.000
REMARK  5 active torsions:
REMARK  status: ('A' for Active; 'I' for Inactive)
REMARK    1  A    between atoms: N_10  and  C_2 
REMARK    2  A    between atoms: C_13  and  C_3 
REMARK    3  A    between atoms: C_5  and  S_14 
REMARK       I    between atoms: C_12  and  N_10 
REMARK    4  A    between atoms: C_18  and  C_12 
REMARK    5  A    between atoms: S_14  and  C_18 
ROOT
ATOM      1  N   UNL d   1     -48.723  28.195  35.088  0.00  0.00    -0.051 NA
ATOM      2  C   UNL d   1     -48.273  28.886  35.085  0.00  0.00     0.760 A 
ATOM      3  C   UNL d   1     -49.132  28.151  34.377  0.00  0.00     0.147 A 
ATOM      4  N   UNL d   1     -48.398  29.270  34.380  0.00  0.00    -0.019 NA
ATOM      5  S   UNL d   1     -48.932  28.820  33.931  0.00  0.00     0.052 SA
ENDROOT
BRANCH   2   6
ATOM      6  N   UNL d   1     -47.782  29.138  35.697  0.00  0.00    -0.018 NA
ATOM      7  C   UNL d   1     -47.525  29.921  35.732  0.00  0.00     0.302 C 
ATOM      8  O   UNL d   1     -47.037  30.172  36.340  0.00  0.00    -0.264 OA
BRANCH   7   9
ATOM      9  C   UNL d   1     -47.764  30.459  35.144  0.00  0.00     0.100 C 
BRANCH   9  10
ATOM     10  S   UNL d   1     -47.790  31.262  35.312  0.00  0.00    -0.054 SA
BRANCH  10  11
ATOM     11  C   UNL d   1     -47.641  31.813  34.723  0.00  0.00     0.164 A 
ATOM     12  S   UNL d   1     -48.176  32.363  34.434  0.00  0.00    -0.039 SA
ATOM     13  C   UNL d   1     -47.796  32.805  33.847  0.00  0.00     0.134 A 
ATOM     14  C   UNL d   1     -48.140  33.421  33.413  0.00  0.00     0.030 C 
ATOM     15  N   UNL d   1     -47.029  32.525  33.778  0.00  0.00    -0.140 NA
ATOM     16  N   UNL d   1     -46.932  31.908  34.322  0.00  0.00    -0.134 NA
ENDBRANCH  10  11
ENDBRANCH   9  10
ENDBRANCH   7   9
ENDBRANCH   2   6
BRANCH   3  17
ATOM     17  C   UNL d   1     -49.656  27.565  34.111  0.00  0.00     0.026 A 
ATOM     18  C   UNL d   1     -50.301  27.774  33.646  0.00  0.00     0.002 A 
ATOM     19  C   UNL d   1     -50.823  27.197  33.381  0.00  0.00     0.000 A 
ATOM     20  C   UNL d   1     -50.699  26.406  33.582  0.00  0.00     0.000 A 
ATOM     21  C   UNL d   1     -50.042  26.193  34.056  0.00  0.00     0.000 A 
ATOM     22  C   UNL d   1     -51.220  25.825  33.318  0.00  0.00     0.000 C 
ATOM     23  C   UNL d   1     -49.522  26.778  34.319  0.00  0.00     0.002 A 
ENDBRANCH   3  17
TORSDOF 5
ENDMDL
MODEL 2
REMARK VINA RESULT:      56.3      3.721      5.109
REMARK  5 active torsions:
REMARK  status: ('A' for Active; 'I' for Inactive)
REMARK    1  A    between atoms: N_10  and  C_2 
REMARK    2  A    between atoms: C_13  and  C_3 
REMARK    3  A    between atoms: C_5  and  S_14 
REMARK       I    between atoms: C_12  and  N_10 
REMARK    4  A    between atoms: C_18  and  C_12 
REMARK    5  A    between atoms: S_14  and  C_18 
ROOT
ATOM      1  N   UNL d   1     -50.595  26.065  34.350  0.00  0.00    -0.051 NA
ATOM      2  C   UNL d   1     -50.305  26.828  34.233  0.00  0.00     0.760 A 
ATOM      3  C   UNL d   1     -51.166  25.916  33.779  0.00  0.00     0.147 A 
ATOM      4  N   UNL d   1     -50.692  27.154  33.596  0.00  0.00    -0.019 NA
ATOM      5  S   UNL d   1     -51.230  26.593  33.306  0.00  0.00     0.052 SA
ENDROOT
BRANCH   2   6
ATOM      6  N   UNL d   1     -49.723  27.192  34.689  0.00  0.00    -0.018 NA
ATOM      7  C   UNL d   1     -49.802  27.237  35.509  0.00  0.00     0.302 C 
ATOM      8  O   UNL d   1     -49.224  27.598  35.963  0.00  0.00    -0.264 OA
BRANCH   7   9
ATOM      9  C   UNL d   1     -50.473  26.911  35.876  0.00  0.00     0.100 C 
BRANCH   9  10
ATOM     10  S   UNL d   1     -50.828  27.306  36.502  0.00  0.00    -0.054 SA
BRANCH  10  11
ATOM     11  C   UNL d   1     -50.979  26.914  37.207  0.00  0.00     0.164 A 
ATOM     12  S   UNL d   1     -51.682  26.542  37.409  0.00  0.00    -0.039 SA
ATOM     13  C   UNL d   1     -51.592  26.221  38.165  0.00  0.00     0.134 A 
ATOM     14  C   UNL d   1     -52.173  25.798  38.578  0.00  0.00     0.030 C 
ATOM     15  N   UNL d   1     -50.835  26.396  38.425  0.00  0.00    -0.140 NA
ATOM     16  N   UNL d   1     -50.453  26.826  37.830  0.00  0.00    -0.134 NA
ENDBRANCH  10  11
ENDBRANCH   9  10
ENDBRANCH   7   9
ENDBRANCH   2   6
BRANCH   3  17
ATOM     17  C   UNL d   1     -51.620  25.231  33.660  0.00  0.00     0.026 A 
ATOM     18  C   UNL d   1     -51.246  24.516  33.501  0.00  0.00     0.002 A 
ATOM     19  C   UNL d   1     -51.691  23.835  33.383  0.00  0.00     0.000 A 
ATOM     20  C   UNL d   1     -52.515  23.869  33.424  0.00  0.00     0.000 A 
ATOM     21  C   UNL d   1     -52.895  24.597  33.586  0.00  0.00     0.000 A 
ATOM     22  C   UNL d   1     -52.963  23.189  33.306  0.00  0.00     0.000 C 
ATOM     23  C   UNL d   1     -52.442  25.277  33.704  0.00  0.00     0.002 A 
ENDBRANCH   3  17
TORSDOF 5
ENDMDL
MODEL 3
REMARK VINA RESULT:      57.1      1.393      4.892
REMARK  5 active torsions:
REMARK  status: ('A' for Active; 'I' for Inactive)
REMARK    1  A    between atoms: N_10  and  C_2 
REMARK    2  A    between atoms: C_13  and  C_3 
REMARK    3  A    between atoms: C_5  and  S_14 
REMARK       I    between atoms: C_12  and  N_10 
REMARK    4  A    between atoms: C_18  and  C_12 
REMARK    5  A    between atoms: S_14  and  C_18 
ROOT
ATOM      1  N   UNL d   1     -48.231  30.190  35.414  0.00  0.00    -0.051 NA
ATOM      2  C   UNL d   1     -47.885  29.505  35.716  0.00  0.00     0.760 A 
ATOM      3  C   UNL d   1     -47.651  30.622  35.025  0.00  0.00     0.147 A 
ATOM      4  N   UNL d   1     -47.097  29.508  35.519  0.00  0.00    -0.019 NA
ATOM      5  S   UNL d   1     -46.940  30.201  35.088  0.00  0.00     0.052 SA
ENDROOT
BRANCH   2   6
ATOM      6  N   UNL d   1     -48.279  28.921  36.144  0.00  0.00    -0.018 NA
ATOM      7  C   UNL d   1     -48.788  28.396  35.764  0.00  0.00     0.302 C 
ATOM      8  O   UNL d   1     -49.180  27.815  36.188  0.00  0.00    -0.264 OA
BRANCH   7   9
ATOM      9  C   UNL d   1     -48.905  28.458  34.942  0.00  0.00     0.100 C 
BRANCH   9  10
ATOM     10  S   UNL d   1     -48.934  27.779  34.482  0.00  0.00    -0.054 SA
BRANCH  10  11
ATOM     11  C   UNL d   1     -49.613  27.592  34.062  0.00  0.00     0.164 A 
ATOM     12  S   UNL d   1     -49.941  26.843  33.988  0.00  0.00    -0.039 SA
ATOM     13  C   UNL d   1     -50.620  26.908  33.519  0.00  0.00     0.134 A 
ATOM     14  C   UNL d   1     -51.117  26.280  33.308  0.00  0.00     0.030 C 
ATOM     15  N   UNL d   1     -50.707  27.695  33.308  0.00  0.00    -0.140 NA
ATOM     16  N   UNL d   1     -50.082  28.121  33.645  0.00  0.00    -0.134 NA
ENDBRANCH  10  11
ENDBRANCH   9  10
ENDBRANCH   7   9
ENDBRANCH   2   6
BRANCH   3  17
ATOM     17  C   UNL d   1     -47.718  31.349  34.630  0.00  0.00     0.026 A 
ATOM     18  C   UNL d   1     -47.215  31.969  34.828  0.00  0.00     0.002 A 
ATOM     19  C   UNL d   1     -47.278  32.691  34.440  0.00  0.00     0.000 A 
ATOM     20  C   UNL d   1     -47.846  32.793  33.850  0.00  0.00     0.000 A 
ATOM     21  C   UNL d   1     -48.357  32.161  33.648  0.00  0.00     0.000 A 
ATOM     22  C   UNL d   1     -47.911  33.515  33.458  0.00  0.00     0.000 C 
ATOM     23  C   UNL d   1     -48.289  31.439  34.043  0.00  0.00     0.002 A 
ENDBRANCH   3  17
TORSDOF 5
ENDMDL
MODEL 4
REMARK VINA RESULT:      58.3      5.729      7.294
REMARK  5 active torsions:
REMARK  status: ('A' for Active; 'I' for Inactive)
REMARK    1  A    between atoms: N_10  and  C_2 
REMARK    2  A    between atoms: C_13  and  C_3 
REMARK    3  A    between atoms: C_5  and  S_14 
REMARK       I    between atoms: C_12  and  N_10 
REMARK    4  A    between atoms: C_18  and  C_12 
REMARK    5  A    between atoms: S_14  and  C_18 
ROOT
ATOM      1  N   UNL d   1     -52.550  24.441  33.767  0.00  0.00    -0.051 NA
ATOM      2  C   UNL d   1     -52.797  23.655  33.742  0.00  0.00     0.760 A 
ATOM      3  C   UNL d   1     -51.749  24.465  33.585  0.00  0.00     0.147 A 
ATOM      4  N   UNL d   1     -52.159  23.192  33.546  0.00  0.00    -0.019 NA
ATOM      5  S   UNL d   1     -51.500  23.687  33.445  0.00  0.00     0.052 SA
ENDROOT
BRANCH   2   6
ATOM      6  N   UNL d   1     -53.564  23.391  33.892  0.00  0.00    -0.018 NA
ATOM      7  C   UNL d   1     -53.891  23.465  34.646  0.00  0.00     0.302 C 
ATOM      8  O   UNL d   1     -54.652  23.204  34.796  0.00  0.00    -0.264 OA
BRANCH   7   9
ATOM      9  C   UNL d   1     -53.443  23.809  35.257  0.00  0.00     0.100 C 
BRANCH   9  10
ATOM     10  S   UNL d   1     -53.817  24.072  35.938  0.00  0.00    -0.054 SA
BRANCH  10  11
ATOM     11  C   UNL d   1     -53.378  24.381  36.559  0.00  0.00     0.164 A 
ATOM     12  S   UNL d   1     -53.168  25.168  36.654  0.00  0.00    -0.039 SA
ATOM     13  C   UNL d   1     -52.729  25.232  37.352  0.00  0.00     0.134 A 
ATOM     14  C   UNL d   1     -52.409  25.934  37.653  0.00  0.00     0.030 C 
ATOM     15  N   UNL d   1     -52.672  24.485  37.683  0.00  0.00    -0.140 NA
ATOM     16  N   UNL d   1     -53.075  23.955  37.191  0.00  0.00    -0.134 NA
ENDBRANCH  10  11
ENDBRANCH   9  10
ENDBRANCH   7   9
ENDBRANCH   2   6
BRANCH   3  17
ATOM     17  C   UNL d   1     -51.244  25.122  33.536  0.00  0.00     0.026 A 
ATOM     18  C   UNL d   1     -50.449  25.014  33.357  0.00  0.00     0.002 A 
ATOM     19  C   UNL d   1     -49.945  25.661  33.308  0.00  0.00     0.000 A 
ATOM     20  C   UNL d   1     -50.238  26.422  33.439  0.00  0.00     0.000 A 
ATOM     21  C   UNL d   1     -51.048  26.532  33.622  0.00  0.00     0.000 A 
ATOM     22  C   UNL d   1     -49.736  27.073  33.391  0.00  0.00     0.000 C 
ATOM     23  C   UNL d   1     -51.549  25.877  33.669  0.00  0.00     0.002 A 
ENDBRANCH   3  17
TORSDOF 5
ENDMDL
