MODEL 1
REMARK VINA RESULT:      -1.1      0.000      0.000
REMARK  3 active torsions:
REMARK  status: ('A' for Active; 'I' for Inactive)
REMARK    1  A    between atoms: C_10  and  C_2 
REMARK    2  A    between atoms: C_13  and  C_6 
REMARK    3  A    between atoms: O_17  and  C_10 
ROOT
ATOM      1  C   UNL d   1      58.476  -0.520  30.559  0.00  0.00     0.081 A 
ATOM      2  C   UNL d   1      59.028  -1.474  29.662  0.00  0.00     0.106 A 
ATOM      3  C   UNL d   1      58.359  -1.954  29.762  0.00  0.00     0.208 A 
ATOM      4  C   UNL d   1      57.814  -0.992  30.660  0.00  0.00     0.108 A 
ATOM      5  C   UNL d   1      58.534   0.208  30.964  0.00  0.00     0.281 A 
ATOM      6  C   UNL d   1      59.082  -0.757  30.063  0.00  0.00     0.015 A 
ATOM      7  O   UNL d   1      57.756  -1.709  30.261  0.00  0.00    -0.288 OA
ATOM      8  N   UNL d   1      57.925   0.452  31.467  0.00  0.00    -0.208 NA
ATOM      9  C   UNL d   1      57.204  -0.748  31.162  0.00  0.00     0.044 A 
ATOM     10  C   UNL d   1      57.255  -0.032  31.564  0.00  0.00     0.087 A 
ATOM     11  O   UNL d   1      59.203   0.681  30.861  0.00  0.00    -0.265 OA
ATOM     12  N   UNL d   1      58.311  -2.670  29.358  0.00  0.00    -0.121 N 
ATOM     13  C   UNL d   1      56.653   0.213  32.063  0.00  0.00     0.021 C 
ENDROOT
BRANCH   6  14
ATOM     14  C   UNL d   1      59.751  -0.281  29.961  0.00  0.00     0.004 A 
ATOM     15  C   UNL d   1      59.806   0.206  29.290  0.00  0.00     0.021 A 
ATOM     16  C   UNL d   1      60.471   0.681  29.186  0.00  0.00     0.099 A 
ATOM     17  N   UNL d   1      61.081   0.672  29.748  0.00  0.00    -0.242 NA
ATOM     18  C   UNL d   1      61.020   0.179  30.420  0.00  0.00     0.099 A 
ATOM     19  C   UNL d   1      60.351  -0.295  30.520  0.00  0.00     0.021 A 
ENDBRANCH   6  14
BRANCH   2  20
ATOM     20  C   UNL d   1      59.638  -1.715  29.162  0.00  0.00     0.299 C 
ATOM     21  O   UNL d   1      59.788  -1.309  28.459  0.00  0.00    -0.259 OA
BRANCH  20  22
ATOM     22  O   UNL d   1      60.107  -2.374  29.368  0.00  0.00    -0.296 OA
ATOM     23  C   UNL d   1      60.546  -2.751  28.786  0.00  0.00     0.185 C 
ENDBRANCH  20  22
ENDBRANCH   2  20
TORSDOF 3
ENDMDL
MODEL 2
REMARK VINA RESULT:      -0.9      1.186      2.461
REMARK  3 active torsions:
REMARK  status: ('A' for Active; 'I' for Inactive)
REMARK    1  A    between atoms: C_10  and  C_2 
REMARK    2  A    between atoms: C_13  and  C_6 
REMARK    3  A    between atoms: O_17  and  C_10 
ROOT
ATOM      1  C   UNL d   1      58.239   0.085  31.174  0.00  0.00     0.081 A 
ATOM      2  C   UNL d   1      59.601   0.128  30.770  0.00  0.00     0.106 A 
ATOM      3  C   UNL d   1      59.804   0.481  31.493  0.00  0.00     0.208 A 
ATOM      4  C   UNL d   1      58.436   0.433  31.889  0.00  0.00     0.108 A 
ATOM      5  C   UNL d   1      57.445  -0.115  31.012  0.00  0.00     0.281 A 
ATOM      6  C   UNL d   1      58.817  -0.068  30.614  0.00  0.00     0.015 A 
ATOM      7  O   UNL d   1      59.218   0.631  32.048  0.00  0.00    -0.288 OA
ATOM      8  N   UNL d   1      56.857   0.037  31.574  0.00  0.00    -0.208 NA
ATOM      9  C   UNL d   1      57.848   0.586  32.450  0.00  0.00     0.044 A 
ATOM     10  C   UNL d   1      57.064   0.391  32.298  0.00  0.00     0.087 A 
ATOM     11  O   UNL d   1      57.250  -0.466  30.291  0.00  0.00    -0.265 OA
ATOM     12  N   UNL d   1      60.590   0.675  31.642  0.00  0.00    -0.121 N 
ATOM     13  C   UNL d   1      56.479   0.540  32.852  0.00  0.00     0.021 C 
ENDROOT
BRANCH   6  14
ATOM     14  C   UNL d   1      58.619  -0.419  29.892  0.00  0.00     0.004 A 
ATOM     15  C   UNL d   1      58.666  -1.245  29.815  0.00  0.00     0.021 A 
ATOM     16  C   UNL d   1      58.470  -1.598  29.096  0.00  0.00     0.099 A 
ATOM     17  N   UNL d   1      58.227  -1.130  28.456  0.00  0.00    -0.242 NA
ATOM     18  C   UNL d   1      58.182  -0.300  28.541  0.00  0.00     0.099 A 
ATOM     19  C   UNL d   1      58.380   0.048  29.263  0.00  0.00     0.021 A 
ENDBRANCH   6  14
BRANCH   2  20
ATOM     20  C   UNL d   1      60.185  -0.025  30.208  0.00  0.00     0.299 C 
ATOM     21  O   UNL d   1      60.539  -0.770  30.164  0.00  0.00    -0.259 OA
BRANCH  20  22
ATOM     22  O   UNL d   1      60.420   0.577  29.679  0.00  0.00    -0.296 OA
ATOM     23  C   UNL d   1      61.133   0.504  29.280  0.00  0.00     0.185 C 
ENDBRANCH  20  22
ENDBRANCH   2  20
TORSDOF 3
ENDMDL
MODEL 3
REMARK VINA RESULT:      -0.1      1.078      2.415
REMARK  3 active torsions:
REMARK  status: ('A' for Active; 'I' for Inactive)
REMARK    1  A    between atoms: C_10  and  C_2 
REMARK    2  A    between atoms: C_13  and  C_6 
REMARK    3  A    between atoms: O_17  and  C_10 
ROOT
ATOM      1  C   UNL d   1      58.016  -1.057  30.561  0.00  0.00     0.081 A 
ATOM      2  C   UNL d   1      59.151  -0.613  29.830  0.00  0.00     0.106 A 
ATOM      3  C   UNL d   1      59.134   0.107  30.241  0.00  0.00     0.208 A 
ATOM      4  C   UNL d   1      57.997  -0.346  30.968  0.00  0.00     0.108 A 
ATOM      5  C   UNL d   1      57.448  -1.647  30.724  0.00  0.00     0.281 A 
ATOM      6  C   UNL d   1      58.590  -1.193  29.993  0.00  0.00     0.015 A 
ATOM      7  O   UNL d   1      58.555   0.235  30.808  0.00  0.00    -0.288 OA
ATOM      8  N   UNL d   1      56.866  -1.514  31.296  0.00  0.00    -0.208 NA
ATOM      9  C   UNL d   1      57.415  -0.214  31.540  0.00  0.00     0.044 A 
ATOM     10  C   UNL d   1      56.853  -0.790  31.706  0.00  0.00     0.087 A 
ATOM     11  O   UNL d   1      57.471  -2.362  30.311  0.00  0.00    -0.265 OA
ATOM     12  N   UNL d   1      59.699   0.682  30.072  0.00  0.00    -0.121 N 
ATOM     13  C   UNL d   1      56.274  -0.663  32.273  0.00  0.00     0.021 C 
ENDROOT
BRANCH   6  14
ATOM     14  C   UNL d   1      58.611  -1.910  29.581  0.00  0.00     0.004 A 
ATOM     15  C   UNL d   1      58.191  -1.982  28.868  0.00  0.00     0.021 A 
ATOM     16  C   UNL d   1      58.210  -2.695  28.455  0.00  0.00     0.099 A 
ATOM     17  N   UNL d   1      58.646  -3.336  28.752  0.00  0.00    -0.242 NA
ATOM     18  C   UNL d   1      59.066  -3.256  29.469  0.00  0.00     0.099 A 
ATOM     19  C   UNL d   1      59.044  -2.539  29.878  0.00  0.00     0.021 A 
ENDBRANCH   6  14
BRANCH   2  20
ATOM     20  C   UNL d   1      59.731  -0.749  29.258  0.00  0.00     0.299 C 
ATOM     21  O   UNL d   1      59.537  -0.743  28.455  0.00  0.00    -0.259 OA
BRANCH  20  22
ATOM     22  O   UNL d   1      60.519  -0.892  29.492  0.00  0.00    -0.296 OA
ATOM     23  C   UNL d   1      61.133  -0.628  29.017  0.00  0.00     0.185 C 
ENDBRANCH  20  22
ENDBRANCH   2  20
TORSDOF 3
ENDMDL
