MODEL 1
REMARK VINA RESULT:      51.2      0.000      0.000
REMARK  3 active torsions:
REMARK  status: ('A' for Active; 'I' for Inactive)
REMARK    1  A    between atoms: C_2  and  C_1 
REMARK       I    between atoms: N_4  and  C_2 
REMARK    2  A    between atoms: C_6  and  N_4 
REMARK    3  A    between atoms: S_12  and  C_5 
ROOT
ATOM      1  C   UNL d   1     -57.213 -99.870 -44.362  0.00  0.00     0.298 C 
ATOM      2  N   UNL d   1     -57.541 -99.417 -44.971  0.00  0.00    -0.207 NA
ATOM      3  O   UNL d   1     -57.682-100.122 -43.722  0.00  0.00    -0.264 OA
ENDROOT
BRANCH   1   4
ATOM      4  C   UNL d   1     -56.413-100.075 -44.390  0.00  0.00     0.153 A 
ATOM      5  N   UNL d   1     -56.160-100.826 -44.118  0.00  0.00    -0.216 NA
ATOM      6  C   UNL d   1     -55.354-101.025 -44.149  0.00  0.00     0.190 A 
ATOM      7  N   UNL d   1     -54.803-100.487 -44.446  0.00  0.00    -0.219 NA
ATOM      8  C   UNL d   1     -55.053 -99.744 -44.715  0.00  0.00     0.114 A 
ATOM      9  C   UNL d   1     -55.857 -99.536 -44.688  0.00  0.00     0.099 A 
ATOM     10 CL   UNL d   1     -56.104 -98.792 -44.958  0.00  0.00    -0.079 Cl
BRANCH   6  11
ATOM     11  S   UNL d   1     -55.101-101.764 -43.882  0.00  0.00    -0.075 SA
ATOM     12  C   UNL d   1     -54.713-102.285 -44.406  0.00  0.00     0.077 C 
ENDBRANCH   6  11
ENDBRANCH   1   4
BRANCH   2  13
ATOM     13  C   UNL d   1     -58.338 -99.210 -44.947  0.00  0.00     0.085 A 
ATOM     14  C   UNL d   1     -58.754 -99.085 -45.641  0.00  0.00     0.018 A 
ATOM     15  C   UNL d   1     -59.547 -98.880 -45.624  0.00  0.00     0.002 A 
ATOM     16  C   UNL d   1     -58.370 -99.168 -46.367  0.00  0.00     0.002 A 
ATOM     17  C   UNL d   1     -59.960 -98.756 -46.325  0.00  0.00     0.000 A 
ATOM     18  C   UNL d   1     -59.931 -98.797 -44.899  0.00  0.00     0.000 A 
ATOM     19  C   UNL d   1     -59.580 -98.837 -47.044  0.00  0.00     0.000 A 
ATOM     20  C   UNL d   1     -58.784 -99.043 -47.068  0.00  0.00     0.000 A 
ATOM     21  C   UNL d   1     -59.514 -98.923 -44.195  0.00  0.00     0.002 A 
ATOM     22  C   UNL d   1     -58.716 -99.129 -44.223  0.00  0.00     0.019 A 
ENDBRANCH   2  13
TORSDOF 3
ENDMDL
