MODEL 1
REMARK VINA RESULT:      57.4      0.000      0.000
REMARK  4 active torsions:
REMARK  status: ('A' for Active; 'I' for Inactive)
REMARK    1  A    between atoms: N_2  and  S_1 
REMARK    2  A    between atoms: C_8  and  S_1 
REMARK    3  A    between atoms: C_4  and  C_3 
REMARK       I    between atoms: N_5  and  C_4 
REMARK    4  A    between atoms: C_6  and  N_5 
ROOT
ATOM      1  N   UNL d   1      59.960  49.570  50.154  0.00  0.00    -0.226 N 
ATOM      2  C   UNL d   1      59.167  49.528  49.920  0.00  0.00     0.133 A 
ATOM      3  C   UNL d   1      60.426  49.634  49.479  0.00  0.00     0.092 A 
ATOM      4  C   UNL d   1      59.146  49.567  49.095  0.00  0.00     0.025 A 
ATOM      5  C   UNL d   1      59.924  49.632  48.828  0.00  0.00     0.021 A 
ENDROOT
BRANCH   1   6
ATOM      6  S   UNL d   1      60.171  49.545  50.954  0.00  0.00     0.271 S 
ATOM      7  O   UNL d   1      60.977  49.480  50.791  0.00  0.00    -0.200 OA
ATOM      8  O   UNL d   1      59.362  49.611  51.105  0.00  0.00    -0.200 OA
BRANCH   6   9
ATOM      9  C   UNL d   1      60.327  49.525  51.759  0.00  0.00     0.104 A 
ATOM     10  C   UNL d   1      61.082  49.322  52.025  0.00  0.00     0.013 A 
ATOM     11  C   UNL d   1      61.243  49.300  52.834  0.00  0.00     0.001 A 
ATOM     12  C   UNL d   1      60.646  49.483  53.378  0.00  0.00     0.000 A 
ATOM     13  C   UNL d   1      59.891  49.686  53.108  0.00  0.00     0.001 A 
ATOM     14  C   UNL d   1      60.807  49.461  54.187  0.00  0.00     0.000 C 
ATOM     15  C   UNL d   1      59.733  49.706  52.299  0.00  0.00     0.013 A 
ENDBRANCH   6   9
ENDBRANCH   1   6
BRANCH   2  16
ATOM     16  C   UNL d   1      58.511  49.460  50.422  0.00  0.00     0.298 C 
ATOM     17  N   UNL d   1      57.800  49.158  50.121  0.00  0.00    -0.181 NA
ATOM     18  O   UNL d   1      58.571  49.691  51.208  0.00  0.00    -0.264 OA
BRANCH  17  19
ATOM     19  C   UNL d   1      57.147  49.090  50.622  0.00  0.00     0.197 A 
ATOM     20  N   UNL d   1      56.890  48.390  50.979  0.00  0.00    -0.219 NA
ATOM     21  C   UNL d   1      56.227  48.573  51.430  0.00  0.00     0.108 A 
ATOM     22  C   UNL d   1      56.071  49.377  51.355  0.00  0.00     0.059 A 
ATOM     23  S   UNL d   1      56.645  49.699  50.851  0.00  0.00    -0.046 SA
ENDBRANCH  17  19
ENDBRANCH   2  16
TORSDOF 4
ENDMDL
MODEL 2
REMARK VINA RESULT:      58.6      1.486      2.420
REMARK  4 active torsions:
REMARK  status: ('A' for Active; 'I' for Inactive)
REMARK    1  A    between atoms: N_2  and  S_1 
REMARK    2  A    between atoms: C_8  and  S_1 
REMARK    3  A    between atoms: C_4  and  C_3 
REMARK       I    between atoms: N_5  and  C_4 
REMARK    4  A    between atoms: C_6  and  N_5 
ROOT
ATOM      1  N   UNL d   1      57.352  49.505  49.757  0.00  0.00    -0.226 N 
ATOM      2  C   UNL d   1      56.631  49.361  50.137  0.00  0.00     0.133 A 
ATOM      3  C   UNL d   1      57.204  49.619  48.956  0.00  0.00     0.092 A 
ATOM      4  C   UNL d   1      56.035  49.386  49.566  0.00  0.00     0.025 A 
ATOM      5  C   UNL d   1      56.393  49.546  48.840  0.00  0.00     0.021 A 
ENDROOT
BRANCH   1   6
ATOM      6  S   UNL d   1      58.063  49.516  50.180  0.00  0.00     0.271 S 
ATOM      7  O   UNL d   1      57.691  49.679  50.899  0.00  0.00    -0.200 OA
ATOM      8  O   UNL d   1      58.424  49.354  49.457  0.00  0.00    -0.200 OA
BRANCH   6   9
ATOM      9  C   UNL d   1      58.794  49.517  50.554  0.00  0.00     0.104 A 
ATOM     10  C   UNL d   1      59.484  49.574  50.105  0.00  0.00     0.013 A 
ATOM     11  C   UNL d   1      60.220  49.575  50.477  0.00  0.00     0.001 A 
ATOM     12  C   UNL d   1      60.264  49.519  51.303  0.00  0.00     0.000 A 
ATOM     13  C   UNL d   1      59.570  49.463  51.750  0.00  0.00     0.001 A 
ATOM     14  C   UNL d   1      61.000  49.521  51.675  0.00  0.00     0.000 C 
ATOM     15  C   UNL d   1      58.836  49.462  51.374  0.00  0.00     0.013 A 
ENDBRANCH   6   9
ENDBRANCH   1   6
BRANCH   2  16
ATOM     16  C   UNL d   1      56.524  49.216  50.947  0.00  0.00     0.298 C 
ATOM     17  N   UNL d   1      56.901  49.705  51.500  0.00  0.00    -0.181 NA
ATOM     18  O   UNL d   1      56.048  48.593  51.192  0.00  0.00    -0.264 OA
BRANCH  17  19
ATOM     19  C   UNL d   1      56.794  49.560  52.305  0.00  0.00     0.197 A 
ATOM     20  N   UNL d   1      57.401  49.464  52.858  0.00  0.00    -0.219 NA
ATOM     21  C   UNL d   1      57.049  49.330  53.589  0.00  0.00     0.108 A 
ATOM     22  C   UNL d   1      56.233  49.342  53.495  0.00  0.00     0.059 A 
ATOM     23  S   UNL d   1      56.073  49.485  52.694  0.00  0.00    -0.046 SA
ENDBRANCH  17  19
ENDBRANCH   2  16
TORSDOF 4
ENDMDL
