MODEL 1
REMARK VINA RESULT:      11.9      0.000      0.000
REMARK  8 active torsions:
REMARK  status: ('A' for Active; 'I' for Inactive)
REMARK    1  A    between atoms: C_2  and  S_1 
REMARK    2  A    between atoms: N_11  and  S_1 
REMARK    3  A    between atoms: C_10  and  C_3 
REMARK    4  A    between atoms: N_6  and  C_18 
REMARK    5  A    between atoms: C_20  and  N_11 
REMARK    6  A    between atoms: O_17  and  C_12 
REMARK    7  A    between atoms: C_18  and  C_19 
REMARK    8  A    between atoms: C_19  and  C_20 
ROOT
ATOM      1  C   UNL d   1      45.450 -14.855  44.334  0.00  0.00     0.105 A 
ATOM      2  C   UNL d   1      45.621 -13.436  44.336  0.00  0.00     0.000 A 
ATOM      3  C   UNL d   1      45.807 -14.177  44.645  0.00  0.00     0.011 A 
ATOM      4  C   UNL d   1      45.078 -13.373  43.716  0.00  0.00     0.090 A 
ATOM      5  C   UNL d   1      44.905 -14.793  43.712  0.00  0.00     0.015 A 
ATOM      6  C   UNL d   1      44.719 -14.052  43.403  0.00  0.00     0.025 A 
ENDROOT
BRANCH   1   7
ATOM      7  S   UNL d   1      45.636 -15.595  44.643  0.00  0.00     0.285 S 
ATOM      8  O   UNL d   1      46.351 -15.298  44.925  0.00  0.00    -0.198 OA
ATOM      9  O   UNL d   1      44.921 -15.892  44.362  0.00  0.00    -0.198 OA
BRANCH   7  10
ATOM     10  N   UNL d   1      45.823 -16.340  44.954  0.00  0.00    -0.157 NA
BRANCH  10  11
ATOM     11  C   UNL d   1      46.354 -16.833  44.550  0.00  0.00     0.114 C 
BRANCH  11  12
ATOM     12  C   UNL d   1      46.230 -17.648  44.541  0.00  0.00     0.041 C 
BRANCH  12  13
ATOM     13  C   UNL d   1      46.636 -18.128  44.006  0.00  0.00     0.083 C 
BRANCH  13  14
ATOM     14  N   UNL d   1      46.439 -18.924  43.925  0.00  0.00    -0.285 N 
ATOM     15  C   UNL d   1      46.229 -19.431  44.539  0.00  0.00     0.183 A 
ATOM     16  N   UNL d   1      46.078 -20.174  44.206  0.00  0.00    -0.222 NA
ATOM     17  C   UNL d   1      46.195 -20.120  43.393  0.00  0.00     0.120 A 
ATOM     18  C   UNL d   1      46.420 -19.343  43.220  0.00  0.00     0.102 A 
ENDBRANCH  13  14
ENDBRANCH  12  13
ENDBRANCH  11  12
ENDBRANCH  10  11
ENDBRANCH   7  10
ENDBRANCH   1   7
BRANCH   2  19
ATOM     19  C   UNL d   1      45.975 -12.761  44.644  0.00  0.00     0.021 C 
ATOM     20  C   UNL d   1      46.330 -12.089  44.951  0.00  0.00     0.004 C 
ATOM     21  C   UNL d   1      45.310 -12.320  44.442  0.00  0.00     0.004 C 
ATOM     22  C   UNL d   1      46.645 -13.197  44.849  0.00  0.00     0.004 C 
ENDBRANCH   2  19
BRANCH   4  23
ATOM     23  O   UNL d   1      44.891 -12.631  43.407  0.00  0.00    -0.328 OA
ATOM     24  C   UNL d   1      44.616 -12.566  42.631  0.00  0.00     0.181 C 
ENDBRANCH   4  23
TORSDOF 8
ENDMDL
MODEL 2
REMARK VINA RESULT:      13.4      1.646      5.374
REMARK  8 active torsions:
REMARK  status: ('A' for Active; 'I' for Inactive)
REMARK    1  A    between atoms: C_2  and  S_1 
REMARK    2  A    between atoms: N_11  and  S_1 
REMARK    3  A    between atoms: C_10  and  C_3 
REMARK    4  A    between atoms: N_6  and  C_18 
REMARK    5  A    between atoms: C_20  and  N_11 
REMARK    6  A    between atoms: O_17  and  C_12 
REMARK    7  A    between atoms: C_18  and  C_19 
REMARK    8  A    between atoms: C_19  and  C_20 
ROOT
ATOM      1  C   UNL d   1      45.976 -17.393  44.372  0.00  0.00     0.105 A 
ATOM      2  C   UNL d   1      46.257 -18.307  43.310  0.00  0.00     0.000 A 
ATOM      3  C   UNL d   1      46.165 -17.533  43.580  0.00  0.00     0.011 A 
ATOM      4  C   UNL d   1      46.161 -18.939  43.832  0.00  0.00     0.090 A 
ATOM      5  C   UNL d   1      45.880 -18.028  44.897  0.00  0.00     0.015 A 
ATOM      6  C   UNL d   1      45.972 -18.801  44.628  0.00  0.00     0.025 A 
ENDROOT
BRANCH   1   7
ATOM      7  S   UNL d   1      45.884 -16.620  44.641  0.00  0.00     0.285 S 
ATOM      8  O   UNL d   1      45.122 -16.602  44.329  0.00  0.00    -0.198 OA
ATOM      9  O   UNL d   1      46.646 -16.638  44.954  0.00  0.00    -0.198 OA
BRANCH   7  10
ATOM     10  N   UNL d   1      45.791 -15.843  44.913  0.00  0.00    -0.157 NA
BRANCH  10  11
ATOM     11  C   UNL d   1      45.286 -15.324  44.509  0.00  0.00     0.114 C 
BRANCH  11  12
ATOM     12  C   UNL d   1      45.432 -14.513  44.529  0.00  0.00     0.041 C 
BRANCH  12  13
ATOM     13  C   UNL d   1      44.826 -13.973  44.375  0.00  0.00     0.083 C 
BRANCH  13  14
ATOM     14  N   UNL d   1      44.970 -13.300  43.922  0.00  0.00    -0.285 N 
ATOM     15  C   UNL d   1      45.567 -12.749  44.059  0.00  0.00     0.183 A 
ATOM     16  N   UNL d   1      45.507 -12.168  43.473  0.00  0.00    -0.222 NA
ATOM     17  C   UNL d   1      44.875 -12.363  42.981  0.00  0.00     0.120 A 
ATOM     18  C   UNL d   1      44.543 -13.067  43.262  0.00  0.00     0.102 A 
ENDBRANCH  13  14
ENDBRANCH  12  13
ENDBRANCH  11  12
ENDBRANCH  10  11
ENDBRANCH   7  10
ENDBRANCH   1   7
BRANCH   2  19
ATOM     19  C   UNL d   1      46.444 -18.448  42.521  0.00  0.00     0.021 C 
ATOM     20  C   UNL d   1      46.631 -18.586  41.735  0.00  0.00     0.004 C 
ATOM     21  C   UNL d   1      46.388 -19.258  42.653  0.00  0.00     0.004 C 
ATOM     22  C   UNL d   1      46.503 -17.636  42.382  0.00  0.00     0.004 C 
ENDBRANCH   2  19
BRANCH   4  23
ATOM     23  O   UNL d   1      46.254 -19.713  43.562  0.00  0.00    -0.328 OA
ATOM     24  C   UNL d   1      46.354 -20.329  44.103  0.00  0.00     0.181 C 
ENDBRANCH   4  23
TORSDOF 8
ENDMDL
