MODEL 1
REMARK VINA RESULT:      -9.5      0.000      0.000
REMARK  2 active torsions:
REMARK  status: ('A' for Active; 'I' for Inactive)
REMARK    1  A    between atoms: C_11  and  N_1 
REMARK    2  A    between atoms: C_15  and  C_11 
ROOT
ATOM      1  N   UNL d   1     -48.355  13.533  22.415  0.00  0.00    -0.244 N 
ATOM      2  C   UNL d   1     -47.574  13.604  22.680  0.00  0.00     0.246 A 
ATOM      3  C   UNL d   1     -47.350  12.888  23.034  0.00  0.00     0.095 A 
ATOM      4  C   UNL d   1     -48.619  12.765  22.605  0.00  0.00     0.260 A 
ATOM      5  C   UNL d   1     -47.998  12.368  22.988  0.00  0.00     0.024 A 
ATOM      6  C   UNL d   1     -46.652  12.644  23.388  0.00  0.00     0.034 A 
ATOM      7  C   UNL d   1     -47.938  11.610  23.296  0.00  0.00     0.045 A 
ATOM      8  C   UNL d   1     -46.592  11.886  23.697  0.00  0.00    -0.030 A 
ATOM      9  C   UNL d   1     -47.234  11.370  23.651  0.00  0.00    -0.027 A 
ATOM     10  C   UNL d   1     -47.388  12.294  23.244  0.00  0.00     0.014 A 
ATOM     11  O   UNL d   1     -47.092  14.278  22.606  0.00  0.00    -0.271 OA
ATOM     12  O   UNL d   1     -49.369  12.450  22.443  0.00  0.00    -0.267 OA
ATOM     13  C   UNL d   1     -46.842  13.544  22.978  0.00  0.00     0.014 C 
ENDROOT
BRANCH   1  14
ATOM     14  C   UNL d   1     -48.791  14.117  22.031  0.00  0.00     0.086 C 
BRANCH  14  15
ATOM     15  C   UNL d   1     -49.338  14.561  22.453  0.00  0.00     0.018 A 
ATOM     16  C   UNL d   1     -49.097  15.229  22.857  0.00  0.00     0.002 A 
ATOM     17  C   UNL d   1     -49.643  15.673  23.279  0.00  0.00     0.000 A 
ATOM     18  C   UNL d   1     -50.441  15.443  23.295  0.00  0.00     0.000 A 
ATOM     19  C   UNL d   1     -50.680  14.767  22.886  0.00  0.00     0.000 A 
ATOM     20  C   UNL d   1     -50.127  14.329  22.466  0.00  0.00     0.002 A 
ENDBRANCH  14  15
ENDBRANCH   1  14
TORSDOF 2
ENDMDL
MODEL 2
REMARK VINA RESULT:      -9.1      1.629      2.971
REMARK  2 active torsions:
REMARK  status: ('A' for Active; 'I' for Inactive)
REMARK    1  A    between atoms: C_11  and  N_1 
REMARK    2  A    between atoms: C_15  and  C_11 
ROOT
ATOM      1  N   UNL d   1     -48.523  12.545  22.232  0.00  0.00    -0.244 N 
ATOM      2  C   UNL d   1     -49.262  12.863  22.040  0.00  0.00     0.246 A 
ATOM      3  C   UNL d   1     -49.830  12.538  22.551  0.00  0.00     0.095 A 
ATOM      4  C   UNL d   1     -48.631  12.017  22.869  0.00  0.00     0.260 A 
ATOM      5  C   UNL d   1     -49.438  12.013  23.065  0.00  0.00     0.024 A 
ATOM      6  C   UNL d   1     -50.640  12.648  22.616  0.00  0.00     0.034 A 
ATOM      7  C   UNL d   1     -49.862  11.607  23.637  0.00  0.00     0.045 A 
ATOM      8  C   UNL d   1     -51.064  12.241  23.188  0.00  0.00    -0.030 A 
ATOM      9  C   UNL d   1     -50.676  11.721  23.698  0.00  0.00    -0.027 A 
ATOM     10  C   UNL d   1     -50.078  12.188  23.015  0.00  0.00     0.014 A 
ATOM     11  O   UNL d   1     -49.416  13.415  21.437  0.00  0.00    -0.271 OA
ATOM     12  O   UNL d   1     -48.039  11.573  23.244  0.00  0.00    -0.267 OA
ATOM     13  C   UNL d   1     -50.018  13.089  21.958  0.00  0.00     0.014 C 
ENDROOT
BRANCH   1  14
ATOM     14  C   UNL d   1     -47.809  12.720  21.860  0.00  0.00     0.086 C 
BRANCH  14  15
ATOM     15  C   UNL d   1     -47.273  13.226  22.223  0.00  0.00     0.018 A 
ATOM     16  C   UNL d   1     -47.406  14.032  22.220  0.00  0.00     0.002 A 
ATOM     17  C   UNL d   1     -46.871  14.538  22.582  0.00  0.00     0.000 A 
ATOM     18  C   UNL d   1     -46.195  14.230  22.952  0.00  0.00     0.000 A 
ATOM     19  C   UNL d   1     -46.064  13.415  22.954  0.00  0.00     0.000 A 
ATOM     20  C   UNL d   1     -46.605  12.917  22.589  0.00  0.00     0.002 A 
ENDBRANCH  14  15
ENDBRANCH   1  14
TORSDOF 2
ENDMDL
MODEL 3
REMARK VINA RESULT:      -9.1      0.624      3.381
REMARK  2 active torsions:
REMARK  status: ('A' for Active; 'I' for Inactive)
REMARK    1  A    between atoms: C_11  and  N_1 
REMARK    2  A    between atoms: C_15  and  C_11 
ROOT
ATOM      1  N   UNL d   1     -48.871  13.564  22.542  0.00  0.00    -0.244 N 
ATOM      2  C   UNL d   1     -48.739  14.382  22.534  0.00  0.00     0.246 A 
ATOM      3  C   UNL d   1     -49.376  14.755  22.911  0.00  0.00     0.095 A 
ATOM      4  C   UNL d   1     -49.597  13.429  22.928  0.00  0.00     0.260 A 
ATOM      5  C   UNL d   1     -49.909  14.164  23.156  0.00  0.00     0.024 A 
ATOM      6  C   UNL d   1     -49.541  15.544  23.062  0.00  0.00     0.034 A 
ATOM      7  C   UNL d   1     -50.598  14.370  23.548  0.00  0.00     0.045 A 
ATOM      8  C   UNL d   1     -50.231  15.751  23.455  0.00  0.00    -0.030 A 
ATOM      9  C   UNL d   1     -50.759  15.165  23.698  0.00  0.00    -0.027 A 
ATOM     10  C   UNL d   1     -49.925  14.827  23.216  0.00  0.00     0.014 A 
ATOM     11  O   UNL d   1     -48.079  14.767  22.204  0.00  0.00    -0.271 OA
ATOM     12  O   UNL d   1     -49.950  12.690  23.064  0.00  0.00    -0.267 OA
ATOM     13  C   UNL d   1     -48.732  15.172  22.592  0.00  0.00     0.014 C 
ENDROOT
BRANCH   1  14
ATOM     14  C   UNL d   1     -48.372  12.990  22.225  0.00  0.00     0.086 C 
BRANCH  14  15
ATOM     15  C   UNL d   1     -47.854  12.584  22.716  0.00  0.00     0.018 A 
ATOM     16  C   UNL d   1     -48.090  11.890  23.076  0.00  0.00     0.002 A 
ATOM     17  C   UNL d   1     -47.572  11.485  23.567  0.00  0.00     0.000 A 
ATOM     18  C   UNL d   1     -46.808  11.780  23.698  0.00  0.00     0.000 A 
ATOM     19  C   UNL d   1     -46.573  12.482  23.333  0.00  0.00     0.000 A 
ATOM     20  C   UNL d   1     -47.097  12.881  22.843  0.00  0.00     0.002 A 
ENDBRANCH  14  15
ENDBRANCH   1  14
TORSDOF 2
ENDMDL
