MODEL 1
REMARK VINA RESULT:      -7.9      0.000      0.000
REMARK  7 active torsions:
REMARK  status: ('A' for Active; 'I' for Inactive)
REMARK    1  A    between atoms: C_7  and  C_1 
REMARK    2  A    between atoms: C_8  and  C_2 
REMARK    3  A    between atoms: C_10  and  C_3 
REMARK    4  A    between atoms: O_14  and  C_7 
REMARK    5  A    between atoms: O_15  and  C_8 
REMARK    6  A    between atoms: C_19  and  O_14 
REMARK    7  A    between atoms: C_20  and  O_15 
ROOT
ATOM      1  C   UNL d   1     -48.652  14.073  22.700  0.00  0.00     0.100 A 
ATOM      2  C   UNL d   1     -47.229  13.974  22.771  0.00  0.00     0.103 A 
ATOM      3  C   UNL d   1     -47.975  13.612  22.779  0.00  0.00     0.016 A 
ATOM      4  C   UNL d   1     -48.590  14.899  22.614  0.00  0.00     0.171 A 
ATOM      5  C   UNL d   1     -47.167  14.801  22.685  0.00  0.00     0.204 A 
ATOM      6  C   UNL d   1     -47.852  15.262  22.607  0.00  0.00     0.081 A 
ATOM      7  O   UNL d   1     -46.579  15.162  22.672  0.00  0.00    -0.286 OA
ATOM      8  O   UNL d   1     -49.227  14.749  22.604  0.00  0.00    -0.289 OA
ATOM      9  C   UNL d   1     -48.777  15.490  22.543  0.00  0.00     0.042 C 
ENDROOT
BRANCH   3  10
ATOM     10  C   UNL d   1     -48.036  12.801  22.863  0.00  0.00     0.001 A 
ATOM     11  C   UNL d   1     -48.079  12.460  23.612  0.00  0.00     0.000 A 
ATOM     12  C   UNL d   1     -48.140  11.641  23.698  0.00  0.00     0.000 A 
ATOM     13  C   UNL d   1     -48.158  11.158  23.034  0.00  0.00     0.000 A 
ATOM     14  C   UNL d   1     -48.115  11.492  22.278  0.00  0.00     0.000 A 
ATOM     15  C   UNL d   1     -48.054  12.310  22.192  0.00  0.00     0.000 A 
ENDBRANCH   3  10
BRANCH   2  16
ATOM     16  C   UNL d   1     -46.549  13.513  22.850  0.00  0.00     0.303 C 
ATOM     17  O   UNL d   1     -46.306  13.235  23.592  0.00  0.00    -0.259 OA
BRANCH  16  18
ATOM     18  O   UNL d   1     -46.088  13.313  22.199  0.00  0.00    -0.271 OA
BRANCH  18  19
ATOM     19  C   UNL d   1     -45.261  13.276  22.269  0.00  0.00     0.126 C 
ATOM     20  C   UNL d   1     -44.813  12.870  21.702  0.00  0.00     0.029 C 
ENDBRANCH  18  19
ENDBRANCH  16  18
ENDBRANCH   2  16
BRANCH   1  21
ATOM     21  C   UNL d   1     -49.395  13.711  22.708  0.00  0.00     0.303 C 
ATOM     22  O   UNL d   1     -49.732  13.501  23.413  0.00  0.00    -0.259 OA
BRANCH  21  23
ATOM     23  O   UNL d   1     -49.813  13.553  22.009  0.00  0.00    -0.271 OA
BRANCH  23  24
ATOM     24  C   UNL d   1     -50.629  13.457  22.028  0.00  0.00     0.126 C 
ATOM     25  C   UNL d   1     -51.046  13.324  21.324  0.00  0.00     0.029 C 
ENDBRANCH  23  24
ENDBRANCH  21  23
ENDBRANCH   1  21
TORSDOF 7
ENDMDL
MODEL 2
REMARK VINA RESULT:      -7.7      0.920      3.849
REMARK  7 active torsions:
REMARK  status: ('A' for Active; 'I' for Inactive)
REMARK    1  A    between atoms: C_7  and  C_1 
REMARK    2  A    between atoms: C_8  and  C_2 
REMARK    3  A    between atoms: C_10  and  C_3 
REMARK    4  A    between atoms: O_14  and  C_7 
REMARK    5  A    between atoms: O_15  and  C_8 
REMARK    6  A    between atoms: C_19  and  O_14 
REMARK    7  A    between atoms: C_20  and  O_15 
ROOT
ATOM      1  C   UNL d   1     -47.116  12.562  23.197  0.00  0.00     0.100 A 
ATOM      2  C   UNL d   1     -48.534  12.396  23.237  0.00  0.00     0.103 A 
ATOM      3  C   UNL d   1     -47.870  12.864  23.068  0.00  0.00     0.016 A 
ATOM      4  C   UNL d   1     -47.017  11.791  23.496  0.00  0.00     0.171 A 
ATOM      5  C   UNL d   1     -48.435  11.625  23.537  0.00  0.00     0.204 A 
ATOM      6  C   UNL d   1     -47.673  11.324  23.666  0.00  0.00     0.081 A 
ATOM      7  O   UNL d   1     -48.944  11.186  23.698  0.00  0.00    -0.286 OA
ATOM      8  O   UNL d   1     -46.420  12.044  23.408  0.00  0.00    -0.289 OA
ATOM      9  C   UNL d   1     -46.719  11.282  23.698  0.00  0.00     0.042 C 
ENDROOT
BRANCH   3  10
ATOM     10  C   UNL d   1     -47.967  13.621  22.773  0.00  0.00     0.001 A 
ATOM     11  C   UNL d   1     -47.990  13.754  21.960  0.00  0.00     0.000 A 
ATOM     12  C   UNL d   1     -48.088  14.518  21.663  0.00  0.00     0.000 A 
ATOM     13  C   UNL d   1     -48.164  15.153  22.178  0.00  0.00     0.000 A 
ATOM     14  C   UNL d   1     -48.142  15.029  22.996  0.00  0.00     0.000 A 
ATOM     15  C   UNL d   1     -48.044  14.265  23.293  0.00  0.00     0.000 A 
ENDBRANCH   3  10
BRANCH   2  16
ATOM     16  C   UNL d   1     -49.291  12.697  23.108  0.00  0.00     0.303 C 
ATOM     17  O   UNL d   1     -49.660  13.180  23.672  0.00  0.00    -0.259 OA
BRANCH  16  18
ATOM     18  O   UNL d   1     -49.708  12.532  22.419  0.00  0.00    -0.271 OA
BRANCH  18  19
ATOM     19  C   UNL d   1     -50.538  12.569  22.415  0.00  0.00     0.126 C 
ATOM     20  C   UNL d   1     -50.954  12.489  21.702  0.00  0.00     0.029 C 
ENDBRANCH  18  19
ENDBRANCH  16  18
ENDBRANCH   2  16
BRANCH   1  21
ATOM     21  C   UNL d   1     -46.455  13.029  23.027  0.00  0.00     0.303 C 
ATOM     22  O   UNL d   1     -46.229  13.607  23.546  0.00  0.00    -0.259 OA
BRANCH  21  23
ATOM     23  O   UNL d   1     -46.011  12.925  22.334  0.00  0.00    -0.271 OA
BRANCH  23  24
ATOM     24  C   UNL d   1     -45.270  13.275  22.263  0.00  0.00     0.126 C 
ATOM     25  C   UNL d   1     -44.748  13.018  21.672  0.00  0.00     0.029 C 
ENDBRANCH  23  24
ENDBRANCH  21  23
ENDBRANCH   1  21
TORSDOF 7
ENDMDL
MODEL 3
REMARK VINA RESULT:      -7.5      0.879      2.416
REMARK  7 active torsions:
REMARK  status: ('A' for Active; 'I' for Inactive)
REMARK    1  A    between atoms: C_7  and  C_1 
REMARK    2  A    between atoms: C_8  and  C_2 
REMARK    3  A    between atoms: C_10  and  C_3 
REMARK    4  A    between atoms: O_14  and  C_7 
REMARK    5  A    between atoms: O_15  and  C_8 
REMARK    6  A    between atoms: C_19  and  O_14 
REMARK    7  A    between atoms: C_20  and  O_15 
ROOT
ATOM      1  C   UNL d   1     -48.488  12.385  23.188  0.00  0.00     0.100 A 
ATOM      2  C   UNL d   1     -47.079  12.616  23.187  0.00  0.00     0.103 A 
ATOM      3  C   UNL d   1     -47.850  12.882  23.038  0.00  0.00     0.016 A 
ATOM      4  C   UNL d   1     -48.362  11.618  23.488  0.00  0.00     0.171 A 
ATOM      5  C   UNL d   1     -46.953  11.849  23.487  0.00  0.00     0.204 A 
ATOM      6  C   UNL d   1     -47.599  11.351  23.637  0.00  0.00     0.081 A 
ATOM      7  O   UNL d   1     -46.338  11.568  23.632  0.00  0.00    -0.286 OA
ATOM      8  O   UNL d   1     -49.008  11.697  23.418  0.00  0.00    -0.289 OA
ATOM      9  C   UNL d   1     -48.502  11.048  23.696  0.00  0.00     0.042 C 
ENDROOT
BRANCH   3  10
ATOM     10  C   UNL d   1     -47.974  13.635  22.744  0.00  0.00     0.001 A 
ATOM     11  C   UNL d   1     -47.988  13.770  21.931  0.00  0.00     0.000 A 
ATOM     12  C   UNL d   1     -48.113  14.530  21.634  0.00  0.00     0.000 A 
ATOM     13  C   UNL d   1     -48.224  15.160  22.148  0.00  0.00     0.000 A 
ATOM     14  C   UNL d   1     -48.211  15.034  22.966  0.00  0.00     0.000 A 
ATOM     15  C   UNL d   1     -48.086  14.275  23.263  0.00  0.00     0.000 A 
ENDBRANCH   3  10
BRANCH   2  16
ATOM     16  C   UNL d   1     -46.438  13.114  23.037  0.00  0.00     0.303 C 
ATOM     17  O   UNL d   1     -46.201  13.683  23.592  0.00  0.00    -0.259 OA
BRANCH  16  18
ATOM     18  O   UNL d   1     -46.010  13.066  22.337  0.00  0.00    -0.271 OA
BRANCH  18  19
ATOM     19  C   UNL d   1     -45.209  13.286  22.320  0.00  0.00     0.126 C 
ATOM     20  C   UNL d   1     -44.722  13.038  21.697  0.00  0.00     0.029 C 
ENDBRANCH  18  19
ENDBRANCH  16  18
ENDBRANCH   2  16
BRANCH   1  21
ATOM     21  C   UNL d   1     -49.256  12.652  23.039  0.00  0.00     0.303 C 
ATOM     22  O   UNL d   1     -49.637  13.105  23.590  0.00  0.00    -0.259 OA
BRANCH  21  23
ATOM     23  O   UNL d   1     -49.655  12.468  22.335  0.00  0.00    -0.271 OA
BRANCH  23  24
ATOM     24  C   UNL d   1     -50.473  12.544  22.293  0.00  0.00     0.126 C 
ATOM     25  C   UNL d   1     -50.852  12.511  21.556  0.00  0.00     0.029 C 
ENDBRANCH  23  24
ENDBRANCH  21  23
ENDBRANCH   1  21
TORSDOF 7
ENDMDL
MODEL 4
REMARK VINA RESULT:      -6.9      1.211      1.797
REMARK  7 active torsions:
REMARK  status: ('A' for Active; 'I' for Inactive)
REMARK    1  A    between atoms: C_7  and  C_1 
REMARK    2  A    between atoms: C_8  and  C_2 
REMARK    3  A    between atoms: C_10  and  C_3 
REMARK    4  A    between atoms: O_14  and  C_7 
REMARK    5  A    between atoms: O_15  and  C_8 
REMARK    6  A    between atoms: C_19  and  O_14 
REMARK    7  A    between atoms: C_20  and  O_15 
ROOT
ATOM      1  C   UNL d   1     -48.113  14.220  22.597  0.00  0.00     0.100 A 
ATOM      2  C   UNL d   1     -47.257  13.079  22.669  0.00  0.00     0.103 A 
ATOM      3  C   UNL d   1     -48.020  13.404  22.629  0.00  0.00     0.016 A 
ATOM      4  C   UNL d   1     -47.447  14.720  22.603  0.00  0.00     0.171 A 
ATOM      5  C   UNL d   1     -46.591  13.579  22.676  0.00  0.00     0.204 A 
ATOM      6  C   UNL d   1     -46.690  14.402  22.643  0.00  0.00     0.081 A 
ATOM      7  O   UNL d   1     -45.932  13.373  22.708  0.00  0.00    -0.286 OA
ATOM      8  O   UNL d   1     -47.977  15.102  22.570  0.00  0.00    -0.289 OA
ATOM      9  C   UNL d   1     -47.122  15.252  22.596  0.00  0.00     0.042 C 
ENDROOT
BRANCH   3  10
ATOM     10  C   UNL d   1     -48.674  12.912  22.623  0.00  0.00     0.001 A 
ATOM     11  C   UNL d   1     -48.995  12.634  23.329  0.00  0.00     0.000 A 
ATOM     12  C   UNL d   1     -49.655  12.138  23.322  0.00  0.00     0.000 A 
ATOM     13  C   UNL d   1     -49.998  11.918  22.609  0.00  0.00     0.000 A 
ATOM     14  C   UNL d   1     -49.682  12.193  21.895  0.00  0.00     0.000 A 
ATOM     15  C   UNL d   1     -49.022  12.689  21.902  0.00  0.00     0.000 A 
ENDBRANCH   3  10
BRANCH   2  16
ATOM     16  C   UNL d   1     -47.162  12.260  22.702  0.00  0.00     0.303 C 
ATOM     17  O   UNL d   1     -47.356  11.782  22.053  0.00  0.00    -0.259 OA
BRANCH  16  18
ATOM     18  O   UNL d   1     -46.873  11.888  23.375  0.00  0.00    -0.271 OA
BRANCH  18  19
ATOM     19  C   UNL d   1     -46.584  11.110  23.331  0.00  0.00     0.126 C 
ATOM     20  C   UNL d   1     -45.868  10.910  23.698  0.00  0.00     0.029 C 
ENDBRANCH  18  19
ENDBRANCH  16  18
ENDBRANCH   2  16
BRANCH   1  21
ATOM     21  C   UNL d   1     -48.873  14.542  22.557  0.00  0.00     0.303 C 
ATOM     22  O   UNL d   1     -49.271  14.546  21.852  0.00  0.00    -0.259 OA
BRANCH  21  23
ATOM     23  O   UNL d   1     -49.248  14.866  23.223  0.00  0.00    -0.271 OA
BRANCH  23  24
ATOM     24  C   UNL d   1     -49.779  15.488  23.136  0.00  0.00     0.126 C 
ATOM     25  C   UNL d   1     -50.378  15.600  23.698  0.00  0.00     0.029 C 
ENDBRANCH  23  24
ENDBRANCH  21  23
ENDBRANCH   1  21
TORSDOF 7
ENDMDL
MODEL 5
REMARK VINA RESULT:      -6.5      7.561      9.560
REMARK  7 active torsions:
REMARK  status: ('A' for Active; 'I' for Inactive)
REMARK    1  A    between atoms: C_7  and  C_1 
REMARK    2  A    between atoms: C_8  and  C_2 
REMARK    3  A    between atoms: C_10  and  C_3 
REMARK    4  A    between atoms: O_14  and  C_7 
REMARK    5  A    between atoms: O_15  and  C_8 
REMARK    6  A    between atoms: C_19  and  O_14 
REMARK    7  A    between atoms: C_20  and  O_15 
ROOT
ATOM      1  C   UNL d   1     -38.979  14.018  19.573  0.00  0.00     0.100 A 
ATOM      2  C   UNL d   1     -39.901  14.139  18.490  0.00  0.00     0.103 A 
ATOM      3  C   UNL d   1     -39.699  14.286  19.280  0.00  0.00     0.016 A 
ATOM      4  C   UNL d   1     -38.454  13.600  19.080  0.00  0.00     0.171 A 
ATOM      5  C   UNL d   1     -39.376  13.721  17.996  0.00  0.00     0.204 A 
ATOM      6  C   UNL d   1     -38.651  13.452  18.295  0.00  0.00     0.081 A 
ATOM      7  O   UNL d   1     -39.484  13.566  17.331  0.00  0.00    -0.286 OA
ATOM      8  O   UNL d   1     -38.173  13.645  19.669  0.00  0.00    -0.289 OA
ATOM      9  C   UNL d   1     -37.940  13.290  18.912  0.00  0.00     0.042 C 
ENDROOT
BRANCH   3  10
ATOM     10  C   UNL d   1     -40.215  14.696  19.765  0.00  0.00     0.001 A 
ATOM     11  C   UNL d   1     -40.130  15.508  19.876  0.00  0.00     0.000 A 
ATOM     12  C   UNL d   1     -40.650  15.922  20.365  0.00  0.00     0.000 A 
ATOM     13  C   UNL d   1     -41.259  15.526  20.747  0.00  0.00     0.000 A 
ATOM     14  C   UNL d   1     -41.352  14.710  20.642  0.00  0.00     0.000 A 
ATOM     15  C   UNL d   1     -40.832  14.297  20.153  0.00  0.00     0.000 A 
ENDBRANCH   3  10
BRANCH   2  16
ATOM     16  C   UNL d   1     -40.623  14.407  18.195  0.00  0.00     0.303 C 
ATOM     17  O   UNL d   1     -41.324  13.986  18.333  0.00  0.00    -0.259 OA
BRANCH  16  18
ATOM     18  O   UNL d   1     -40.677  15.099  17.755  0.00  0.00    -0.271 OA
BRANCH  18  19
ATOM     19  C   UNL d   1     -41.263  15.179  17.171  0.00  0.00     0.126 C 
ATOM     20  C   UNL d   1     -41.320  15.878  16.730  0.00  0.00     0.029 C 
ENDBRANCH  18  19
ENDBRANCH  16  18
ENDBRANCH   2  16
BRANCH   1  21
ATOM     21  C   UNL d   1     -38.779  14.165  20.362  0.00  0.00     0.303 C 
ATOM     22  O   UNL d   1     -38.479  14.886  20.571  0.00  0.00    -0.259 OA
BRANCH  21  23
ATOM     23  O   UNL d   1     -38.876  13.591  20.954  0.00  0.00    -0.271 OA
BRANCH  23  24
ATOM     24  C   UNL d   1     -38.413  13.616  21.632  0.00  0.00     0.126 C 
ATOM     25  C   UNL d   1     -38.627  13.165  22.294  0.00  0.00     0.029 C 
ENDBRANCH  23  24
ENDBRANCH  21  23
ENDBRANCH   1  21
TORSDOF 7
ENDMDL
MODEL 6
REMARK VINA RESULT:      -6.2      7.380      9.087
REMARK  7 active torsions:
REMARK  status: ('A' for Active; 'I' for Inactive)
REMARK    1  A    between atoms: C_7  and  C_1 
REMARK    2  A    between atoms: C_8  and  C_2 
REMARK    3  A    between atoms: C_10  and  C_3 
REMARK    4  A    between atoms: O_14  and  C_7 
REMARK    5  A    between atoms: O_15  and  C_8 
REMARK    6  A    between atoms: C_19  and  O_14 
REMARK    7  A    between atoms: C_20  and  O_15 
ROOT
ATOM      1  C   UNL d   1     -39.948  14.130  18.701  0.00  0.00     0.100 A 
ATOM      2  C   UNL d   1     -39.103  13.998  19.845  0.00  0.00     0.103 A 
ATOM      3  C   UNL d   1     -39.807  14.268  19.500  0.00  0.00     0.016 A 
ATOM      4  C   UNL d   1     -39.388  13.721  18.240  0.00  0.00     0.171 A 
ATOM      5  C   UNL d   1     -38.543  13.589  19.384  0.00  0.00     0.204 A 
ATOM      6  C   UNL d   1     -38.689  13.451  18.579  0.00  0.00     0.081 A 
ATOM      7  O   UNL d   1     -37.940  13.338  19.610  0.00  0.00    -0.286 OA
ATOM      8  O   UNL d   1     -39.889  13.875  17.848  0.00  0.00    -0.289 OA
ATOM      9  C   UNL d   1     -39.135  13.458  17.735  0.00  0.00     0.042 C 
ENDROOT
BRANCH   3  10
ATOM     10  C   UNL d   1     -40.357  14.670  19.952  0.00  0.00     0.001 A 
ATOM     11  C   UNL d   1     -41.021  14.281  20.248  0.00  0.00     0.000 A 
ATOM     12  C   UNL d   1     -41.576  14.687  20.705  0.00  0.00     0.000 A 
ATOM     13  C   UNL d   1     -41.471  15.484  20.869  0.00  0.00     0.000 A 
ATOM     14  C   UNL d   1     -40.807  15.883  20.576  0.00  0.00     0.000 A 
ATOM     15  C   UNL d   1     -40.253  15.478  20.120  0.00  0.00     0.000 A 
ENDBRANCH   3  10
BRANCH   2  16
ATOM     16  C   UNL d   1     -38.961  14.136  20.646  0.00  0.00     0.303 C 
ATOM     17  O   UNL d   1     -38.721  14.883  20.914  0.00  0.00    -0.259 OA
BRANCH  16  18
ATOM     18  O   UNL d   1     -39.050  13.542  21.207  0.00  0.00    -0.271 OA
BRANCH  18  19
ATOM     19  C   UNL d   1     -38.583  13.543  21.894  0.00  0.00     0.126 C 
ATOM     20  C   UNL d   1     -38.776  13.046  22.529  0.00  0.00     0.029 C 
ENDBRANCH  18  19
ENDBRANCH  16  18
ENDBRANCH   2  16
BRANCH   1  21
ATOM     21  C   UNL d   1     -40.650  14.400  18.358  0.00  0.00     0.303 C 
ATOM     22  O   UNL d   1     -41.330  13.969  18.443  0.00  0.00    -0.259 OA
BRANCH  21  23
ATOM     23  O   UNL d   1     -40.683  15.107  17.924  0.00  0.00    -0.271 OA
BRANCH  23  24
ATOM     24  C   UNL d   1     -41.251  15.205  17.338  0.00  0.00     0.126 C 
ATOM     25  C   UNL d   1     -41.288  15.918  16.916  0.00  0.00     0.029 C 
ENDBRANCH  23  24
ENDBRANCH  21  23
ENDBRANCH   1  21
TORSDOF 7
ENDMDL
MODEL 7
REMARK VINA RESULT:      -5.4      8.229      9.674
REMARK  7 active torsions:
REMARK  status: ('A' for Active; 'I' for Inactive)
REMARK    1  A    between atoms: C_7  and  C_1 
REMARK    2  A    between atoms: C_8  and  C_2 
REMARK    3  A    between atoms: C_10  and  C_3 
REMARK    4  A    between atoms: O_14  and  C_7 
REMARK    5  A    between atoms: O_15  and  C_8 
REMARK    6  A    between atoms: C_19  and  O_14 
REMARK    7  A    between atoms: C_20  and  O_15 
ROOT
ATOM      1  C   UNL d   1     -39.345  14.912  20.212  0.00  0.00     0.100 A 
ATOM      2  C   UNL d   1     -40.283  15.029  19.141  0.00  0.00     0.103 A 
ATOM      3  C   UNL d   1     -39.570  14.730  19.442  0.00  0.00     0.016 A 
ATOM      4  C   UNL d   1     -39.830  15.393  20.689  0.00  0.00     0.171 A 
ATOM      5  C   UNL d   1     -40.768  15.510  19.618  0.00  0.00     0.204 A 
ATOM      6  C   UNL d   1     -40.537  15.691  20.394  0.00  0.00     0.081 A 
ATOM      7  O   UNL d   1     -41.371  15.789  19.429  0.00  0.00    -0.286 OA
ATOM      8  O   UNL d   1     -39.306  15.229  21.046  0.00  0.00    -0.289 OA
ATOM      9  C   UNL d   1     -40.015  15.708  21.194  0.00  0.00     0.042 C 
ENDROOT
BRANCH   3  10
ATOM     10  C   UNL d   1     -39.095  14.258  18.973  0.00  0.00     0.001 A 
ATOM     11  C   UNL d   1     -38.454  14.580  18.567  0.00  0.00     0.000 A 
ATOM     12  C   UNL d   1     -37.974  14.104  18.094  0.00  0.00     0.000 A 
ATOM     13  C   UNL d   1     -38.132  13.301  18.025  0.00  0.00     0.000 A 
ATOM     14  C   UNL d   1     -38.773  12.968  18.429  0.00  0.00     0.000 A 
ATOM     15  C   UNL d   1     -39.253  13.445  18.901  0.00  0.00     0.000 A 
ENDBRANCH   3  10
BRANCH   2  16
ATOM     16  C   UNL d   1     -40.510  14.847  18.369  0.00  0.00     0.303 C 
ATOM     17  O   UNL d   1     -40.855  14.116  18.187  0.00  0.00    -0.259 OA
BRANCH  16  18
ATOM     18  O   UNL d   1     -40.405  15.381  17.753  0.00  0.00    -0.271 OA
BRANCH  18  19
ATOM     19  C   UNL d   1     -40.914  15.368  17.097  0.00  0.00     0.126 C 
ATOM     20  C   UNL d   1     -40.802  15.902  16.472  0.00  0.00     0.029 C 
ENDBRANCH  18  19
ENDBRANCH  16  18
ENDBRANCH   2  16
BRANCH   1  21
ATOM     21  C   UNL d   1     -38.634  14.613  20.510  0.00  0.00     0.303 C 
ATOM     22  O   UNL d   1     -37.940  14.994  20.346  0.00  0.00    -0.259 OA
BRANCH  21  23
ATOM     23  O   UNL d   1     -38.608  13.928  20.977  0.00  0.00    -0.271 OA
BRANCH  23  24
ATOM     24  C   UNL d   1     -37.988  13.813  21.505  0.00  0.00     0.126 C 
ATOM     25  C   UNL d   1     -37.952  13.115  21.951  0.00  0.00     0.029 C 
ENDBRANCH  23  24
ENDBRANCH  21  23
ENDBRANCH   1  21
TORSDOF 7
ENDMDL
MODEL 8
REMARK VINA RESULT:      -5.4      1.395      2.541
REMARK  7 active torsions:
REMARK  status: ('A' for Active; 'I' for Inactive)
REMARK    1  A    between atoms: C_7  and  C_1 
REMARK    2  A    between atoms: C_8  and  C_2 
REMARK    3  A    between atoms: C_10  and  C_3 
REMARK    4  A    between atoms: O_14  and  C_7 
REMARK    5  A    between atoms: O_15  and  C_8 
REMARK    6  A    between atoms: C_19  and  O_14 
REMARK    7  A    between atoms: C_20  and  O_15 
ROOT
ATOM      1  C   UNL d   1     -48.887  12.924  23.247  0.00  0.00     0.100 A 
ATOM      2  C   UNL d   1     -47.882  11.912  23.188  0.00  0.00     0.103 A 
ATOM      3  C   UNL d   1     -48.111  12.703  23.088  0.00  0.00     0.016 A 
ATOM      4  C   UNL d   1     -49.441  12.359  23.508  0.00  0.00     0.171 A 
ATOM      5  C   UNL d   1     -48.435  11.347  23.448  0.00  0.00     0.204 A 
ATOM      6  C   UNL d   1     -49.217  11.574  23.608  0.00  0.00     0.081 A 
ATOM      7  O   UNL d   1     -48.308  10.675  23.551  0.00  0.00    -0.286 OA
ATOM      8  O   UNL d   1     -49.752  12.934  23.473  0.00  0.00    -0.289 OA
ATOM      9  C   UNL d   1     -49.988  12.129  23.698  0.00  0.00     0.042 C 
ENDROOT
BRANCH   3  10
ATOM     10  C   UNL d   1     -47.568  13.258  22.833  0.00  0.00     0.001 A 
ATOM     11  C   UNL d   1     -47.165  13.730  23.375  0.00  0.00     0.000 A 
ATOM     12  C   UNL d   1     -46.617  14.290  23.118  0.00  0.00     0.000 A 
ATOM     13  C   UNL d   1     -46.467  14.382  22.316  0.00  0.00     0.000 A 
ATOM     14  C   UNL d   1     -46.867  13.912  21.764  0.00  0.00     0.000 A 
ATOM     15  C   UNL d   1     -47.415  13.352  22.021  0.00  0.00     0.000 A 
ENDBRANCH   3  10
BRANCH   2  16
ATOM     16  C   UNL d   1     -47.104  11.688  23.029  0.00  0.00     0.303 C 
ATOM     17  O   UNL d   1     -46.839  11.590  22.250  0.00  0.00    -0.259 OA
BRANCH  16  18
ATOM     18  O   UNL d   1     -46.562  11.555  23.633  0.00  0.00    -0.271 OA
BRANCH  18  19
ATOM     19  C   UNL d   1     -46.088  10.872  23.626  0.00  0.00     0.126 C 
ATOM     20  C   UNL d   1     -45.264  10.937  23.686  0.00  0.00     0.029 C 
ENDBRANCH  18  19
ENDBRANCH  16  18
ENDBRANCH   2  16
BRANCH   1  21
ATOM     21  C   UNL d   1     -49.115  13.712  23.148  0.00  0.00     0.303 C 
ATOM     22  O   UNL d   1     -48.899  14.265  23.698  0.00  0.00    -0.259 OA
BRANCH  21  23
ATOM     23  O   UNL d   1     -49.563  13.960  22.495  0.00  0.00    -0.271 OA
BRANCH  23  24
ATOM     24  C   UNL d   1     -50.067  14.607  22.561  0.00  0.00     0.126 C 
ATOM     25  C   UNL d   1     -50.358  14.975  21.877  0.00  0.00     0.029 C 
ENDBRANCH  23  24
ENDBRANCH  21  23
ENDBRANCH   1  21
TORSDOF 7
ENDMDL
