MODEL 1
REMARK VINA RESULT:      27.5      0.000      0.000
REMARK  9 active torsions:
REMARK  status: ('A' for Active; 'I' for Inactive)
REMARK    1  A    between atoms: C_6  and  N_1 
REMARK    2  A    between atoms: C_7  and  C_2 
REMARK    3  A    between atoms: C_3  and  C_9 
REMARK    4  A    between atoms: O_5  and  C_3 
REMARK    5  A    between atoms: C_4  and  O_5 
REMARK    6  A    between atoms: C_8  and  C_7 
REMARK    7  A    between atoms: C_12  and  C_8 
REMARK    8  A    between atoms: C_10  and  C_12 
REMARK    9  A    between atoms: O_25  and  C_23 
ROOT
ATOM      1  C   UNL d   1      46.319 -17.935  43.477  0.00  0.00     0.064 A 
ATOM      2  C   UNL d   1      46.219 -17.463  44.147  0.00  0.00     0.106 A 
ATOM      3  C   UNL d   1      46.303 -18.762  43.549  0.00  0.00     0.029 A 
ATOM      4  C   UNL d   1      46.104 -17.819  44.889  0.00  0.00     0.027 A 
ATOM      5  C   UNL d   1      46.188 -19.111  44.285  0.00  0.00     0.094 A 
ATOM      6  C   UNL d   1      46.088 -18.640  44.955  0.00  0.00     0.026 A 
ENDROOT
BRANCH   2   7
ATOM      7  O   UNL d   1      46.234 -16.641  44.084  0.00  0.00    -0.273 OA
BRANCH   7   8
ATOM      8  C   UNL d   1      45.688 -16.188  44.504  0.00  0.00     0.300 C 
ATOM      9  O   UNL d   1      45.074 -16.550  44.911  0.00  0.00    -0.259 OA
BRANCH   8  10
ATOM     10  C   UNL d   1      45.763 -15.367  44.512  0.00  0.00     0.065 A 
ATOM     11  C   UNL d   1      45.233 -14.907  44.087  0.00  0.00     0.029 A 
ATOM     12  C   UNL d   1      45.301 -14.090  44.090  0.00  0.00     0.127 A 
ATOM     13  C   UNL d   1      45.906 -13.723  44.523  0.00  0.00     0.024 A 
ATOM     14  C   UNL d   1      46.436 -14.190  44.949  0.00  0.00     0.002 A 
ATOM     15  C   UNL d   1      46.367 -15.015  44.946  0.00  0.00     0.005 A 
BRANCH  12  16
ATOM     16  N   UNL d   1      44.766 -13.619  43.660  0.00  0.00    -0.114 N 
ATOM     17  O   UNL d   1      44.003 -13.883  43.520  0.00  0.00    -0.532 OA
ATOM     18  O   UNL d   1      45.019 -12.882  43.378  0.00  0.00    -0.532 OA
ENDBRANCH  12  16
ENDBRANCH   8  10
ENDBRANCH   7   8
ENDBRANCH   2   7
BRANCH   1  19
ATOM     19  C   UNL d   1      46.435 -17.581  42.738  0.00  0.00     0.198 C 
ATOM     20  O   UNL d   1      46.338 -16.766  42.653  0.00  0.00    -0.286 OA
BRANCH  19  21
ATOM     21  C   UNL d   1      46.645 -18.042  42.090  0.00  0.00     0.043 C 
BRANCH  21  22
ATOM     22  C   UNL d   1      46.077 -18.503  41.712  0.00  0.00     0.010 C 
BRANCH  22  23
ATOM     23  C   UNL d   1      46.267 -18.900  41.017  0.00  0.00     0.030 A 
ATOM     24  S   UNL d   1      46.451 -19.700  40.940  0.00  0.00    -0.086 SA
ATOM     25  C   UNL d   1      46.605 -19.861  40.146  0.00  0.00     0.035 A 
ATOM     26  C   UNL d   1      46.516 -19.161  39.724  0.00  0.00     0.007 A 
ATOM     27  C   UNL d   1      46.307 -18.566  40.259  0.00  0.00     0.007 A 
ENDBRANCH  22  23
ENDBRANCH  21  22
ENDBRANCH  19  21
ENDBRANCH   1  19
BRANCH   5  28
ATOM     28  O   UNL d   1      46.172 -19.931  44.352  0.00  0.00    -0.328 OA
ATOM     29  C   UNL d   1      45.452 -20.328  44.365  0.00  0.00     0.181 C 
ENDBRANCH   5  28
TORSDOF 9
ENDMDL
