MODEL 1
REMARK VINA RESULT:       9.3      0.000      0.000
REMARK  5 active torsions:
REMARK  status: ('A' for Active; 'I' for Inactive)
REMARK    1  A    between atoms: C_2  and  S_1 
REMARK    2  A    between atoms: N_5  and  S_1 
REMARK    3  A    between atoms: O_18  and  C_4 
REMARK    4  A    between atoms: C_13  and  N_5 
REMARK    5  A    between atoms: C_11  and  C_13 
ROOT
ATOM      1  C   UNL d   1      46.351 -18.297  43.368  0.00  0.00     0.128 A 
ATOM      2  C   UNL d   1      46.253 -18.256  42.550  0.00  0.00     0.026 A 
ATOM      3  C   UNL d   1      46.548 -19.016  43.723  0.00  0.00     0.106 A 
ATOM      4  C   UNL d   1      46.351 -18.934  42.086  0.00  0.00     0.059 A 
ATOM      5  C   UNL d   1      46.646 -19.693  43.259  0.00  0.00     0.026 A 
ATOM      6  C   UNL d   1      46.547 -19.652  42.441  0.00  0.00     0.013 A 
ATOM      7 CL   UNL d   1      46.252 -18.893  41.268  0.00  0.00    -0.082 Cl
ATOM      8  C   UNL d   1      46.646 -20.330  41.978  0.00  0.00     0.001 C 
ENDROOT
BRANCH   1   9
ATOM      9  S   UNL d   1      46.253 -17.620  43.831  0.00  0.00     0.287 S 
ATOM     10  O   UNL d   1      46.517 -17.152  43.203  0.00  0.00    -0.198 OA
ATOM     11  O   UNL d   1      45.989 -18.087  44.459  0.00  0.00    -0.198 OA
BRANCH   9  12
ATOM     12  N   UNL d   1      46.155 -16.942  44.295  0.00  0.00    -0.155 NA
BRANCH  12  13
ATOM     13  C   UNL d   1      45.500 -16.453  44.179  0.00  0.00     0.137 C 
BRANCH  13  14
ATOM     14  C   UNL d   1      45.505 -15.679  44.470  0.00  0.00     0.120 A 
ATOM     15  O   UNL d   1      46.175 -15.219  44.621  0.00  0.00    -0.304 OA
ATOM     16  C   UNL d   1      45.925 -14.489  44.903  0.00  0.00     0.123 A 
ATOM     17  C   UNL d   1      45.098 -14.494  44.929  0.00  0.00     0.029 A 
ATOM     18  C   UNL d   1      44.844 -15.226  44.661  0.00  0.00     0.028 A 
ENDBRANCH  13  14
ENDBRANCH  12  13
ENDBRANCH   9  12
ENDBRANCH   1   9
BRANCH   3  19
ATOM     19  O   UNL d   1      46.647 -19.059  44.544  0.00  0.00    -0.327 OA
ATOM     20  C   UNL d   1      46.637 -19.792  44.923  0.00  0.00     0.181 C 
ENDBRANCH   3  19
TORSDOF 5
ENDMDL
