MODEL 1
REMARK VINA RESULT:      -2.0      0.000      0.000
REMARK  3 active torsions:
REMARK  status: ('A' for Active; 'I' for Inactive)
REMARK    1  A    between atoms: C_14  and  C_1 
REMARK    2  A    between atoms: C_3  and  C_8 
REMARK       I    between atoms: C_8  and  N_13 
REMARK    3  A    between atoms: N_13  and  C_15 
ROOT
ATOM      1  C   UNL d   1      32.463  18.757 -23.696  0.00  0.00     0.025 A 
ATOM      2  C   UNL d   1      32.751  17.591 -24.480  0.00  0.00     0.085 A 
ATOM      3  C   UNL d   1      32.897  18.062 -23.819  0.00  0.00     0.021 A 
ATOM      4  C   UNL d   1      31.906  18.990 -24.196  0.00  0.00     0.002 A 
ATOM      5  C   UNL d   1      31.747  18.544 -24.848  0.00  0.00     0.002 A 
ATOM      6  C   UNL d   1      32.155  17.830 -25.024  0.00  0.00     0.019 A 
ENDROOT
BRANCH   2   7
ATOM      7  N   UNL d   1      33.169  16.902 -24.617  0.00  0.00    -0.206 NA
ATOM      8  C   UNL d   1      32.782  16.168 -24.514  0.00  0.00     0.302 C 
ATOM      9  O   UNL d   1      33.227  15.457 -24.660  0.00  0.00    -0.263 OA
BRANCH   8  10
ATOM     10  C   UNL d   1      32.021  16.146 -24.286  0.00  0.00     0.161 A 
ATOM     11  C   UNL d   1      31.891  15.993 -23.499  0.00  0.00     0.072 A 
ATOM     12  C   UNL d   1      31.109  15.967 -23.250  0.00  0.00     0.200 A 
ATOM     13  O   UNL d   1      30.958  15.816 -22.474  0.00  0.00    -0.286 OA
ATOM     14  C   UNL d   1      30.484  16.091 -23.773  0.00  0.00     0.062 A 
ATOM     15  C   UNL d   1      30.631  16.246 -24.570  0.00  0.00     0.103 A 
ATOM     16  C   UNL d   1      29.698  16.066 -23.528  0.00  0.00     0.005 A 
ATOM     17  O   UNL d   1      31.408  16.277 -24.847  0.00  0.00    -0.302 OA
ATOM     18  C   UNL d   1      29.984  16.371 -25.097  0.00  0.00     0.025 A 
ATOM     19  C   UNL d   1      29.220  16.347 -24.857  0.00  0.00     0.002 A 
ATOM     20  C   UNL d   1      29.089  16.195 -24.077  0.00  0.00     0.000 A 
ENDBRANCH   8  10
ENDBRANCH   2   7
BRANCH   1  21
ATOM     21  C   UNL d   1      32.642  19.210 -23.010  0.00  0.00     0.111 A 
ATOM     22  N   UNL d   1      32.815  18.988 -22.235  0.00  0.00    -0.239 NA
ATOM     23  C   UNL d   1      32.946  19.673 -21.790  0.00  0.00     0.088 A 
ATOM     24  C   UNL d   1      33.138  19.827 -20.997  0.00  0.00     0.020 A 
ATOM     25  C   UNL d   1      32.849  20.310 -22.303  0.00  0.00     0.049 A 
ATOM     26  C   UNL d   1      33.240  20.606 -20.689  0.00  0.00     0.002 A 
ATOM     27  C   UNL d   1      33.140  21.260 -21.220  0.00  0.00     0.001 A 
ATOM     28  C   UNL d   1      32.945  21.093 -22.025  0.00  0.00     0.008 A 
ATOM     29  S   UNL d   1      32.659  20.007 -23.064  0.00  0.00    -0.066 SA
ENDBRANCH   1  21
TORSDOF 3
ENDMDL
