MODEL 1
REMARK VINA RESULT:      49.0      0.000      0.000
REMARK  1 active torsions:
REMARK  status: ('A' for Active; 'I' for Inactive)
REMARK       I    between atoms: N_2  and  C_1 
REMARK       I    between atoms: N_4  and  C_1 
REMARK    1  A    between atoms: C_5  and  N_3 
ROOT
ATOM      1  C   UNL d   1      13.777  12.471  -2.647  0.00  0.00     0.339 C 
ATOM      2  N   UNL d   1      14.057  13.182  -2.339  0.00  0.00    -0.254 N 
ATOM      3  N   UNL d   1      14.613  14.592  -1.729  0.00  0.00    -0.301 N 
ATOM      4  N   UNL d   1      13.428  12.446  -3.394  0.00  0.00    -0.258 N 
ATOM      5  O   UNL d   1      13.847  11.779  -2.201  0.00  0.00    -0.245 OA
ATOM      6  C   UNL d   1      14.402  13.202  -1.598  0.00  0.00     0.104 A 
ATOM      7  C   UNL d   1      13.986  13.882  -2.790  0.00  0.00     0.104 A 
ATOM      8  C   UNL d   1      14.263  14.585  -2.486  0.00  0.00     0.100 A 
ATOM      9  C   UNL d   1      14.679  13.905  -1.293  0.00  0.00     0.100 A 
ATOM     10  C   UNL d   1      13.128  11.780  -3.764  0.00  0.00     0.085 A 
ATOM     11  C   UNL d   1      13.323  13.090  -3.896  0.00  0.00     0.085 A 
ATOM     12  C   UNL d   1      12.958  12.820  -4.576  0.00  0.00     0.021 A 
ATOM     13  C   UNL d   1      12.835  12.012  -4.500  0.00  0.00     0.021 A 
ENDROOT
BRANCH   3  14
ATOM     14  C   UNL d   1      14.897  15.312  -1.417  0.00  0.00     0.064 A 
ATOM     15  C   UNL d   1      14.906  15.991  -1.892  0.00  0.00     0.018 A 
ATOM     16  C   UNL d   1      15.190  16.714  -1.585  0.00  0.00     0.001 A 
ATOM     17  C   UNL d   1      15.201  17.389  -2.052  0.00  0.00     0.000 C 
ATOM     18  C   UNL d   1      15.466  16.752  -0.790  0.00  0.00     0.000 A 
ATOM     19  C   UNL d   1      15.453  16.061  -0.316  0.00  0.00     0.002 A 
ATOM     20  C   UNL d   1      15.746  17.463  -0.482  0.00  0.00     0.000 C 
ATOM     21  C   UNL d   1      15.170  15.344  -0.626  0.00  0.00     0.018 A 
ENDBRANCH   3  14
TORSDOF 1
ENDMDL
