MODEL 1
REMARK VINA RESULT:      -1.0      0.000      0.000
REMARK  4 active torsions:
REMARK  status: ('A' for Active; 'I' for Inactive)
REMARK    1  A    between atoms: C_7  and  C_1 
REMARK    2  A    between atoms: C_13  and  N_2 
REMARK    3  A    between atoms: C_8  and  C_7 
REMARK    4  A    between atoms: N_9  and  C_14 
ROOT
ATOM      1  N   UNL d   1     -42.112-122.602 -51.751  0.00  0.00    -0.242 N 
ATOM      2  C   UNL d   1     -41.712-123.203 -51.337  0.00  0.00     0.267 A 
ATOM      3  C   UNL d   1     -42.639-122.245 -51.225  0.00  0.00     0.267 A 
ATOM      4  C   UNL d   1     -42.569-122.619 -50.492  0.00  0.00     0.062 A 
ATOM      5  C   UNL d   1     -41.997-123.209 -50.561  0.00  0.00     0.066 A 
ATOM      6  O   UNL d   1     -41.138-123.697 -51.651  0.00  0.00    -0.267 OA
ATOM      7  O   UNL d   1     -43.149-121.620 -51.407  0.00  0.00    -0.267 OA
ENDROOT
BRANCH   4   8
ATOM      8  C   UNL d   1     -42.995-122.434 -49.812  0.00  0.00     0.018 C 
BRANCH   8   9
ATOM      9  C   UNL d   1     -42.639-122.699 -49.126  0.00  0.00     0.045 A 
ATOM     10  N   UNL d   1     -41.903-122.473 -48.843  0.00  0.00    -0.308 N 
ATOM     11  C   UNL d   1     -41.757-122.868 -48.143  0.00  0.00     0.060 A 
ATOM     12  C   UNL d   1     -41.395-121.935 -49.209  0.00  0.00     0.099 C 
ATOM     13  C   UNL d   1     -41.123-122.857 -47.629  0.00  0.00     0.017 A 
ATOM     14  C   UNL d   1     -42.406-123.345 -47.985  0.00  0.00    -0.002 A 
ATOM     15  C   UNL d   1     -41.132-123.328 -46.947  0.00  0.00     0.002 A 
ATOM     16  C   UNL d   1     -41.790-123.805 -46.796  0.00  0.00    -0.000 A 
ATOM     17  C   UNL d   1     -42.420-123.813 -47.309  0.00  0.00    -0.003 A 
ATOM     18  C   UNL d   1     -42.953-123.241 -48.594  0.00  0.00     0.054 A 
ATOM     19  C   UNL d   1     -43.679-123.640 -48.614  0.00  0.00     0.010 C 
ATOM     20  C   UNL d   1     -43.153-123.768 -47.987  0.00  0.00     0.010 C 
ENDBRANCH   8   9
ENDBRANCH   4   8
BRANCH   1  21
ATOM     21  C   UNL d   1     -42.004-122.400 -52.536  0.00  0.00     0.070 A 
ATOM     22  C   UNL d   1     -42.628-122.471 -53.078  0.00  0.00     0.019 A 
ATOM     23  C   UNL d   1     -42.512-122.266 -53.865  0.00  0.00     0.025 A 
ATOM     24  C   UNL d   1     -41.782-121.991 -54.116  0.00  0.00     0.127 A 
ATOM     25  C   UNL d   1     -41.158-121.920 -53.575  0.00  0.00     0.025 A 
ATOM     26  C   UNL d   1     -41.269-122.123 -52.786  0.00  0.00     0.019 A 
BRANCH  24  27
ATOM     27  N   UNL d   1     -41.665-121.786 -54.904  0.00  0.00    -0.114 N 
ATOM     28  O   UNL d   1     -42.052-121.135 -55.226  0.00  0.00    -0.532 OA
ATOM     29  O   UNL d   1     -41.161-122.231 -55.371  0.00  0.00    -0.532 OA
ENDBRANCH  24  27
ENDBRANCH   1  21
TORSDOF 4
ENDMDL
