MODEL 1
REMARK VINA RESULT:      -5.7      0.000      0.000
REMARK  3 active torsions:
REMARK  status: ('A' for Active; 'I' for Inactive)
REMARK    1  A    between atoms: C_2  and  C_4 
REMARK    2  A    between atoms: N_3  and  C_2 
REMARK    3  A    between atoms: C_5  and  N_3 
ROOT
ATOM      1  N   UNL d   1      57.080  -0.645  31.221  0.00  0.00    -0.243 NA
ATOM      2  C   UNL d   1      57.543   0.007  30.978  0.00  0.00     0.109 A 
ATOM      3  C   UNL d   1      56.700  -0.629  31.953  0.00  0.00     0.081 A 
ATOM      4  C   UNL d   1      57.620   0.664  31.471  0.00  0.00     0.021 A 
ATOM      5  C   UNL d   1      56.781   0.036  32.447  0.00  0.00     0.018 A 
ATOM      6  C   UNL d   1      57.239   0.681  32.206  0.00  0.00     0.003 A 
ATOM      7  C   UNL d   1      56.242  -1.267  32.198  0.00  0.00     0.019 A 
ATOM      8  C   UNL d   1      56.401   0.049  33.175  0.00  0.00     0.002 A 
ATOM      9  C   UNL d   1      55.867  -1.247  32.925  0.00  0.00     0.002 A 
ATOM     10  C   UNL d   1      55.947  -0.589  33.413  0.00  0.00     0.000 A 
ENDROOT
BRANCH   2  11
ATOM     11  C   UNL d   1      57.924  -0.010  30.242  0.00  0.00     0.153 C 
ATOM     12  S   UNL d   1      57.996   0.682  29.796  0.00  0.00    -0.056 SA
BRANCH  11  13
ATOM     13  N   UNL d   1      58.230  -0.720  29.957  0.00  0.00    -0.233 NA
BRANCH  13  14
ATOM     14  C   UNL d   1      58.919  -0.718  29.504  0.00  0.00     0.082 A 
ATOM     15  C   UNL d   1      59.165  -1.413  29.120  0.00  0.00     0.018 A 
ATOM     16  C   UNL d   1      58.723  -2.101  29.191  0.00  0.00     0.002 C 
ATOM     17  C   UNL d   1      59.854  -1.402  28.668  0.00  0.00     0.002 A 
ATOM     18  C   UNL d   1      60.300  -0.712  28.595  0.00  0.00     0.000 A 
ATOM     19  C   UNL d   1      60.053  -0.022  28.978  0.00  0.00     0.002 A 
ATOM     20  C   UNL d   1      59.360  -0.026  29.434  0.00  0.00     0.019 A 
ENDBRANCH  13  14
ENDBRANCH  11  13
ENDBRANCH   2  11
TORSDOF 3
ENDMDL
MODEL 2
REMARK VINA RESULT:      -5.6      0.936      4.248
REMARK  3 active torsions:
REMARK  status: ('A' for Active; 'I' for Inactive)
REMARK    1  A    between atoms: C_2  and  C_4 
REMARK    2  A    between atoms: N_3  and  C_2 
REMARK    3  A    between atoms: C_5  and  N_3 
ROOT
ATOM      1  N   UNL d   1      57.927  -0.778  30.655  0.00  0.00    -0.243 NA
ATOM      2  C   UNL d   1      57.659  -0.026  30.902  0.00  0.00     0.109 A 
ATOM      3  C   UNL d   1      58.302  -0.862  29.926  0.00  0.00     0.081 A 
ATOM      4  C   UNL d   1      57.771   0.631  30.415  0.00  0.00     0.021 A 
ATOM      5  C   UNL d   1      58.412  -0.196  29.438  0.00  0.00     0.018 A 
ATOM      6  C   UNL d   1      58.147   0.549  29.682  0.00  0.00     0.003 A 
ATOM      7  C   UNL d   1      58.569  -1.599  29.676  0.00  0.00     0.019 A 
ATOM      8  C   UNL d   1      58.786  -0.282  28.711  0.00  0.00     0.002 A 
ATOM      9  C   UNL d   1      58.940  -1.677  28.952  0.00  0.00     0.002 A 
ATOM     10  C   UNL d   1      59.048  -1.019  28.469  0.00  0.00     0.000 A 
ENDROOT
BRANCH   2  11
ATOM     11  C   UNL d   1      57.283   0.056  31.635  0.00  0.00     0.153 C 
ATOM     12  S   UNL d   1      57.486   0.680  32.138  0.00  0.00    -0.056 SA
BRANCH  11  13
ATOM     13  N   UNL d   1      56.706  -0.486  31.862  0.00  0.00    -0.233 NA
BRANCH  13  14
ATOM     14  C   UNL d   1      56.179  -0.297  32.468  0.00  0.00     0.082 A 
ATOM     15  C   UNL d   1      55.740  -0.898  32.838  0.00  0.00     0.018 A 
ATOM     16  C   UNL d   1      55.831  -1.679  32.601  0.00  0.00     0.002 C 
ATOM     17  C   UNL d   1      55.216  -0.701  33.443  0.00  0.00     0.002 A 
ATOM     18  C   UNL d   1      55.124   0.083  33.682  0.00  0.00     0.000 A 
ATOM     19  C   UNL d   1      55.562   0.678  33.312  0.00  0.00     0.002 A 
ATOM     20  C   UNL d   1      56.091   0.487  32.703  0.00  0.00     0.019 A 
ENDBRANCH  13  14
ENDBRANCH  11  13
ENDBRANCH   2  11
TORSDOF 3
ENDMDL
MODEL 3
REMARK VINA RESULT:      -5.3      1.266      1.749
REMARK  3 active torsions:
REMARK  status: ('A' for Active; 'I' for Inactive)
REMARK    1  A    between atoms: C_2  and  C_4 
REMARK    2  A    between atoms: N_3  and  C_2 
REMARK    3  A    between atoms: C_5  and  N_3 
ROOT
ATOM      1  N   UNL d   1      56.961   0.585  31.978  0.00  0.00    -0.243 NA
ATOM      2  C   UNL d   1      57.331   0.124  31.387  0.00  0.00     0.109 A 
ATOM      3  C   UNL d   1      56.432   0.233  32.503  0.00  0.00     0.081 A 
ATOM      4  C   UNL d   1      57.164  -0.682  31.331  0.00  0.00     0.021 A 
ATOM      5  C   UNL d   1      56.268  -0.581  32.442  0.00  0.00     0.018 A 
ATOM      6  C   UNL d   1      56.633  -1.038  31.857  0.00  0.00     0.003 A 
ATOM      7  C   UNL d   1      56.064   0.680  33.088  0.00  0.00     0.019 A 
ATOM      8  C   UNL d   1      55.740  -0.930  32.967  0.00  0.00     0.002 A 
ATOM      9  C   UNL d   1      55.541   0.327  33.606  0.00  0.00     0.002 A 
ATOM     10  C   UNL d   1      55.378  -0.478  33.546  0.00  0.00     0.000 A 
ENDROOT
BRANCH   2  11
ATOM     11  C   UNL d   1      57.862   0.479  30.860  0.00  0.00     0.153 C 
ATOM     12  S   UNL d   1      57.618   0.679  30.096  0.00  0.00    -0.056 SA
BRANCH  11  13
ATOM     13  N   UNL d   1      58.635   0.633  31.101  0.00  0.00    -0.233 NA
BRANCH  13  14
ATOM     14  C   UNL d   1      59.244   0.646  30.545  0.00  0.00     0.082 A 
ATOM     15  C   UNL d   1      60.035   0.669  30.798  0.00  0.00     0.018 A 
ATOM     16  C   UNL d   1      60.211   0.680  31.600  0.00  0.00     0.002 C 
ATOM     17  C   UNL d   1      60.639   0.682  30.236  0.00  0.00     0.002 A 
ATOM     18  C   UNL d   1      60.464   0.671  29.429  0.00  0.00     0.000 A 
ATOM     19  C   UNL d   1      59.675   0.647  29.182  0.00  0.00     0.002 A 
ATOM     20  C   UNL d   1      59.064   0.635  29.741  0.00  0.00     0.019 A 
ENDBRANCH  13  14
ENDBRANCH  11  13
ENDBRANCH   2  11
TORSDOF 3
ENDMDL
