MODEL 1
REMARK VINA RESULT:      32.8      0.000      0.000
REMARK  5 active torsions:
REMARK  status: ('A' for Active; 'I' for Inactive)
REMARK    1  A    between atoms: C_7  and  N_2 
REMARK    2  A    between atoms: C_8  and  C_7 
REMARK    3  A    between atoms: C_13  and  C_8 
REMARK    4  A    between atoms: C_9  and  O_11 
REMARK    5  A    between atoms: O_11  and  C_13 
ROOT
ATOM      1  C   UNL d   1      15.752  13.690  -0.034  0.00  0.00     0.296 A 
ATOM      2  N   UNL d   1      14.962  13.949  -0.052  0.00  0.00    -0.268 N 
ATOM      3  S   UNL d   1      15.745  12.865  -0.019  0.00  0.00    -0.025 SA
ATOM      4  C   UNL d   1      14.474  13.281  -0.048  0.00  0.00     0.073 A 
ATOM      5  C   UNL d   1      14.962  12.611  -0.027  0.00  0.00     0.050 A 
ATOM      6  O   UNL d   1      16.421  14.172  -0.032  0.00  0.00    -0.259 OA
ATOM      7  C   UNL d   1      13.657  13.200  -0.060  0.00  0.00     0.018 A 
ATOM      8  C   UNL d   1      14.614  11.853  -0.019  0.00  0.00     0.008 A 
ATOM      9  C   UNL d   1      13.318  12.448  -0.052  0.00  0.00     0.002 A 
ATOM     10  C   UNL d   1      13.793  11.780  -0.032  0.00  0.00     0.001 A 
ENDROOT
BRANCH   2  11
ATOM     11  C   UNL d   1      14.709  14.732  -0.071  0.00  0.00     0.086 C 
BRANCH  11  12
ATOM     12  C   UNL d   1      15.224  15.323  -0.337  0.00  0.00     0.046 C 
BRANCH  12  13
ATOM     13  C   UNL d   1      14.924  16.049  -0.588  0.00  0.00     0.124 C 
BRANCH  13  14
ATOM     14  O   UNL d   1      14.909  16.233  -1.386  0.00  0.00    -0.305 OA
BRANCH  14  15
ATOM     15  C   UNL d   1      14.895  16.418  -2.193  0.00  0.00     0.100 A 
ATOM     16  C   UNL d   1      14.722  15.826  -2.734  0.00  0.00     0.025 A 
ATOM     17  C   UNL d   1      14.708  16.012  -3.540  0.00  0.00     0.002 A 
ATOM     18  C   UNL d   1      14.864  16.779  -3.796  0.00  0.00     0.000 A 
ATOM     19  C   UNL d   1      15.037  17.369  -3.239  0.00  0.00     0.002 A 
ATOM     20  C   UNL d   1      15.052  17.188  -2.441  0.00  0.00     0.025 A 
ENDBRANCH  14  15
ENDBRANCH  13  14
ENDBRANCH  12  13
ENDBRANCH  11  12
ENDBRANCH   2  11
TORSDOF 5
ENDMDL
MODEL 2
REMARK VINA RESULT:      34.8      2.020      2.535
REMARK  5 active torsions:
REMARK  status: ('A' for Active; 'I' for Inactive)
REMARK    1  A    between atoms: C_7  and  N_2 
REMARK    2  A    between atoms: C_8  and  C_7 
REMARK    3  A    between atoms: C_13  and  C_8 
REMARK    4  A    between atoms: C_9  and  O_11 
REMARK    5  A    between atoms: O_11  and  C_13 
ROOT
ATOM      1  C   UNL d   1      13.334  12.039  -2.255  0.00  0.00     0.296 A 
ATOM      2  N   UNL d   1      13.951  12.592  -2.328  0.00  0.00    -0.268 N 
ATOM      3  S   UNL d   1      13.319  11.783  -1.470  0.00  0.00    -0.025 SA
ATOM      4  C   UNL d   1      14.311  12.672  -1.587  0.00  0.00     0.073 A 
ATOM      5  C   UNL d   1      13.918  12.170  -1.058  0.00  0.00     0.050 A 
ATOM      6  O   UNL d   1      12.829  11.793  -2.858  0.00  0.00    -0.259 OA
ATOM      7  C   UNL d   1      14.940  13.133  -1.332  0.00  0.00     0.018 A 
ATOM      8  C   UNL d   1      14.167  12.138  -0.264  0.00  0.00     0.008 A 
ATOM      9  C   UNL d   1      15.184  13.098  -0.545  0.00  0.00     0.002 A 
ATOM     10  C   UNL d   1      14.800  12.604  -0.014  0.00  0.00     0.001 A 
ENDROOT
BRANCH   2  11
ATOM     11  C   UNL d   1      14.166  12.991  -3.015  0.00  0.00     0.086 C 
BRANCH  11  12
ATOM     12  C   UNL d   1      13.792  13.703  -3.210  0.00  0.00     0.046 C 
BRANCH  12  13
ATOM     13  C   UNL d   1      14.076  14.159  -3.836  0.00  0.00     0.124 C 
BRANCH  13  14
ATOM     14  O   UNL d   1      14.317  14.931  -3.704  0.00  0.00    -0.305 OA
BRANCH  14  15
ATOM     15  C   UNL d   1      14.559  15.711  -3.571  0.00  0.00     0.100 A 
ATOM     16  C   UNL d   1      14.625  15.981  -2.800  0.00  0.00     0.025 A 
ATOM     17  C   UNL d   1      14.868  16.761  -2.667  0.00  0.00     0.002 A 
ATOM     18  C   UNL d   1      15.041  17.259  -3.300  0.00  0.00     0.000 A 
ATOM     19  C   UNL d   1      14.971  16.974  -4.076  0.00  0.00     0.002 A 
ATOM     20  C   UNL d   1      14.731  16.203  -4.210  0.00  0.00     0.025 A 
ENDBRANCH  14  15
ENDBRANCH  13  14
ENDBRANCH  12  13
ENDBRANCH  11  12
ENDBRANCH   2  11
TORSDOF 5
ENDMDL
MODEL 3
REMARK VINA RESULT:      35.0      2.292      2.905
REMARK  5 active torsions:
REMARK  status: ('A' for Active; 'I' for Inactive)
REMARK    1  A    between atoms: C_7  and  N_2 
REMARK    2  A    between atoms: C_8  and  C_7 
REMARK    3  A    between atoms: C_13  and  C_8 
REMARK    4  A    between atoms: C_9  and  O_11 
REMARK    5  A    between atoms: O_11  and  C_13 
ROOT
ATOM      1  C   UNL d   1      14.244  12.146  -2.065  0.00  0.00     0.296 A 
ATOM      2  N   UNL d   1      14.034  12.949  -2.112  0.00  0.00    -0.268 N 
ATOM      3  S   UNL d   1      14.004  11.783  -2.767  0.00  0.00    -0.025 SA
ATOM      4  C   UNL d   1      13.666  13.075  -2.842  0.00  0.00     0.073 A 
ATOM      5  C   UNL d   1      13.649  12.351  -3.246  0.00  0.00     0.050 A 
ATOM      6  O   UNL d   1      14.623  11.779  -1.432  0.00  0.00    -0.259 OA
ATOM      7  C   UNL d   1      13.349  13.750  -3.187  0.00  0.00     0.018 A 
ATOM      8  C   UNL d   1      13.306  12.315  -4.005  0.00  0.00     0.008 A 
ATOM      9  C   UNL d   1      13.011  13.709  -3.938  0.00  0.00     0.002 A 
ATOM     10  C   UNL d   1      12.990  12.997  -4.344  0.00  0.00     0.001 A 
ENDROOT
BRANCH   2  11
ATOM     11  C   UNL d   1      14.168  13.520  -1.534  0.00  0.00     0.086 C 
BRANCH  11  12
ATOM     12  C   UNL d   1      14.868  13.500  -1.094  0.00  0.00     0.046 C 
BRANCH  12  13
ATOM     13  C   UNL d   1      15.000  14.060  -0.503  0.00  0.00     0.124 C 
BRANCH  13  14
ATOM     14  O   UNL d   1      15.083  14.851  -0.699  0.00  0.00    -0.305 OA
BRANCH  14  15
ATOM     15  C   UNL d   1      15.167  15.650  -0.897  0.00  0.00     0.100 A 
ATOM     16  C   UNL d   1      15.336  16.192  -0.304  0.00  0.00     0.025 A 
ATOM     17  C   UNL d   1      15.420  16.991  -0.502  0.00  0.00     0.002 A 
ATOM     18  C   UNL d   1      15.334  17.239  -1.282  0.00  0.00     0.000 A 
ATOM     19  C   UNL d   1      15.163  16.684  -1.873  0.00  0.00     0.002 A 
ATOM     20  C   UNL d   1      15.079  15.892  -1.680  0.00  0.00     0.025 A 
ENDBRANCH  14  15
ENDBRANCH  13  14
ENDBRANCH  12  13
ENDBRANCH  11  12
ENDBRANCH   2  11
TORSDOF 5
ENDMDL
