MODEL 1
REMARK VINA RESULT:      87.7      0.000      0.000
REMARK  4 active torsions:
REMARK  status: ('A' for Active; 'I' for Inactive)
REMARK    1  A    between atoms: C_8  and  N_1 
REMARK    2  A    between atoms: N_7  and  C_4 
REMARK    3  A    between atoms: N_6  and  C_10 
REMARK    4  A    between atoms: C_15  and  N_7 
ROOT
ATOM      1  N   UNL d   1      58.528  49.269  50.376  0.00  0.00    -0.241 N 
ATOM      2  C   UNL d   1      58.854  49.367  49.640  0.00  0.00     0.269 A 
ATOM      3  C   UNL d   1      59.127  49.051  50.890  0.00  0.00     0.285 A 
ATOM      4  C   UNL d   1      59.818  49.023  50.436  0.00  0.00     0.142 A 
ATOM      5  C   UNL d   1      59.650  49.211  49.697  0.00  0.00     0.085 A 
ATOM      6  O   UNL d   1      58.464  49.590  48.927  0.00  0.00    -0.267 OA
ATOM      7  O   UNL d   1      59.052  48.889  51.711  0.00  0.00    -0.265 OA
ENDROOT
BRANCH   4   8
ATOM      8  N   UNL d   1      60.615  48.823  50.699  0.00  0.00    -0.241 NA
BRANCH   8   9
ATOM      9  C   UNL d   1      60.986  48.118  50.466  0.00  0.00     0.082 A 
ATOM     10  C   UNL d   1      61.504  48.130  49.817  0.00  0.00     0.021 A 
ATOM     11  C   UNL d   1      61.872  47.416  49.590  0.00  0.00     0.019 A 
ATOM     12  C   UNL d   1      61.731  46.726  49.991  0.00  0.00     0.064 A 
ATOM     13  C   UNL d   1      61.228  46.708  50.622  0.00  0.00     0.019 A 
ATOM     14  C   UNL d   1      60.851  47.408  50.865  0.00  0.00     0.021 A 
BRANCH  12  15
ATOM     15  N   UNL d   1      62.110  46.028  49.746  0.00  0.00    -0.300 N 
ATOM     16  C   UNL d   1      61.787  45.592  49.123  0.00  0.00     0.107 A 
ATOM     17  C   UNL d   1      62.170  44.899  48.887  0.00  0.00     0.142 A 
ATOM     18  O   UNL d   1      62.855  44.658  49.266  0.00  0.00    -0.300 OA
ATOM     19  C   UNL d   1      63.156  45.104  49.878  0.00  0.00     0.142 A 
ATOM     20  C   UNL d   1      62.790  45.804  50.134  0.00  0.00     0.107 A 
ENDBRANCH  12  15
ENDBRANCH   8   9
ENDBRANCH   4   8
BRANCH   1  21
ATOM     21  C   UNL d   1      57.735  49.385  50.505  0.00  0.00     0.070 A 
ATOM     22  C   UNL d   1      57.184  49.360  49.869  0.00  0.00     0.018 A 
ATOM     23  C   UNL d   1      56.384  49.478  50.006  0.00  0.00     0.002 A 
ATOM     24  C   UNL d   1      56.118  49.623  50.779  0.00  0.00     0.000 A 
ATOM     25  C   UNL d   1      56.645  49.647  51.397  0.00  0.00     0.002 A 
ATOM     26  C   UNL d   1      57.449  49.529  51.257  0.00  0.00     0.018 A 
ENDBRANCH   1  21
TORSDOF 4
ENDMDL
MODEL 2
REMARK VINA RESULT:      89.4      1.142      5.173
REMARK  4 active torsions:
REMARK  status: ('A' for Active; 'I' for Inactive)
REMARK    1  A    between atoms: C_8  and  N_1 
REMARK    2  A    between atoms: N_7  and  C_4 
REMARK    3  A    between atoms: N_6  and  C_10 
REMARK    4  A    between atoms: C_15  and  N_7 
ROOT
ATOM      1  N   UNL d   1      61.505  46.874  50.124  0.00  0.00    -0.241 N 
ATOM      2  C   UNL d   1      62.012  47.287  49.645  0.00  0.00     0.269 A 
ATOM      3  C   UNL d   1      61.035  47.414  50.521  0.00  0.00     0.285 A 
ATOM      4  C   UNL d   1      61.278  48.161  50.263  0.00  0.00     0.142 A 
ATOM      5  C   UNL d   1      61.857  48.080  49.744  0.00  0.00     0.085 A 
ATOM      6  O   UNL d   1      62.601  46.981  49.127  0.00  0.00    -0.267 OA
ATOM      7  O   UNL d   1      60.430  47.241  51.077  0.00  0.00    -0.265 OA
ENDROOT
BRANCH   4   8
ATOM      8  N   UNL d   1      60.969  48.929  50.503  0.00  0.00    -0.241 NA
BRANCH   8   9
ATOM      9  C   UNL d   1      60.155  49.062  50.594  0.00  0.00     0.082 A 
ATOM     10  C   UNL d   1      59.652  48.937  49.945  0.00  0.00     0.021 A 
ATOM     11  C   UNL d   1      58.834  49.073  50.045  0.00  0.00     0.019 A 
ATOM     12  C   UNL d   1      58.535  49.320  50.757  0.00  0.00     0.064 A 
ATOM     13  C   UNL d   1      59.019  49.443  51.391  0.00  0.00     0.019 A 
ATOM     14  C   UNL d   1      59.836  49.314  51.312  0.00  0.00     0.021 A 
BRANCH  12  15
ATOM     15  N   UNL d   1      57.717  49.448  50.832  0.00  0.00    -0.300 N 
ATOM     16  C   UNL d   1      57.382  49.479  51.586  0.00  0.00     0.107 A 
ATOM     17  C   UNL d   1      56.568  49.607  51.651  0.00  0.00     0.142 A 
ATOM     18  O   UNL d   1      56.111  49.701  50.977  0.00  0.00    -0.300 OA
ATOM     19  C   UNL d   1      56.463  49.667  50.243  0.00  0.00     0.142 A 
ATOM     20  C   UNL d   1      57.279  49.540  50.151  0.00  0.00     0.107 A 
ENDBRANCH  12  15
ENDBRANCH   8   9
ENDBRANCH   4   8
BRANCH   1  21
ATOM     21  C   UNL d   1      61.520  46.062  50.152  0.00  0.00     0.070 A 
ATOM     22  C   UNL d   1      61.335  45.649  50.862  0.00  0.00     0.018 A 
ATOM     23  C   UNL d   1      61.352  44.829  50.883  0.00  0.00     0.002 A 
ATOM     24  C   UNL d   1      61.553  44.406  50.199  0.00  0.00     0.000 A 
ATOM     25  C   UNL d   1      61.733  44.799  49.510  0.00  0.00     0.002 A 
ATOM     26  C   UNL d   1      61.716  45.623  49.490  0.00  0.00     0.018 A 
ENDBRANCH   1  21
TORSDOF 4
ENDMDL
