MODEL 1
REMARK VINA RESULT:      -7.8      0.000      0.000
REMARK  6 active torsions:
REMARK  status: ('A' for Active; 'I' for Inactive)
REMARK    1  A    between atoms: C_12  and  C_3 
REMARK    2  A    between atoms: O_11  and  C_5 
REMARK    3  A    between atoms: O_16  and  C_10 
REMARK    4  A    between atoms: C_13  and  O_11 
REMARK    5  A    between atoms: C_15  and  O_16 
REMARK    6  A    between atoms: O_24  and  C_21 
ROOT
ATOM      1  C   UNL d   1     -47.574  13.102  22.817  0.00  0.00     0.201 A 
ATOM      2  C   UNL d   1     -48.304  13.450  22.987  0.00  0.00     0.085 A 
ATOM      3  C   UNL d   1     -46.900  13.559  22.772  0.00  0.00     0.064 A 
ATOM      4  C   UNL d   1     -48.344  14.264  23.110  0.00  0.00     0.107 A 
ATOM      5  C   UNL d   1     -48.988  13.000  23.035  0.00  0.00     0.110 A 
ATOM      6  C   UNL d   1     -46.940  14.373  22.895  0.00  0.00     0.126 A 
ATOM      7  O   UNL d   1     -47.662  14.731  23.065  0.00  0.00    -0.305 OA
ATOM      8  C   UNL d   1     -49.067  14.622  23.280  0.00  0.00     0.050 A 
ATOM      9  C   UNL d   1     -49.701  13.349  23.202  0.00  0.00     0.050 A 
ATOM     10  C   UNL d   1     -49.741  14.164  23.325  0.00  0.00     0.107 A 
ATOM     11  O   UNL d   1     -47.535  12.287  22.694  0.00  0.00    -0.286 OA
ENDROOT
BRANCH   3  12
ATOM     12  C   UNL d   1     -46.169  13.203  22.601  0.00  0.00     0.005 A 
ATOM     13  C   UNL d   1     -45.871  12.614  23.091  0.00  0.00     0.002 A 
ATOM     14  C   UNL d   1     -45.148  12.262  22.922  0.00  0.00     0.024 A 
ATOM     15  C   UNL d   1     -44.720  12.503  22.254  0.00  0.00     0.094 A 
ATOM     16  C   UNL d   1     -45.016  13.090  21.763  0.00  0.00     0.024 A 
ATOM     17  C   UNL d   1     -45.743  13.442  21.936  0.00  0.00     0.002 A 
BRANCH  15  18
ATOM     18  O   UNL d   1     -43.992  12.151  22.081  0.00  0.00    -0.328 OA
ATOM     19  C   UNL d   1     -43.441  12.544  21.599  0.00  0.00     0.181 C 
ENDBRANCH  15  18
ENDBRANCH   3  12
BRANCH   5  20
ATOM     20  O   UNL d   1     -48.948  12.185  22.911  0.00  0.00    -0.273 OA
BRANCH  20  21
ATOM     21  C   UNL d   1     -49.627  11.724  22.979  0.00  0.00     0.300 C 
ATOM     22  O   UNL d   1     -50.124  11.621  22.329  0.00  0.00    -0.259 OA
ATOM     23  C   UNL d   1     -49.808  11.365  23.698  0.00  0.00     0.074 C 
ENDBRANCH  20  21
ENDBRANCH   5  20
BRANCH  10  24
ATOM     24  O   UNL d   1     -50.472  14.521  23.496  0.00  0.00    -0.273 OA
BRANCH  24  25
ATOM     25  C   UNL d   1     -50.706  15.193  23.082  0.00  0.00     0.300 C 
ATOM     26  O   UNL d   1     -50.863  15.146  22.274  0.00  0.00    -0.259 OA
ATOM     27  C   UNL d   1     -50.787  15.920  23.469  0.00  0.00     0.074 C 
ENDBRANCH  24  25
ENDBRANCH  10  24
TORSDOF 6
ENDMDL
MODEL 2
REMARK VINA RESULT:      -6.7      1.504      5.124
REMARK  6 active torsions:
REMARK  status: ('A' for Active; 'I' for Inactive)
REMARK    1  A    between atoms: C_12  and  C_3 
REMARK    2  A    between atoms: O_11  and  C_5 
REMARK    3  A    between atoms: O_16  and  C_10 
REMARK    4  A    between atoms: C_13  and  O_11 
REMARK    5  A    between atoms: C_15  and  O_16 
REMARK    6  A    between atoms: O_24  and  C_21 
ROOT
ATOM      1  C   UNL d   1     -47.468  12.341  22.701  0.00  0.00     0.201 A 
ATOM      2  C   UNL d   1     -46.745  12.025  22.946  0.00  0.00     0.085 A 
ATOM      3  C   UNL d   1     -48.170  12.005  22.947  0.00  0.00     0.064 A 
ATOM      4  C   UNL d   1     -46.740  11.367  23.443  0.00  0.00     0.107 A 
ATOM      5  C   UNL d   1     -46.034  12.355  22.705  0.00  0.00     0.110 A 
ATOM      6  C   UNL d   1     -48.165  11.347  23.444  0.00  0.00     0.126 A 
ATOM      7  O   UNL d   1     -47.449  11.024  23.695  0.00  0.00    -0.305 OA
ATOM      8  C   UNL d   1     -46.024  11.044  23.694  0.00  0.00     0.050 A 
ATOM      9  C   UNL d   1     -45.328  12.039  22.950  0.00  0.00     0.050 A 
ATOM     10  C   UNL d   1     -45.323  11.381  23.447  0.00  0.00     0.107 A 
ATOM     11  O   UNL d   1     -47.473  12.999  22.204  0.00  0.00    -0.286 OA
ENDROOT
BRANCH   3  12
ATOM     12  C   UNL d   1     -48.893  12.327  22.697  0.00  0.00     0.005 A 
ATOM     13  C   UNL d   1     -49.149  12.218  21.922  0.00  0.00     0.002 A 
ATOM     14  C   UNL d   1     -49.865  12.536  21.675  0.00  0.00     0.024 A 
ATOM     15  C   UNL d   1     -50.329  12.969  22.209  0.00  0.00     0.094 A 
ATOM     16  C   UNL d   1     -50.076  13.078  22.982  0.00  0.00     0.024 A 
ATOM     17  C   UNL d   1     -49.356  12.757  23.228  0.00  0.00     0.002 A 
BRANCH  15  18
ATOM     18  O   UNL d   1     -51.050  13.290  21.963  0.00  0.00    -0.328 OA
ATOM     19  C   UNL d   1     -51.064  13.903  21.402  0.00  0.00     0.181 C 
ENDBRANCH  15  18
ENDBRANCH   3  12
BRANCH   5  20
ATOM     20  O   UNL d   1     -46.039  13.013  22.208  0.00  0.00    -0.273 OA
BRANCH  20  21
ATOM     21  C   UNL d   1     -45.414  13.548  22.224  0.00  0.00     0.300 C 
ATOM     22  O   UNL d   1     -44.720  13.387  21.808  0.00  0.00    -0.259 OA
ATOM     23  C   UNL d   1     -45.483  14.245  22.659  0.00  0.00     0.074 C 
ENDBRANCH  20  21
ENDBRANCH   5  20
BRANCH  10  24
ATOM     24  O   UNL d   1     -44.600  11.058  23.698  0.00  0.00    -0.273 OA
BRANCH  24  25
ATOM     25  C   UNL d   1     -44.343  10.339  23.389  0.00  0.00     0.300 C 
ATOM     26  O   UNL d   1     -43.738  10.322  22.830  0.00  0.00    -0.259 OA
ATOM     27  C   UNL d   1     -44.687   9.628  23.635  0.00  0.00     0.074 C 
ENDBRANCH  24  25
ENDBRANCH  10  24
TORSDOF 6
ENDMDL
MODEL 3
REMARK VINA RESULT:      -6.0      1.182      1.441
REMARK  6 active torsions:
REMARK  status: ('A' for Active; 'I' for Inactive)
REMARK    1  A    between atoms: C_12  and  C_3 
REMARK    2  A    between atoms: O_11  and  C_5 
REMARK    3  A    between atoms: O_16  and  C_10 
REMARK    4  A    between atoms: C_13  and  O_11 
REMARK    5  A    between atoms: C_15  and  O_16 
REMARK    6  A    between atoms: O_24  and  C_21 
ROOT
ATOM      1  C   UNL d   1     -47.212  12.615  22.793  0.00  0.00     0.201 A 
ATOM      2  C   UNL d   1     -47.767  13.225  22.731  0.00  0.00     0.085 A 
ATOM      3  C   UNL d   1     -46.492  12.748  23.152  0.00  0.00     0.064 A 
ATOM      4  C   UNL d   1     -47.584  13.969  23.036  0.00  0.00     0.107 A 
ATOM      5  C   UNL d   1     -48.494  13.102  22.373  0.00  0.00     0.110 A 
ATOM      6  C   UNL d   1     -46.309  13.493  23.457  0.00  0.00     0.126 A 
ATOM      7  O   UNL d   1     -46.854  14.107  23.400  0.00  0.00    -0.305 OA
ATOM      8  C   UNL d   1     -48.129  14.584  22.979  0.00  0.00     0.050 A 
ATOM      9  C   UNL d   1     -49.033  13.706  22.315  0.00  0.00     0.050 A 
ATOM     10  C   UNL d   1     -48.850  14.451  22.620  0.00  0.00     0.107 A 
ATOM     11  O   UNL d   1     -47.395  11.871  22.488  0.00  0.00    -0.286 OA
ENDROOT
BRANCH   3  12
ATOM     12  C   UNL d   1     -45.939  12.131  23.211  0.00  0.00     0.005 A 
ATOM     13  C   UNL d   1     -46.120  11.453  23.639  0.00  0.00     0.002 A 
ATOM     14  C   UNL d   1     -45.573  10.843  23.697  0.00  0.00     0.024 A 
ATOM     15  C   UNL d   1     -44.836  10.913  23.323  0.00  0.00     0.094 A 
ATOM     16  C   UNL d   1     -44.653  11.589  22.896  0.00  0.00     0.024 A 
ATOM     17  C   UNL d   1     -45.206  12.202  22.839  0.00  0.00     0.002 A 
BRANCH  15  18
ATOM     18  O   UNL d   1     -44.284  10.301  23.381  0.00  0.00    -0.328 OA
ATOM     19  C   UNL d   1     -43.505  10.414  23.113  0.00  0.00     0.181 C 
ENDBRANCH  15  18
ENDBRANCH   3  12
BRANCH   5  20
ATOM     20  O   UNL d   1     -48.677  12.358  22.068  0.00  0.00    -0.273 OA
BRANCH  20  21
ATOM     21  C   UNL d   1     -49.262  12.279  21.494  0.00  0.00     0.300 C 
ATOM     22  O   UNL d   1     -49.147  12.594  20.740  0.00  0.00    -0.259 OA
ATOM     23  C   UNL d   1     -49.962  11.884  21.675  0.00  0.00     0.074 C 
ENDBRANCH  20  21
ENDBRANCH   5  20
BRANCH  10  24
ATOM     24  O   UNL d   1     -49.403  15.068  22.561  0.00  0.00    -0.273 OA
BRANCH  24  25
ATOM     25  C   UNL d   1     -49.950  15.187  23.166  0.00  0.00     0.300 C 
ATOM     26  O   UNL d   1     -50.134  14.573  23.683  0.00  0.00    -0.259 OA
ATOM     27  C   UNL d   1     -50.319  15.921  23.261  0.00  0.00     0.074 C 
ENDBRANCH  24  25
ENDBRANCH  10  24
TORSDOF 6
ENDMDL
MODEL 4
REMARK VINA RESULT:      -5.7      7.461      9.903
REMARK  6 active torsions:
REMARK  status: ('A' for Active; 'I' for Inactive)
REMARK    1  A    between atoms: C_12  and  C_3 
REMARK    2  A    between atoms: O_11  and  C_5 
REMARK    3  A    between atoms: O_16  and  C_10 
REMARK    4  A    between atoms: C_13  and  O_11 
REMARK    5  A    between atoms: C_15  and  O_16 
REMARK    6  A    between atoms: O_24  and  C_21 
ROOT
ATOM      1  C   UNL d   1     -39.077  14.114  19.564  0.00  0.00     0.201 A 
ATOM      2  C   UNL d   1     -39.110  14.012  20.383  0.00  0.00     0.085 A 
ATOM      3  C   UNL d   1     -38.498  13.742  19.125  0.00  0.00     0.064 A 
ATOM      4  C   UNL d   1     -38.551  13.530  20.753  0.00  0.00     0.107 A 
ATOM      5  C   UNL d   1     -39.686  14.381  20.834  0.00  0.00     0.110 A 
ATOM      6  C   UNL d   1     -37.940  13.261  19.494  0.00  0.00     0.126 A 
ATOM      7  O   UNL d   1     -37.963  13.152  20.310  0.00  0.00    -0.305 OA
ATOM      8  C   UNL d   1     -38.574  13.422  21.569  0.00  0.00     0.050 A 
ATOM      9  C   UNL d   1     -39.712  14.276  21.638  0.00  0.00     0.050 A 
ATOM     10  C   UNL d   1     -39.153  13.794  22.008  0.00  0.00     0.107 A 
ATOM     11  O   UNL d   1     -39.635  14.596  19.194  0.00  0.00    -0.286 OA
ENDROOT
BRANCH   3  12
ATOM     12  C   UNL d   1     -38.471  13.849  18.302  0.00  0.00     0.005 A 
ATOM     13  C   UNL d   1     -38.023  14.459  17.978  0.00  0.00     0.002 A 
ATOM     14  C   UNL d   1     -37.996  14.564  17.164  0.00  0.00     0.024 A 
ATOM     15  C   UNL d   1     -38.421  14.053  16.668  0.00  0.00     0.094 A 
ATOM     16  C   UNL d   1     -38.868  13.444  16.989  0.00  0.00     0.024 A 
ATOM     17  C   UNL d   1     -38.894  13.340  17.809  0.00  0.00     0.002 A 
BRANCH  15  18
ATOM     18  O   UNL d   1     -38.396  14.156  15.849  0.00  0.00    -0.328 OA
ATOM     19  C   UNL d   1     -38.056  14.841  15.524  0.00  0.00     0.181 C 
ENDBRANCH  15  18
ENDBRANCH   3  12
BRANCH   5  20
ATOM     20  O   UNL d   1     -40.245  14.863  20.464  0.00  0.00    -0.273 OA
BRANCH  20  21
ATOM     21  C   UNL d   1     -40.847  15.210  20.905  0.00  0.00     0.300 C 
ATOM     22  O   UNL d   1     -40.712  15.921  21.302  0.00  0.00    -0.259 OA
ATOM     23  C   UNL d   1     -41.585  14.846  20.950  0.00  0.00     0.074 C 
ENDBRANCH  20  21
ENDBRANCH   5  20
BRANCH  10  24
ATOM     24  O   UNL d   1     -39.180  13.687  22.831  0.00  0.00    -0.273 OA
BRANCH  24  25
ATOM     25  C   UNL d   1     -38.547  13.933  23.297  0.00  0.00     0.300 C 
ATOM     26  O   UNL d   1     -38.378  14.735  23.375  0.00  0.00    -0.259 OA
ATOM     27  C   UNL d   1     -38.074  13.379  23.691  0.00  0.00     0.074 C 
ENDBRANCH  24  25
ENDBRANCH  10  24
TORSDOF 6
ENDMDL
MODEL 5
REMARK VINA RESULT:      -5.4      1.062      2.213
REMARK  6 active torsions:
REMARK  status: ('A' for Active; 'I' for Inactive)
REMARK    1  A    between atoms: C_12  and  C_3 
REMARK    2  A    between atoms: O_11  and  C_5 
REMARK    3  A    between atoms: O_16  and  C_10 
REMARK    4  A    between atoms: C_13  and  O_11 
REMARK    5  A    between atoms: C_15  and  O_16 
REMARK    6  A    between atoms: O_24  and  C_21 
ROOT
ATOM      1  C   UNL d   1     -47.085  13.118  22.746  0.00  0.00     0.201 A 
ATOM      2  C   UNL d   1     -47.876  13.094  22.982  0.00  0.00     0.085 A 
ATOM      3  C   UNL d   1     -46.626  12.444  22.768  0.00  0.00     0.064 A 
ATOM      4  C   UNL d   1     -48.198  12.380  23.241  0.00  0.00     0.107 A 
ATOM      5  C   UNL d   1     -48.346  13.765  22.963  0.00  0.00     0.110 A 
ATOM      6  C   UNL d   1     -46.947  11.730  23.028  0.00  0.00     0.126 A 
ATOM      7  O   UNL d   1     -47.735  11.694  23.266  0.00  0.00    -0.305 OA
ATOM      8  C   UNL d   1     -48.986  12.344  23.479  0.00  0.00     0.050 A 
ATOM      9  C   UNL d   1     -49.122  13.733  23.197  0.00  0.00     0.050 A 
ATOM     10  C   UNL d   1     -49.444  13.019  23.456  0.00  0.00     0.107 A 
ATOM     11  O   UNL d   1     -46.763  13.832  22.486  0.00  0.00    -0.286 OA
ENDROOT
BRANCH   3  12
ATOM     12  C   UNL d   1     -45.831  12.476  22.530  0.00  0.00     0.005 A 
ATOM     13  C   UNL d   1     -45.617  12.901  21.859  0.00  0.00     0.002 A 
ATOM     14  C   UNL d   1     -44.831  12.931  21.623  0.00  0.00     0.024 A 
ATOM     15  C   UNL d   1     -44.253  12.532  22.063  0.00  0.00     0.094 A 
ATOM     16  C   UNL d   1     -44.464  12.108  22.733  0.00  0.00     0.024 A 
ATOM     17  C   UNL d   1     -45.256  12.078  22.968  0.00  0.00     0.002 A 
BRANCH  15  18
ATOM     18  O   UNL d   1     -43.461  12.562  21.828  0.00  0.00    -0.328 OA
ATOM     19  C   UNL d   1     -43.233  13.039  21.187  0.00  0.00     0.181 C 
ENDBRANCH  15  18
ENDBRANCH   3  12
BRANCH   5  20
ATOM     20  O   UNL d   1     -48.024  14.479  22.703  0.00  0.00    -0.273 OA
BRANCH  20  21
ATOM     21  C   UNL d   1     -48.509  15.136  22.597  0.00  0.00     0.300 C 
ATOM     22  O   UNL d   1     -48.927  15.232  21.892  0.00  0.00    -0.259 OA
ATOM     23  C   UNL d   1     -48.576  15.697  23.196  0.00  0.00     0.074 C 
ENDBRANCH  20  21
ENDBRANCH   5  20
BRANCH  10  24
ATOM     24  O   UNL d   1     -50.239  12.986  23.696  0.00  0.00    -0.273 OA
BRANCH  24  25
ATOM     25  C   UNL d   1     -50.756  12.461  23.327  0.00  0.00     0.300 C 
ATOM     26  O   UNL d   1     -51.063  12.638  22.583  0.00  0.00    -0.259 OA
ATOM     27  C   UNL d   1     -50.974  11.755  23.698  0.00  0.00     0.074 C 
ENDBRANCH  24  25
ENDBRANCH  10  24
TORSDOF 6
ENDMDL
MODEL 6
REMARK VINA RESULT:      -5.3      9.038      9.787
REMARK  6 active torsions:
REMARK  status: ('A' for Active; 'I' for Inactive)
REMARK    1  A    between atoms: C_12  and  C_3 
REMARK    2  A    between atoms: O_11  and  C_5 
REMARK    3  A    between atoms: O_16  and  C_10 
REMARK    4  A    between atoms: C_13  and  O_11 
REMARK    5  A    between atoms: C_15  and  O_16 
REMARK    6  A    between atoms: O_24  and  C_21 
ROOT
ATOM      1  C   UNL d   1     -39.072  14.662  19.651  0.00  0.00     0.201 A 
ATOM      2  C   UNL d   1     -39.397  14.915  18.934  0.00  0.00     0.085 A 
ATOM      3  C   UNL d   1     -39.277  15.031  20.349  0.00  0.00     0.064 A 
ATOM      4  C   UNL d   1     -39.930  15.544  18.932  0.00  0.00     0.107 A 
ATOM      5  C   UNL d   1     -39.198  14.552  18.227  0.00  0.00     0.110 A 
ATOM      6  C   UNL d   1     -39.810  15.660  20.348  0.00  0.00     0.126 A 
ATOM      7  O   UNL d   1     -40.140  15.920  19.639  0.00  0.00    -0.305 OA
ATOM      8  C   UNL d   1     -40.260  15.804  18.223  0.00  0.00     0.050 A 
ATOM      9  C   UNL d   1     -39.521  14.806  17.527  0.00  0.00     0.050 A 
ATOM     10  C   UNL d   1     -40.054  15.435  17.525  0.00  0.00     0.107 A 
ATOM     11  O   UNL d   1     -38.538  14.033  19.653  0.00  0.00    -0.286 OA
ENDROOT
BRANCH   3  12
ATOM     12  C   UNL d   1     -38.947  14.772  21.066  0.00  0.00     0.005 A 
ATOM     13  C   UNL d   1     -38.556  15.304  21.557  0.00  0.00     0.002 A 
ATOM     14  C   UNL d   1     -38.230  15.047  22.266  0.00  0.00     0.024 A 
ATOM     15  C   UNL d   1     -38.296  14.250  22.486  0.00  0.00     0.094 A 
ATOM     16  C   UNL d   1     -38.686  13.719  21.997  0.00  0.00     0.024 A 
ATOM     17  C   UNL d   1     -39.013  13.979  21.284  0.00  0.00     0.002 A 
BRANCH  15  18
ATOM     18  O   UNL d   1     -37.969  13.990  23.199  0.00  0.00    -0.328 OA
ATOM     19  C   UNL d   1     -38.191  13.255  23.517  0.00  0.00     0.181 C 
ENDBRANCH  15  18
ENDBRANCH   3  12
BRANCH   5  20
ATOM     20  O   UNL d   1     -38.664  13.922  18.228  0.00  0.00    -0.273 OA
BRANCH  20  21
ATOM     21  C   UNL d   1     -38.626  13.412  17.584  0.00  0.00     0.300 C 
ATOM     22  O   UNL d   1     -39.188  12.816  17.493  0.00  0.00    -0.259 OA
ATOM     23  C   UNL d   1     -38.023  13.499  17.028  0.00  0.00     0.074 C 
ENDBRANCH  20  21
ENDBRANCH   5  20
BRANCH  10  24
ATOM     24  O   UNL d   1     -40.385  15.694  16.808  0.00  0.00    -0.273 OA
BRANCH  24  25
ATOM     25  C   UNL d   1     -41.139  15.444  16.590  0.00  0.00     0.300 C 
ATOM     26  O   UNL d   1     -41.242  14.711  16.227  0.00  0.00    -0.259 OA
ATOM     27  C   UNL d   1     -41.799  15.922  16.732  0.00  0.00     0.074 C 
ENDBRANCH  24  25
ENDBRANCH  10  24
TORSDOF 6
ENDMDL
