MODEL 1
REMARK VINA RESULT:      -4.8      0.000      0.000
REMARK  5 active torsions:
REMARK  status: ('A' for Active; 'I' for Inactive)
REMARK    1  A    between atoms: N_2  and  C_1 
REMARK    2  A    between atoms: N_3  and  C_1 
REMARK       I    between atoms: C_4  and  N_2 
REMARK    3  A    between atoms: C_15  and  C_4 
REMARK    4  A    between atoms: O_17  and  C_9 
REMARK    5  A    between atoms: O_18  and  C_10 
ROOT
ATOM      1  N   UNL d   1      58.182  -0.300  30.353  0.00  0.00    -0.281 N 
ATOM      2  C   UNL d   1      57.272  -0.354  31.464  0.00  0.00     0.020 A 
ATOM      3  C   UNL d   1      57.547  -0.655  30.746  0.00  0.00     0.082 A 
ATOM      4  C   UNL d   1      57.642   0.315  31.794  0.00  0.00     0.005 A 
ATOM      5  C   UNL d   1      56.641  -0.703  31.861  0.00  0.00     0.028 A 
ATOM      6  C   UNL d   1      56.375  -0.395  32.576  0.00  0.00     0.116 A 
ATOM      7  C   UNL d   1      56.741   0.268  32.902  0.00  0.00     0.116 A 
ATOM      8  C   UNL d   1      57.373   0.623  32.513  0.00  0.00     0.026 A 
ATOM      9  C   UNL d   1      58.553   0.373  30.684  0.00  0.00     0.082 A 
ATOM     10  C   UNL d   1      58.279   0.680  31.410  0.00  0.00     0.019 A 
ENDROOT
BRANCH   1  11
ATOM     11  C   UNL d   1      58.453  -0.608  29.632  0.00  0.00     0.209 C 
ATOM     12  S   UNL d   1      58.504  -0.117  28.971  0.00  0.00    -0.038 SA
BRANCH  11  13
ATOM     13  N   UNL d   1      58.669  -1.401  29.578  0.00  0.00    -0.180 NA
ATOM     14  C   UNL d   1      59.193  -1.645  28.988  0.00  0.00     0.281 C 
ATOM     15  O   UNL d   1      59.498  -1.094  28.455  0.00  0.00    -0.265 OA
BRANCH  14  16
ATOM     16  C   UNL d   1      59.409  -2.442  28.937  0.00  0.00     0.058 A 
ATOM     17  C   UNL d   1      58.875  -2.986  28.627  0.00  0.00     0.005 A 
ATOM     18  C   UNL d   1      59.083  -3.780  28.573  0.00  0.00     0.000 A 
ATOM     19  C   UNL d   1      59.827  -4.027  28.831  0.00  0.00     0.000 A 
ATOM     20  C   UNL d   1      60.363  -3.474  29.143  0.00  0.00     0.000 A 
ATOM     21  C   UNL d   1      60.147  -2.678  29.194  0.00  0.00     0.005 A 
ENDBRANCH  14  16
ENDBRANCH  11  13
ENDBRANCH   1  11
BRANCH   6  22
ATOM     22  O   UNL d   1      55.743  -0.750  32.965  0.00  0.00    -0.326 OA
ATOM     23  C   UNL d   1      55.646  -1.569  32.935  0.00  0.00     0.181 C 
ENDBRANCH   6  22
BRANCH   7  24
ATOM     24  O   UNL d   1      56.470   0.575  33.623  0.00  0.00    -0.326 OA
ATOM     25  C   UNL d   1      56.984   0.646  34.262  0.00  0.00     0.181 C 
ENDBRANCH   7  24
TORSDOF 5
ENDMDL
MODEL 2
REMARK VINA RESULT:      -3.0      1.239      4.879
REMARK  5 active torsions:
REMARK  status: ('A' for Active; 'I' for Inactive)
REMARK    1  A    between atoms: N_2  and  C_1 
REMARK    2  A    between atoms: N_3  and  C_1 
REMARK       I    between atoms: C_4  and  N_2 
REMARK    3  A    between atoms: C_15  and  C_4 
REMARK    4  A    between atoms: O_17  and  C_9 
REMARK    5  A    between atoms: O_18  and  C_10 
ROOT
ATOM      1  N   UNL d   1      58.550  -0.753  29.824  0.00  0.00    -0.281 N 
ATOM      2  C   UNL d   1      58.982  -2.014  29.289  0.00  0.00     0.020 A 
ATOM      3  C   UNL d   1      58.377  -1.502  29.519  0.00  0.00     0.082 A 
ATOM      4  C   UNL d   1      59.775  -1.770  29.365  0.00  0.00     0.005 A 
ATOM      5  C   UNL d   1      58.817  -2.761  28.985  0.00  0.00     0.028 A 
ATOM      6  C   UNL d   1      59.427  -3.264  28.758  0.00  0.00     0.116 A 
ATOM      7  C   UNL d   1      60.212  -3.022  28.834  0.00  0.00     0.116 A 
ATOM      8  C   UNL d   1      60.386  -2.277  29.137  0.00  0.00     0.026 A 
ATOM      9  C   UNL d   1      59.346  -0.507  29.901  0.00  0.00     0.082 A 
ATOM     10  C   UNL d   1      59.960  -1.022  29.669  0.00  0.00     0.019 A 
ENDROOT
BRANCH   1  11
ATOM     11  C   UNL d   1      57.937  -0.242  30.053  0.00  0.00     0.209 C 
ATOM     12  S   UNL d   1      57.862   0.496  29.693  0.00  0.00    -0.038 SA
BRANCH  11  13
ATOM     13  N   UNL d   1      57.407  -0.475  30.641  0.00  0.00    -0.180 NA
ATOM     14  C   UNL d   1      57.316  -0.011  31.318  0.00  0.00     0.281 C 
ATOM     15  O   UNL d   1      57.756   0.681  31.405  0.00  0.00    -0.265 OA
BRANCH  14  16
ATOM     16  C   UNL d   1      56.783  -0.247  31.906  0.00  0.00     0.058 A 
ATOM     17  C   UNL d   1      56.390   0.325  32.347  0.00  0.00     0.005 A 
ATOM     18  C   UNL d   1      55.859   0.097  32.933  0.00  0.00     0.000 A 
ATOM     19  C   UNL d   1      55.724  -0.704  33.074  0.00  0.00     0.000 A 
ATOM     20  C   UNL d   1      56.123  -1.278  32.627  0.00  0.00     0.000 A 
ATOM     21  C   UNL d   1      56.656  -1.042  32.040  0.00  0.00     0.005 A 
ENDBRANCH  14  16
ENDBRANCH  11  13
ENDBRANCH   1  11
BRANCH   6  22
ATOM     22  O   UNL d   1      59.253  -4.009  28.455  0.00  0.00    -0.326 OA
ATOM     23  C   UNL d   1      58.479  -4.293  28.477  0.00  0.00     0.181 C 
ENDBRANCH   6  22
BRANCH   7  24
ATOM     24  O   UNL d   1      60.825  -3.532  28.604  0.00  0.00    -0.326 OA
ATOM     25  C   UNL d   1      60.997  -4.200  29.054  0.00  0.00     0.181 C 
ENDBRANCH   7  24
TORSDOF 5
ENDMDL
MODEL 3
REMARK VINA RESULT:      -2.6      1.451      2.048
REMARK  5 active torsions:
REMARK  status: ('A' for Active; 'I' for Inactive)
REMARK    1  A    between atoms: N_2  and  C_1 
REMARK    2  A    between atoms: N_3  and  C_1 
REMARK       I    between atoms: C_4  and  N_2 
REMARK    3  A    between atoms: C_15  and  C_4 
REMARK    4  A    between atoms: O_17  and  C_9 
REMARK    5  A    between atoms: O_18  and  C_10 
ROOT
ATOM      1  N   UNL d   1      57.694   0.436  31.624  0.00  0.00    -0.281 N 
ATOM      2  C   UNL d   1      56.705   0.434  32.666  0.00  0.00     0.020 A 
ATOM      3  C   UNL d   1      56.909   0.354  31.870  0.00  0.00     0.082 A 
ATOM      4  C   UNL d   1      57.300   0.598  33.225  0.00  0.00     0.005 A 
ATOM      5  C   UNL d   1      55.925   0.354  32.917  0.00  0.00     0.028 A 
ATOM      6  C   UNL d   1      55.732   0.435  33.713  0.00  0.00     0.116 A 
ATOM      7  C   UNL d   1      56.321   0.598  34.267  0.00  0.00     0.116 A 
ATOM      8  C   UNL d   1      57.103   0.679  34.024  0.00  0.00     0.026 A 
ATOM      9  C   UNL d   1      58.292   0.601  32.186  0.00  0.00     0.082 A 
ATOM     10  C   UNL d   1      58.090   0.682  32.991  0.00  0.00     0.019 A 
ENDROOT
BRANCH   1  11
ATOM     11  C   UNL d   1      57.893   0.355  30.823  0.00  0.00     0.209 C 
ATOM     12  S   UNL d   1      57.381   0.642  30.243  0.00  0.00    -0.038 SA
BRANCH  11  13
ATOM     13  N   UNL d   1      58.600  -0.012  30.609  0.00  0.00    -0.180 NA
ATOM     14  C   UNL d   1      58.851   0.008  29.823  0.00  0.00     0.281 C 
ATOM     15  O   UNL d   1      58.395   0.394  29.255  0.00  0.00    -0.265 OA
BRANCH  14  16
ATOM     16  C   UNL d   1      59.561  -0.361  29.611  0.00  0.00     0.058 A 
ATOM     17  C   UNL d   1      60.276  -0.002  29.803  0.00  0.00     0.005 A 
ATOM     18  C   UNL d   1      60.985  -0.364  29.595  0.00  0.00     0.000 A 
ATOM     19  C   UNL d   1      60.975  -1.086  29.196  0.00  0.00     0.000 A 
ATOM     20  C   UNL d   1      60.251  -1.445  29.005  0.00  0.00     0.000 A 
ATOM     21  C   UNL d   1      59.542  -1.076  29.216  0.00  0.00     0.005 A 
ENDBRANCH  14  16
ENDBRANCH  11  13
ENDBRANCH   1  11
BRANCH   6  22
ATOM     22  O   UNL d   1      54.950   0.354  33.955  0.00  0.00    -0.326 OA
ATOM     23  C   UNL d   1      54.336   0.495  33.423  0.00  0.00     0.181 C 
ENDBRANCH   6  22
BRANCH   7  24
ATOM     24  O   UNL d   1      56.123   0.679  35.068  0.00  0.00    -0.326 OA
ATOM     25  C   UNL d   1      56.709   0.647  35.645  0.00  0.00     0.181 C 
ENDBRANCH   7  24
TORSDOF 5
ENDMDL
MODEL 4
REMARK VINA RESULT:      -2.2      1.514      5.180
REMARK  5 active torsions:
REMARK  status: ('A' for Active; 'I' for Inactive)
REMARK    1  A    between atoms: N_2  and  C_1 
REMARK    2  A    between atoms: N_3  and  C_1 
REMARK       I    between atoms: C_4  and  N_2 
REMARK    3  A    between atoms: C_15  and  C_4 
REMARK    4  A    between atoms: O_17  and  C_9 
REMARK    5  A    between atoms: O_18  and  C_10 
ROOT
ATOM      1  N   UNL d   1      57.273  -0.496  31.240  0.00  0.00    -0.281 N 
ATOM      2  C   UNL d   1      58.240  -0.633  30.186  0.00  0.00     0.020 A 
ATOM      3  C   UNL d   1      57.720  -0.971  30.732  0.00  0.00     0.082 A 
ATOM      4  C   UNL d   1      58.312   0.196  30.151  0.00  0.00     0.005 A 
ATOM      5  C   UNL d   1      58.689  -1.099  29.678  0.00  0.00     0.028 A 
ATOM      6  C   UNL d   1      59.204  -0.753  29.138  0.00  0.00     0.116 A 
ATOM      7  C   UNL d   1      59.275   0.068  29.103  0.00  0.00     0.116 A 
ATOM      8  C   UNL d   1      58.831   0.542  29.608  0.00  0.00     0.026 A 
ATOM      9  C   UNL d   1      57.345   0.337  31.205  0.00  0.00     0.082 A 
ATOM     10  C   UNL d   1      57.869   0.682  30.656  0.00  0.00     0.019 A 
ENDROOT
BRANCH   1  11
ATOM     11  C   UNL d   1      56.752  -0.842  31.786  0.00  0.00     0.209 C 
ATOM     12  S   UNL d   1      56.604  -1.653  31.754  0.00  0.00    -0.038 SA
BRANCH  11  13
ATOM     13  N   UNL d   1      56.385  -0.374  32.357  0.00  0.00    -0.180 NA
ATOM     14  C   UNL d   1      56.056  -0.728  33.027  0.00  0.00     0.281 C 
ATOM     15  O   UNL d   1      56.097  -1.546  33.122  0.00  0.00    -0.265 OA
BRANCH  14  16
ATOM     16  C   UNL d   1      55.688  -0.256  33.599  0.00  0.00     0.058 A 
ATOM     17  C   UNL d   1      54.987   0.132  33.412  0.00  0.00     0.005 A 
ATOM     18  C   UNL d   1      54.617   0.603  33.976  0.00  0.00     0.000 A 
ATOM     19  C   UNL d   1      54.950   0.682  34.727  0.00  0.00     0.000 A 
ATOM     20  C   UNL d   1      55.657   0.288  34.911  0.00  0.00     0.000 A 
ATOM     21  C   UNL d   1      56.025  -0.183  34.340  0.00  0.00     0.005 A 
ENDBRANCH  14  16
ENDBRANCH  11  13
ENDBRANCH   1  11
BRANCH   6  22
ATOM     22  O   UNL d   1      59.648  -1.227  28.633  0.00  0.00    -0.326 OA
ATOM     23  C   UNL d   1      59.770  -2.022  28.814  0.00  0.00     0.181 C 
ENDBRANCH   6  22
BRANCH   7  24
ATOM     24  O   UNL d   1      59.796   0.414  28.558  0.00  0.00    -0.326 OA
ATOM     25  C   UNL d   1      60.560   0.614  28.786  0.00  0.00     0.181 C 
ENDBRANCH   7  24
TORSDOF 5
ENDMDL
