MODEL 1
REMARK VINA RESULT:      55.8      0.000      0.000
REMARK  5 active torsions:
REMARK  status: ('A' for Active; 'I' for Inactive)
REMARK       I    between atoms: C_4  and  N_1 
REMARK    1  A    between atoms: C_8  and  C_3 
REMARK    2  A    between atoms: C_9  and  C_4 
REMARK    3  A    between atoms: S_5  and  N_10 
REMARK    4  A    between atoms: C_11  and  C_6 
REMARK    5  A    between atoms: N_10  and  C_22 
ROOT
ATOM      1  N   UNL d   1      14.018  13.125  -2.336  0.00  0.00    -0.193 N 
ATOM      2  N   UNL d   1      14.321  13.750  -1.885  0.00  0.00    -0.163 NA
ATOM      3  C   UNL d   1      13.801  13.433  -3.076  0.00  0.00     0.090 A 
ATOM      4  C   UNL d   1      13.948  12.342  -2.088  0.00  0.00     0.303 C 
ATOM      5  C   UNL d   1      14.292  14.436  -2.341  0.00  0.00     0.103 A 
ATOM      6  C   UNL d   1      13.970  14.236  -3.074  0.00  0.00     0.040 A 
ATOM      7  O   UNL d   1      13.632  11.780  -2.607  0.00  0.00    -0.263 OA
ENDROOT
BRANCH   5   8
ATOM      8  C   UNL d   1      14.538  15.184  -2.106  0.00  0.00     0.019 A 
ATOM      9  C   UNL d   1      14.631  15.775  -2.665  0.00  0.00     0.003 A 
ATOM     10  C   UNL d   1      14.879  16.529  -2.429  0.00  0.00     0.020 A 
ATOM     11  C   UNL d   1      15.033  16.684  -1.630  0.00  0.00     0.093 A 
ATOM     12  C   UNL d   1      14.937  16.082  -1.072  0.00  0.00     0.020 A 
ATOM     13  C   UNL d   1      14.692  15.337  -1.304  0.00  0.00     0.003 A 
BRANCH  11  14
ATOM     14  N   UNL d   1      15.279  17.436  -1.403  0.00  0.00    -0.162 NA
BRANCH  14  15
ATOM     15  S   UNL d   1      15.788  17.540  -0.771  0.00  0.00     0.266 S 
ATOM     16  O   UNL d   1      16.353  17.415  -1.364  0.00  0.00    -0.203 OA
ATOM     17  O   UNL d   1      16.518  17.593  -0.387  0.00  0.00    -0.203 OA
ATOM     18  C   UNL d   1      15.247  17.667  -0.165  0.00  0.00     0.165 C 
ENDBRANCH  14  15
ENDBRANCH  11  14
ENDBRANCH   5   8
BRANCH   3  19
ATOM     19  C   UNL d   1      13.476  13.004  -3.691  0.00  0.00     0.045 A 
ATOM     20  C   UNL d   1      13.110  13.422  -4.317  0.00  0.00     0.141 A 
ATOM     21  F   UNL d   1      13.085  14.247  -4.300  0.00  0.00    -0.204 F 
ATOM     22  C   UNL d   1      12.777  12.996  -4.947  0.00  0.00     0.030 A 
ATOM     23  C   UNL d   1      12.808  12.214  -4.950  0.00  0.00     0.002 A 
ATOM     24  C   UNL d   1      13.175  11.795  -4.324  0.00  0.00     0.000 A 
ATOM     25  C   UNL d   1      13.520  12.157  -3.677  0.00  0.00     0.004 A 
ENDBRANCH   3  19
BRANCH   4  26
ATOM     26  C   UNL d   1      14.188  12.127  -1.342  0.00  0.00     0.158 A 
ATOM     27  O   UNL d   1      13.685  12.010  -0.677  0.00  0.00    -0.300 OA
ATOM     28  C   UNL d   1      14.165  11.798  -0.039  0.00  0.00     0.123 A 
ATOM     29  C   UNL d   1      14.944  11.783  -0.298  0.00  0.00     0.029 A 
ATOM     30  C   UNL d   1      14.942  11.988  -1.101  0.00  0.00     0.032 A 
ENDBRANCH   4  26
TORSDOF 5
ENDMDL
MODEL 2
REMARK VINA RESULT:      56.5      1.785      3.161
REMARK  5 active torsions:
REMARK  status: ('A' for Active; 'I' for Inactive)
REMARK       I    between atoms: C_4  and  N_1 
REMARK    1  A    between atoms: C_8  and  C_3 
REMARK    2  A    between atoms: C_9  and  C_4 
REMARK    3  A    between atoms: S_5  and  N_10 
REMARK    4  A    between atoms: C_11  and  C_6 
REMARK    5  A    between atoms: N_10  and  C_22 
ROOT
ATOM      1  N   UNL d   1      13.993  13.142  -2.719  0.00  0.00    -0.193 N 
ATOM      2  N   UNL d   1      14.065  13.816  -3.195  0.00  0.00    -0.163 NA
ATOM      3  C   UNL d   1      14.261  13.343  -1.959  0.00  0.00     0.090 A 
ATOM      4  C   UNL d   1      13.705  12.409  -2.963  0.00  0.00     0.303 C 
ATOM      5  C   UNL d   1      14.374  14.426  -2.735  0.00  0.00     0.103 A 
ATOM      6  C   UNL d   1      14.493  14.130  -1.974  0.00  0.00     0.040 A 
ATOM      7  O   UNL d   1      13.668  11.787  -2.418  0.00  0.00    -0.263 OA
ENDROOT
BRANCH   5   8
ATOM      8  C   UNL d   1      14.534  15.191  -2.989  0.00  0.00     0.019 A 
ATOM      9  C   UNL d   1      14.300  15.428  -3.736  0.00  0.00     0.003 A 
ATOM     10  C   UNL d   1      14.461  16.199  -3.992  0.00  0.00     0.020 A 
ATOM     11  C   UNL d   1      14.858  16.728  -3.493  0.00  0.00     0.093 A 
ATOM     12  C   UNL d   1      15.091  16.480  -2.740  0.00  0.00     0.020 A 
ATOM     13  C   UNL d   1      14.933  15.719  -2.486  0.00  0.00     0.003 A 
BRANCH  11  14
ATOM     14  N   UNL d   1      15.015  17.492  -3.755  0.00  0.00    -0.162 NA
BRANCH  14  15
ATOM     15  S   UNL d   1      15.190  17.641  -4.540  0.00  0.00     0.266 S 
ATOM     16  O   UNL d   1      14.679  18.278  -4.406  0.00  0.00    -0.203 OA
ATOM     17  O   UNL d   1      15.156  18.045  -5.261  0.00  0.00    -0.203 OA
ATOM     18  C   UNL d   1      15.700  17.016  -4.699  0.00  0.00     0.165 C 
ENDBRANCH  14  15
ENDBRANCH  11  14
ENDBRANCH   5   8
BRANCH   3  19
ATOM     19  C   UNL d   1      14.285  12.838  -1.316  0.00  0.00     0.045 A 
ATOM     20  C   UNL d   1      14.931  12.899  -0.788  0.00  0.00     0.141 A 
ATOM     21  F   UNL d   1      15.522  13.459  -0.925  0.00  0.00    -0.204 F 
ATOM     22  C   UNL d   1      14.965  12.392  -0.132  0.00  0.00     0.030 A 
ATOM     23  C   UNL d   1      14.398  11.866  -0.014  0.00  0.00     0.002 A 
ATOM     24  C   UNL d   1      13.751  11.804  -0.543  0.00  0.00     0.000 A 
ATOM     25  C   UNL d   1      13.661  12.275  -1.206  0.00  0.00     0.004 A 
ENDBRANCH   3  19
BRANCH   4  26
ATOM     26  C   UNL d   1      13.463  12.301  -3.731  0.00  0.00     0.158 A 
ATOM     27  O   UNL d   1      13.841  11.813  -4.304  0.00  0.00    -0.300 OA
ATOM     28  C   UNL d   1      13.405  11.871  -5.003  0.00  0.00     0.123 A 
ATOM     29  C   UNL d   1      12.774  12.379  -4.871  0.00  0.00     0.029 A 
ATOM     30  C   UNL d   1      12.823  12.636  -4.084  0.00  0.00     0.032 A 
ENDBRANCH   4  26
TORSDOF 5
ENDMDL
