MODEL 1
REMARK VINA RESULT:      -4.9      0.000      0.000
REMARK  3 active torsions:
REMARK  status: ('A' for Active; 'I' for Inactive)
REMARK    1  A    between atoms: N_5  and  C_1 
REMARK    2  A    between atoms: N_8  and  N_5 
REMARK    3  A    between atoms: C_7  and  N_8 
ROOT
ATOM      1  C   UNL d   1      56.340  -0.487  32.688  0.00  0.00     0.162 A 
ATOM      2  C   UNL d   1      56.254  -1.301  32.594  0.00  0.00     0.299 A 
ATOM      3  N   UNL d   1      56.633  -1.518  31.893  0.00  0.00    -0.207 NA
ATOM      4  C   UNL d   1      56.774  -0.196  32.043  0.00  0.00     0.042 A 
ATOM      5  C   UNL d   1      56.956  -0.833  31.552  0.00  0.00     0.086 A 
ATOM      6  O   UNL d   1      55.857  -1.812  33.110  0.00  0.00    -0.263 OA
ATOM      7  C   UNL d   1      57.025   0.568  31.846  0.00  0.00     0.003 A 
ATOM      8  C   UNL d   1      57.388  -0.705  30.864  0.00  0.00     0.019 A 
ATOM      9  C   UNL d   1      57.456   0.682  31.156  0.00  0.00     0.000 A 
ATOM     10  C   UNL d   1      57.638   0.042  30.663  0.00  0.00     0.002 A 
ENDROOT
BRANCH   1  11
ATOM     11  N   UNL d   1      56.045  -0.032  33.315  0.00  0.00    -0.141 NA
BRANCH  11  12
ATOM     12  N   UNL d   1      55.224   0.001  33.448  0.00  0.00    -0.115 NA
BRANCH  12  13
ATOM     13  C   UNL d   1      54.929   0.455  34.076  0.00  0.00     0.260 C 
ATOM     14  S   UNL d   1      54.133   0.682  34.090  0.00  0.00    -0.034 SA
ATOM     15  N   UNL d   1      55.441   0.681  34.692  0.00  0.00    -0.113 N 
ENDBRANCH  12  13
ENDBRANCH  11  12
ENDBRANCH   1  11
TORSDOF 3
ENDMDL
MODEL 2
REMARK VINA RESULT:      -4.9      2.061      3.187
REMARK  3 active torsions:
REMARK  status: ('A' for Active; 'I' for Inactive)
REMARK    1  A    between atoms: N_5  and  C_1 
REMARK    2  A    between atoms: N_8  and  N_5 
REMARK    3  A    between atoms: C_7  and  N_8 
ROOT
ATOM      1  C   UNL d   1      56.614  -0.436  31.810  0.00  0.00     0.162 A 
ATOM      2  C   UNL d   1      56.656  -1.258  31.837  0.00  0.00     0.299 A 
ATOM      3  N   UNL d   1      56.243  -1.512  32.506  0.00  0.00    -0.207 NA
ATOM      4  C   UNL d   1      56.174  -0.177  32.463  0.00  0.00     0.042 A 
ATOM      5  C   UNL d   1      55.944  -0.841  32.893  0.00  0.00     0.086 A 
ATOM      6  O   UNL d   1      57.044  -1.745  31.291  0.00  0.00    -0.263 OA
ATOM      7  C   UNL d   1      55.955   0.581  32.717  0.00  0.00     0.003 A 
ATOM      8  C   UNL d   1      55.496  -0.748  33.577  0.00  0.00     0.019 A 
ATOM      9  C   UNL d   1      55.508   0.660  33.401  0.00  0.00     0.000 A 
ATOM     10  C   UNL d   1      55.277  -0.008  33.833  0.00  0.00     0.002 A 
ENDROOT
BRANCH   1  11
ATOM     11  N   UNL d   1      56.952   0.053  31.232  0.00  0.00    -0.141 NA
BRANCH  11  12
ATOM     12  N   UNL d   1      57.760  -0.028  31.046  0.00  0.00    -0.115 NA
BRANCH  12  13
ATOM     13  C   UNL d   1      58.090   0.435  30.442  0.00  0.00     0.260 C 
ATOM     14  S   UNL d   1      58.883   0.666  30.479  0.00  0.00    -0.034 SA
ATOM     15  N   UNL d   1      57.615   0.665  29.799  0.00  0.00    -0.113 N 
ENDBRANCH  12  13
ENDBRANCH  11  12
ENDBRANCH   1  11
TORSDOF 3
ENDMDL
MODEL 3
REMARK VINA RESULT:      -3.2      2.132      3.426
REMARK  3 active torsions:
REMARK  status: ('A' for Active; 'I' for Inactive)
REMARK    1  A    between atoms: N_5  and  C_1 
REMARK    2  A    between atoms: N_8  and  N_5 
REMARK    3  A    between atoms: C_7  and  N_8 
ROOT
ATOM      1  C   UNL d   1      56.986   0.673  32.882  0.00  0.00     0.162 A 
ATOM      2  C   UNL d   1      57.564   0.671  33.468  0.00  0.00     0.299 A 
ATOM      3  N   UNL d   1      57.184   0.663  34.201  0.00  0.00    -0.207 NA
ATOM      4  C   UNL d   1      56.243   0.666  33.252  0.00  0.00     0.042 A 
ATOM      5  C   UNL d   1      56.365   0.660  34.067  0.00  0.00     0.086 A 
ATOM      6  O   UNL d   1      58.383   0.676  33.344  0.00  0.00    -0.263 OA
ATOM      7  C   UNL d   1      55.473   0.665  32.945  0.00  0.00     0.003 A 
ATOM      8  C   UNL d   1      55.719   0.653  34.575  0.00  0.00     0.019 A 
ATOM      9  C   UNL d   1      54.836   0.657  33.463  0.00  0.00     0.000 A 
ATOM     10  C   UNL d   1      54.960   0.651  34.282  0.00  0.00     0.002 A 
ENDROOT
BRANCH   1  11
ATOM     11  N   UNL d   1      57.116   0.680  32.064  0.00  0.00    -0.141 NA
BRANCH  11  12
ATOM     12  N   UNL d   1      57.285  -0.034  31.668  0.00  0.00    -0.115 NA
BRANCH  12  13
ATOM     13  C   UNL d   1      57.533  -0.015  30.877  0.00  0.00     0.260 C 
ATOM     14  S   UNL d   1      57.920  -0.666  30.545  0.00  0.00    -0.034 SA
ATOM     15  N   UNL d   1      57.389   0.666  30.421  0.00  0.00    -0.113 N 
ENDBRANCH  12  13
ENDBRANCH  11  12
ENDBRANCH   1  11
TORSDOF 3
ENDMDL
MODEL 4
REMARK VINA RESULT:      -2.8      1.520      1.957
REMARK  3 active torsions:
REMARK  status: ('A' for Active; 'I' for Inactive)
REMARK    1  A    between atoms: N_5  and  C_1 
REMARK    2  A    between atoms: N_8  and  N_5 
REMARK    3  A    between atoms: C_7  and  N_8 
ROOT
ATOM      1  C   UNL d   1      57.408  -0.339  31.132  0.00  0.00     0.162 A 
ATOM      2  C   UNL d   1      57.249  -1.139  31.026  0.00  0.00     0.299 A 
ATOM      3  N   UNL d   1      57.698  -1.406  30.386  0.00  0.00    -0.207 NA
ATOM      4  C   UNL d   1      57.959  -0.105  30.556  0.00  0.00     0.042 A 
ATOM      5  C   UNL d   1      58.138  -0.765  30.095  0.00  0.00     0.086 A 
ATOM      6  O   UNL d   1      56.730  -1.598  31.480  0.00  0.00    -0.263 OA
ATOM      7  C   UNL d   1      58.316   0.625  30.398  0.00  0.00     0.003 A 
ATOM      8  C   UNL d   1      58.674  -0.693  29.476  0.00  0.00     0.019 A 
ATOM      9  C   UNL d   1      58.850   0.682  29.777  0.00  0.00     0.000 A 
ATOM     10  C   UNL d   1      59.030   0.020  29.313  0.00  0.00     0.002 A 
ENDROOT
BRANCH   1  11
ATOM     11  N   UNL d   1      57.079   0.154  31.712  0.00  0.00    -0.141 NA
BRANCH  11  12
ATOM     12  N   UNL d   1      57.057  -0.102  32.504  0.00  0.00    -0.115 NA
BRANCH  12  13
ATOM     13  C   UNL d   1      56.790   0.415  33.095  0.00  0.00     0.260 C 
ATOM     14  S   UNL d   1      56.001   0.664  33.106  0.00  0.00    -0.034 SA
ATOM     15  N   UNL d   1      57.323   0.682  33.675  0.00  0.00    -0.113 N 
ENDBRANCH  12  13
ENDBRANCH  11  12
ENDBRANCH   1  11
TORSDOF 3
ENDMDL
MODEL 5
REMARK VINA RESULT:      -2.7      3.096      4.117
REMARK  3 active torsions:
REMARK  status: ('A' for Active; 'I' for Inactive)
REMARK    1  A    between atoms: N_5  and  C_1 
REMARK    2  A    between atoms: N_8  and  N_5 
REMARK    3  A    between atoms: C_7  and  N_8 
ROOT
ATOM      1  C   UNL d   1      58.542  -0.711  29.484  0.00  0.00     0.162 A 
ATOM      2  C   UNL d   1      59.020  -0.139  29.135  0.00  0.00     0.299 A 
ATOM      3  N   UNL d   1      59.598  -0.528  28.690  0.00  0.00    -0.207 NA
ATOM      4  C   UNL d   1      58.822  -1.458  29.256  0.00  0.00     0.042 A 
ATOM      5  C   UNL d   1      59.475  -1.345  28.766  0.00  0.00     0.086 A 
ATOM      6  O   UNL d   1      58.938   0.681  29.215  0.00  0.00    -0.263 OA
ATOM      7  C   UNL d   1      58.562  -2.224  29.436  0.00  0.00     0.003 A 
ATOM      8  C   UNL d   1      59.867  -1.998  28.455  0.00  0.00     0.019 A 
ATOM      9  C   UNL d   1      58.963  -2.867  29.119  0.00  0.00     0.000 A 
ATOM     10  C   UNL d   1      59.619  -2.753  28.626  0.00  0.00     0.002 A 
ENDROOT
BRANCH   1  11
ATOM     11  N   UNL d   1      57.891  -0.571  29.978  0.00  0.00    -0.141 NA
BRANCH  11  12
ATOM     12  N   UNL d   1      58.011  -0.230  30.728  0.00  0.00    -0.115 NA
BRANCH  12  13
ATOM     13  C   UNL d   1      57.369  -0.139  31.245  0.00  0.00     0.260 C 
ATOM     14  S   UNL d   1      57.125   0.616  31.479  0.00  0.00    -0.034 SA
ATOM     15  N   UNL d   1      56.972  -0.814  31.525  0.00  0.00    -0.113 N 
ENDBRANCH  12  13
ENDBRANCH  11  12
ENDBRANCH   1  11
TORSDOF 3
ENDMDL
MODEL 6
REMARK VINA RESULT:      -2.5      2.974      3.826
REMARK  3 active torsions:
REMARK  status: ('A' for Active; 'I' for Inactive)
REMARK    1  A    between atoms: N_5  and  C_1 
REMARK    2  A    between atoms: N_8  and  N_5 
REMARK    3  A    between atoms: C_7  and  N_8 
ROOT
ATOM      1  C   UNL d   1      58.413   0.609  29.770  0.00  0.00     0.162 A 
ATOM      2  C   UNL d   1      58.162   0.631  28.986  0.00  0.00     0.299 A 
ATOM      3  N   UNL d   1      58.832   0.592  28.504  0.00  0.00    -0.207 NA
ATOM      4  C   UNL d   1      59.241   0.557  29.776  0.00  0.00     0.042 A 
ATOM      5  C   UNL d   1      59.500   0.546  28.994  0.00  0.00     0.086 A 
ATOM      6  O   UNL d   1      57.378   0.682  28.726  0.00  0.00    -0.263 OA
ATOM      7  C   UNL d   1      59.787   0.518  30.398  0.00  0.00     0.003 A 
ATOM      8  C   UNL d   1      60.305   0.497  28.834  0.00  0.00     0.019 A 
ATOM      9  C   UNL d   1      60.588   0.469  30.224  0.00  0.00     0.000 A 
ATOM     10  C   UNL d   1      60.848   0.458  29.438  0.00  0.00     0.002 A 
ENDROOT
BRANCH   1  11
ATOM     11  N   UNL d   1      57.926   0.635  30.441  0.00  0.00    -0.141 NA
BRANCH  11  12
ATOM     12  N   UNL d   1      57.545  -0.060  30.698  0.00  0.00    -0.115 NA
BRANCH  12  13
ATOM     13  C   UNL d   1      57.076  -0.040  31.382  0.00  0.00     0.260 C 
ATOM     14  S   UNL d   1      56.948  -0.729  31.821  0.00  0.00    -0.034 SA
ATOM     15  N   UNL d   1      56.735   0.680  31.622  0.00  0.00    -0.113 N 
ENDBRANCH  12  13
ENDBRANCH  11  12
ENDBRANCH   1  11
TORSDOF 3
ENDMDL
MODEL 7
REMARK VINA RESULT:      -2.5      3.803      4.827
REMARK  3 active torsions:
REMARK  status: ('A' for Active; 'I' for Inactive)
REMARK    1  A    between atoms: N_5  and  C_1 
REMARK    2  A    between atoms: N_8  and  N_5 
REMARK    3  A    between atoms: C_7  and  N_8 
ROOT
ATOM      1  C   UNL d   1      58.487  -0.845  29.701  0.00  0.00     0.162 A 
ATOM      2  C   UNL d   1      58.862  -0.197  29.357  0.00  0.00     0.299 A 
ATOM      3  N   UNL d   1      58.611   0.483  29.754  0.00  0.00    -0.207 NA
ATOM      4  C   UNL d   1      58.001  -0.567  30.314  0.00  0.00     0.042 A 
ATOM      5  C   UNL d   1      58.077   0.252  30.346  0.00  0.00     0.086 A 
ATOM      6  O   UNL d   1      59.397  -0.222  28.726  0.00  0.00    -0.263 OA
ATOM      7  C   UNL d   1      57.500  -0.962  30.842  0.00  0.00     0.003 A 
ATOM      8  C   UNL d   1      57.652   0.677  30.908  0.00  0.00     0.019 A 
ATOM      9  C   UNL d   1      57.082  -0.525  31.398  0.00  0.00     0.000 A 
ATOM     10  C   UNL d   1      57.158   0.298  31.431  0.00  0.00     0.002 A 
ENDROOT
BRANCH   1  11
ATOM     11  N   UNL d   1      58.577  -1.638  29.478  0.00  0.00    -0.141 NA
BRANCH  11  12
ATOM     12  N   UNL d   1      59.295  -1.892  29.142  0.00  0.00    -0.115 NA
BRANCH  12  13
ATOM     13  C   UNL d   1      59.431  -2.702  29.029  0.00  0.00     0.260 C 
ATOM     14  S   UNL d   1      60.194  -3.012  29.103  0.00  0.00    -0.034 SA
ATOM     15  N   UNL d   1      58.791  -3.200  28.841  0.00  0.00    -0.113 N 
ENDBRANCH  12  13
ENDBRANCH  11  12
ENDBRANCH   1  11
TORSDOF 3
ENDMDL
MODEL 8
REMARK VINA RESULT:      -2.4      2.135      2.773
REMARK  3 active torsions:
REMARK  status: ('A' for Active; 'I' for Inactive)
REMARK    1  A    between atoms: N_5  and  C_1 
REMARK    2  A    between atoms: N_8  and  N_5 
REMARK    3  A    between atoms: C_7  and  N_8 
ROOT
ATOM      1  C   UNL d   1      58.206   0.629  31.306  0.00  0.00     0.162 A 
ATOM      2  C   UNL d   1      58.948   0.658  31.661  0.00  0.00     0.299 A 
ATOM      3  N   UNL d   1      59.516   0.682  31.062  0.00  0.00    -0.207 NA
ATOM      4  C   UNL d   1      58.312   0.634  30.483  0.00  0.00     0.042 A 
ATOM      5  C   UNL d   1      59.122   0.667  30.332  0.00  0.00     0.086 A 
ATOM      6  O   UNL d   1      59.099   0.664  32.475  0.00  0.00    -0.263 OA
ATOM      7  C   UNL d   1      57.771   0.612  29.856  0.00  0.00     0.003 A 
ATOM      8  C   UNL d   1      59.390   0.678  29.555  0.00  0.00     0.019 A 
ATOM      9  C   UNL d   1      58.052   0.624  29.085  0.00  0.00     0.000 A 
ATOM     10  C   UNL d   1      58.865   0.657  28.933  0.00  0.00     0.002 A 
ENDROOT
BRANCH   1  11
ATOM     11  N   UNL d   1      57.476   0.599  31.697  0.00  0.00    -0.141 NA
BRANCH  11  12
ATOM     12  N   UNL d   1      57.246  -0.101  32.085  0.00  0.00    -0.115 NA
BRANCH  12  13
ATOM     13  C   UNL d   1      56.493  -0.152  32.427  0.00  0.00     0.260 C 
ATOM     14  S   UNL d   1      56.174  -0.888  32.630  0.00  0.00    -0.034 SA
ATOM     15  N   UNL d   1      56.060   0.545  32.565  0.00  0.00    -0.113 N 
ENDBRANCH  12  13
ENDBRANCH  11  12
ENDBRANCH   1  11
TORSDOF 3
ENDMDL
MODEL 9
REMARK VINA RESULT:      -2.4      4.734      5.597
REMARK  3 active torsions:
REMARK  status: ('A' for Active; 'I' for Inactive)
REMARK    1  A    between atoms: N_5  and  C_1 
REMARK    2  A    between atoms: N_8  and  N_5 
REMARK    3  A    between atoms: C_7  and  N_8 
ROOT
ATOM      1  C   UNL d   1      59.487  -1.527  29.041  0.00  0.00     0.162 A 
ATOM      2  C   UNL d   1      58.714  -1.593  29.316  0.00  0.00     0.299 A 
ATOM      3  N   UNL d   1      58.510  -2.394  29.313  0.00  0.00    -0.207 NA
ATOM      4  C   UNL d   1      59.766  -2.289  28.865  0.00  0.00     0.042 A 
ATOM      5  C   UNL d   1      59.162  -2.825  29.033  0.00  0.00     0.086 A 
ATOM      6  O   UNL d   1      58.226  -0.968  29.555  0.00  0.00    -0.263 OA
ATOM      7  C   UNL d   1      60.493  -2.557  28.574  0.00  0.00     0.003 A 
ATOM      8  C   UNL d   1      59.286  -3.628  28.910  0.00  0.00     0.019 A 
ATOM      9  C   UNL d   1      60.604  -3.363  28.456  0.00  0.00     0.000 A 
ATOM     10  C   UNL d   1      59.997  -3.901  28.624  0.00  0.00     0.002 A 
ENDROOT
BRANCH   1  11
ATOM     11  N   UNL d   1      59.917  -0.825  28.952  0.00  0.00    -0.141 NA
BRANCH  11  12
ATOM     12  N   UNL d   1      60.153  -0.399  29.628  0.00  0.00    -0.115 NA
BRANCH  12  13
ATOM     13  C   UNL d   1      60.649   0.260  29.545  0.00  0.00     0.260 C 
ATOM     14  S   UNL d   1      61.133   0.500  30.171  0.00  0.00    -0.034 SA
ATOM     15  N   UNL d   1      60.654   0.679  28.826  0.00  0.00    -0.113 N 
ENDBRANCH  12  13
ENDBRANCH  11  12
ENDBRANCH   1  11
TORSDOF 3
ENDMDL
