MODEL 1
REMARK VINA RESULT:      -5.9      0.000      0.000
REMARK  2 active torsions:
REMARK  status: ('A' for Active; 'I' for Inactive)
REMARK    1  A    between atoms: N_2  and  S_1 
REMARK    2  A    between atoms: C_3  and  S_1 
ROOT
ATOM      1  C   UNL d   1     -41.624-122.771 -51.059  0.00  0.00     0.104 A 
ATOM      2  O   UNL d   1     -41.341-122.084 -53.415  0.00  0.00    -0.273 OA
ATOM      3  C   UNL d   1     -41.217-122.658 -54.007  0.00  0.00     0.300 A 
ATOM      4  C   UNL d   1     -41.408-123.114 -52.424  0.00  0.00     0.024 A 
ATOM      5  C   UNL d   1     -41.435-122.312 -52.629  0.00  0.00     0.103 A 
ATOM      6  C   UNL d   1     -41.285-123.695 -53.011  0.00  0.00     0.007 A 
ATOM      7  C   UNL d   1     -41.503-123.342 -51.639  0.00  0.00     0.015 A 
ATOM      8  C   UNL d   1     -41.190-123.460 -53.802  0.00  0.00     0.069 A 
ATOM      9  C   UNL d   1     -41.652-121.969 -51.264  0.00  0.00     0.015 A 
ATOM     10  O   UNL d   1     -41.123-122.422 -54.794  0.00  0.00    -0.259 OA
ATOM     11  C   UNL d   1     -41.557-121.741 -52.049  0.00  0.00     0.025 A 
ENDROOT
BRANCH   1  12
ATOM     12  S   UNL d   1     -41.719-122.995 -50.275  0.00  0.00     0.272 S 
ATOM     13  O   UNL d   1     -42.317-123.521 -50.489  0.00  0.00    -0.200 OA
ATOM     14  O   UNL d   1     -41.123-122.471 -50.051  0.00  0.00    -0.200 OA
BRANCH  12  15
ATOM     15  N   UNL d   1     -41.814-123.219 -49.484  0.00  0.00    -0.225 N 
ATOM     16  C   UNL d   1     -41.191-123.590 -49.082  0.00  0.00     0.118 A 
ATOM     17  C   UNL d   1     -41.283-123.814 -48.296  0.00  0.00     0.142 A 
ATOM     18  O   UNL d   1     -41.993-123.673 -47.899  0.00  0.00    -0.300 OA
ATOM     19  C   UNL d   1     -42.619-123.300 -48.303  0.00  0.00     0.142 A 
ATOM     20  C   UNL d   1     -42.530-123.074 -49.091  0.00  0.00     0.118 A 
ENDBRANCH  12  15
ENDBRANCH   1  12
TORSDOF 2
ENDMDL
MODEL 2
REMARK VINA RESULT:      -5.6      1.537      4.292
REMARK  2 active torsions:
REMARK  status: ('A' for Active; 'I' for Inactive)
REMARK    1  A    between atoms: N_2  and  S_1 
REMARK    2  A    between atoms: C_3  and  S_1 
ROOT
ATOM      1  C   UNL d   1     -41.496-122.379 -52.364  0.00  0.00     0.104 A 
ATOM      2  O   UNL d   1     -41.227-122.377 -49.908  0.00  0.00    -0.273 OA
ATOM      3  C   UNL d   1     -41.213-123.097 -49.487  0.00  0.00     0.300 A 
ATOM      4  C   UNL d   1     -41.393-123.092 -51.136  0.00  0.00     0.024 A 
ATOM      5  C   UNL d   1     -41.317-122.377 -50.726  0.00  0.00     0.103 A 
ATOM      6  C   UNL d   1     -41.380-123.817 -50.722  0.00  0.00     0.007 A 
ATOM      7  C   UNL d   1     -41.483-123.092 -51.954  0.00  0.00     0.015 A 
ATOM      8  C   UNL d   1     -41.289-123.812 -49.897  0.00  0.00     0.069 A 
ATOM      9  C   UNL d   1     -41.420-121.663 -51.954  0.00  0.00     0.015 A 
ATOM     10  O   UNL d   1     -41.123-123.090 -48.665  0.00  0.00    -0.259 OA
ATOM     11  C   UNL d   1     -41.330-121.663 -51.136  0.00  0.00     0.025 A 
ENDROOT
BRANCH   1  12
ATOM     12  S   UNL d   1     -41.585-122.374 -53.180  0.00  0.00     0.272 S 
ATOM     13  O   UNL d   1     -42.040-123.062 -53.141  0.00  0.00    -0.200 OA
ATOM     14  O   UNL d   1     -41.132-121.687 -53.228  0.00  0.00    -0.200 OA
BRANCH  12  15
ATOM     15  N   UNL d   1     -41.674-122.369 -54.002  0.00  0.00    -0.225 N 
ATOM     16  C   UNL d   1     -41.148-122.797 -54.478  0.00  0.00     0.118 A 
ATOM     17  C   UNL d   1     -41.235-122.793 -55.296  0.00  0.00     0.142 A 
ATOM     18  O   UNL d   1     -41.844-122.363 -55.652  0.00  0.00    -0.300 OA
ATOM     19  C   UNL d   1     -42.372-121.933 -55.174  0.00  0.00     0.142 A 
ATOM     20  C   UNL d   1     -42.289-121.935 -54.353  0.00  0.00     0.118 A 
ENDBRANCH  12  15
ENDBRANCH   1  12
TORSDOF 2
ENDMDL
MODEL 3
REMARK VINA RESULT:      -5.2      1.076      1.828
REMARK  2 active torsions:
REMARK  status: ('A' for Active; 'I' for Inactive)
REMARK    1  A    between atoms: N_2  and  S_1 
REMARK    2  A    between atoms: C_3  and  S_1 
ROOT
ATOM      1  C   UNL d   1     -41.524-122.957 -52.387  0.00  0.00     0.104 A 
ATOM      2  O   UNL d   1     -41.491-122.749 -54.848  0.00  0.00    -0.273 OA
ATOM      3  C   UNL d   1     -41.874-122.108 -55.220  0.00  0.00     0.300 A 
ATOM      4  C   UNL d   1     -41.893-122.252 -53.568  0.00  0.00     0.024 A 
ATOM      5  C   UNL d   1     -41.502-122.819 -54.028  0.00  0.00     0.103 A 
ATOM      6  C   UNL d   1     -42.278-121.607 -53.932  0.00  0.00     0.007 A 
ATOM      7  C   UNL d   1     -41.903-122.322 -52.748  0.00  0.00     0.015 A 
ATOM      8  C   UNL d   1     -42.265-121.541 -54.760  0.00  0.00     0.069 A 
ATOM      9  C   UNL d   1     -41.133-123.523 -52.847  0.00  0.00     0.015 A 
ATOM     10  O   UNL d   1     -41.860-122.044 -56.045  0.00  0.00    -0.259 OA
ATOM     11  C   UNL d   1     -41.123-123.454 -53.667  0.00  0.00     0.025 A 
ENDROOT
BRANCH   1  12
ATOM     12  S   UNL d   1     -41.532-123.030 -51.570  0.00  0.00     0.272 S 
ATOM     13  O   UNL d   1     -41.140-122.308 -51.493  0.00  0.00    -0.200 OA
ATOM     14  O   UNL d   1     -41.924-123.753 -51.635  0.00  0.00    -0.200 OA
BRANCH  12  15
ATOM     15  N   UNL d   1     -41.541-123.105 -50.746  0.00  0.00    -0.225 N 
ATOM     16  C   UNL d   1     -41.968-122.564 -50.285  0.00  0.00     0.118 A 
ATOM     17  C   UNL d   1     -41.978-122.638 -49.466  0.00  0.00     0.142 A 
ATOM     18  O   UNL d   1     -41.565-123.247 -49.093  0.00  0.00    -0.300 OA
ATOM     19  C   UNL d   1     -41.135-123.791 -49.556  0.00  0.00     0.142 A 
ATOM     20  C   UNL d   1     -41.123-123.721 -50.378  0.00  0.00     0.118 A 
ENDBRANCH  12  15
ENDBRANCH   1  12
TORSDOF 2
ENDMDL
