MODEL 1
REMARK VINA RESULT:      -2.2      0.000      0.000
REMARK  6 active torsions:
REMARK  status: ('A' for Active; 'I' for Inactive)
REMARK    1  A    between atoms: N_2  and  S_1 
REMARK    2  A    between atoms: C_11  and  S_1 
REMARK    3  A    between atoms: C_3  and  N_2 
REMARK    4  A    between atoms: C_4  and  C_3 
REMARK    5  A    between atoms: N_5  and  C_4 
REMARK    6  A    between atoms: C_6  and  C_4 
ROOT
ATOM      1  C   UNL d   1      58.977  -0.502  29.706  0.00  0.00     0.089 C 
ENDROOT
BRANCH   1   2
ATOM      2  C   UNL d   1      58.266  -0.110  29.841  0.00  0.00     0.110 C 
ATOM      3  C   UNL d   1      57.935   0.358  29.249  0.00  0.00     0.023 C 
BRANCH   2   4
ATOM      4  N   UNL d   1      57.889  -0.186  30.563  0.00  0.00    -0.157 NA
BRANCH   4   5
ATOM      5  S   UNL d   1      57.185   0.212  30.715  0.00  0.00     0.285 S 
ATOM      6  O   UNL d   1      57.198   0.426  29.913  0.00  0.00    -0.198 OA
ATOM      7  O   UNL d   1      56.579   0.678  30.399  0.00  0.00    -0.198 OA
BRANCH   5   8
ATOM      8  C   UNL d   1      57.111   0.037  31.514  0.00  0.00     0.105 A 
ATOM      9  C   UNL d   1      56.660  -0.612  31.749  0.00  0.00     0.013 A 
ATOM     10  C   UNL d   1      56.590  -0.782  32.554  0.00  0.00     0.001 A 
ATOM     11  C   UNL d   1      56.961  -0.314  33.118  0.00  0.00     0.000 A 
ATOM     12  C   UNL d   1      57.411   0.335  32.879  0.00  0.00     0.001 A 
ATOM     13  C   UNL d   1      57.481   0.504  32.075  0.00  0.00     0.013 A 
ENDBRANCH   5   8
ENDBRANCH   4   5
ENDBRANCH   2   4
ENDBRANCH   1   2
BRANCH   1  14
ATOM     14  N   UNL d   1      58.977  -1.279  29.444  0.00  0.00    -0.300 N 
ATOM     15  C   UNL d   1      58.631  -1.473  28.720  0.00  0.00     0.100 A 
ATOM     16  C   UNL d   1      58.632  -2.259  28.457  0.00  0.00     0.100 A 
ATOM     17  N   UNL d   1      58.976  -2.850  28.914  0.00  0.00    -0.299 N 
ATOM     18  C   UNL d   1      59.324  -2.656  29.641  0.00  0.00     0.100 A 
ATOM     19  C   UNL d   1      58.975  -3.635  28.648  0.00  0.00     0.100 C 
ATOM     20  C   UNL d   1      59.324  -1.879  29.903  0.00  0.00     0.100 A 
ENDBRANCH   1  14
BRANCH   1  21
ATOM     21  C   UNL d   1      59.692  -0.111  29.835  0.00  0.00     0.047 A 
ATOM     22  S   UNL d   1      60.059   0.421  29.315  0.00  0.00    -0.085 SA
ATOM     23  C   UNL d   1      60.760   0.674  29.673  0.00  0.00     0.035 A 
ATOM     24  C   UNL d   1      60.835   0.311  30.401  0.00  0.00     0.007 A 
ATOM     25  C   UNL d   1      60.170  -0.180  30.506  0.00  0.00     0.009 A 
ENDBRANCH   1  21
TORSDOF 6
ENDMDL
