MODEL 1
REMARK VINA RESULT:      -2.2      0.000      0.000
REMARK  4 active torsions:
REMARK  status: ('A' for Active; 'I' for Inactive)
REMARK    1  A    between atoms: C_10  and  N_2 
REMARK    2  A    between atoms: N_6  and  C_3 
REMARK    3  A    between atoms: N_7  and  N_6 
REMARK    4  A    between atoms: C_11  and  N_7 
ROOT
ATOM      1  C   UNL d   1      31.859  17.722 -23.810  0.00  0.00     0.206 A 
ATOM      2  N   UNL d   1      32.659  17.860 -23.983  0.00  0.00    -0.209 N 
ATOM      3  C   UNL d   1      31.800  16.902 -23.663  0.00  0.00     0.160 A 
ATOM      4  N   UNL d   1      33.063  17.174 -23.945  0.00  0.00    -0.162 NA
ATOM      5  C   UNL d   1      32.548  16.573 -23.749  0.00  0.00     0.124 A 
ATOM      6  N   UNL d   1      31.240  18.275 -23.785  0.00  0.00    -0.125 N 
ATOM      7  C   UNL d   1      32.736  15.765 -23.651  0.00  0.00     0.024 C 
ENDROOT
BRANCH   3   8
ATOM      8  N   UNL d   1      31.164  16.446 -23.468  0.00  0.00    -0.143 NA
BRANCH   8   9
ATOM      9  N   UNL d   1      30.532  16.365 -24.012  0.00  0.00    -0.148 NA
BRANCH   9  10
ATOM     10  C   UNL d   1      29.804  16.055 -23.748  0.00  0.00     0.103 A 
ATOM     11  C   UNL d   1      29.165  15.972 -24.272  0.00  0.00     0.019 A 
ATOM     12  C   UNL d   1      28.453  15.672 -24.023  0.00  0.00     0.002 A 
ATOM     13  C   UNL d   1      29.260  16.204 -25.075  0.00  0.00     0.002 C 
ATOM     14  C   UNL d   1      27.818  15.590 -24.546  0.00  0.00     0.000 C 
ATOM     15  C   UNL d   1      28.387  15.453 -23.230  0.00  0.00     0.000 A 
ATOM     16  C   UNL d   1      29.003  15.530 -22.715  0.00  0.00     0.002 A 
ATOM     17  C   UNL d   1      29.719  15.835 -22.979  0.00  0.00     0.021 A 
ENDBRANCH   9  10
ENDBRANCH   8   9
ENDBRANCH   3   8
BRANCH   2  18
ATOM     18  C   UNL d   1      32.852  18.641 -24.149  0.00  0.00     0.085 A 
ATOM     19  C   UNL d   1      32.941  19.170 -23.539  0.00  0.00     0.019 A 
ATOM     20  C   UNL d   1      33.138  19.961 -23.712  0.00  0.00     0.002 A 
ATOM     21  C   UNL d   1      33.241  20.212 -24.466  0.00  0.00     0.000 A 
ATOM     22  C   UNL d   1      33.152  19.680 -25.093  0.00  0.00     0.002 A 
ATOM     23  C   UNL d   1      32.961  18.903 -24.948  0.00  0.00     0.019 A 
ENDBRANCH   2  18
TORSDOF 4
ENDMDL
MODEL 2
REMARK VINA RESULT:      -2.0      1.752      3.154
REMARK  4 active torsions:
REMARK  status: ('A' for Active; 'I' for Inactive)
REMARK    1  A    between atoms: C_10  and  N_2 
REMARK    2  A    between atoms: N_6  and  C_3 
REMARK    3  A    between atoms: N_7  and  N_6 
REMARK    4  A    between atoms: C_11  and  N_7 
ROOT
ATOM      1  C   UNL d   1      33.094  19.532 -22.690  0.00  0.00     0.206 A 
ATOM      2  N   UNL d   1      33.179  20.338 -22.863  0.00  0.00    -0.209 N 
ATOM      3  C   UNL d   1      33.108  19.141 -23.428  0.00  0.00     0.160 A 
ATOM      4  N   UNL d   1      33.241  20.437 -23.652  0.00  0.00    -0.162 NA
ATOM      5  C   UNL d   1      33.199  19.709 -24.016  0.00  0.00     0.124 A 
ATOM      6  N   UNL d   1      33.012  19.177 -21.944  0.00  0.00    -0.125 N 
ATOM      7  C   UNL d   1      33.239  19.555 -24.835  0.00  0.00     0.024 C 
ENDROOT
BRANCH   3   8
ATOM      8  N   UNL d   1      33.048  18.358 -23.611  0.00  0.00    -0.143 NA
BRANCH   8   9
ATOM      9  N   UNL d   1      32.295  17.991 -23.617  0.00  0.00    -0.148 NA
BRANCH   9  10
ATOM     10  C   UNL d   1      32.246  17.161 -23.687  0.00  0.00     0.103 A 
ATOM     11  C   UNL d   1      31.523  16.794 -23.863  0.00  0.00     0.019 A 
ATOM     12  C   UNL d   1      31.467  15.987 -23.933  0.00  0.00     0.002 A 
ATOM     13  C   UNL d   1      30.836  17.269 -23.971  0.00  0.00     0.002 C 
ATOM     14  C   UNL d   1      30.745  15.623 -24.108  0.00  0.00     0.000 C 
ATOM     15  C   UNL d   1      32.154  15.545 -23.822  0.00  0.00     0.000 A 
ATOM     16  C   UNL d   1      32.861  15.894 -23.651  0.00  0.00     0.002 A 
ATOM     17  C   UNL d   1      32.905  16.712 -23.583  0.00  0.00     0.021 A 
ENDBRANCH   9  10
ENDBRANCH   8   9
ENDBRANCH   3   8
BRANCH   2  18
ATOM     18  C   UNL d   1      33.182  20.839 -22.212  0.00  0.00     0.085 A 
ATOM     19  C   UNL d   1      33.226  20.525 -21.465  0.00  0.00     0.019 A 
ATOM     20  C   UNL d   1      33.228  21.036 -20.807  0.00  0.00     0.002 A 
ATOM     21  C   UNL d   1      33.187  21.832 -20.895  0.00  0.00     0.000 A 
ATOM     22  C   UNL d   1      33.142  22.160 -21.653  0.00  0.00     0.002 A 
ATOM     23  C   UNL d   1      33.138  21.680 -22.309  0.00  0.00     0.019 A 
ENDBRANCH   2  18
TORSDOF 4
ENDMDL
MODEL 3
REMARK VINA RESULT:      -1.8      2.221      5.400
REMARK  4 active torsions:
REMARK  status: ('A' for Active; 'I' for Inactive)
REMARK    1  A    between atoms: C_10  and  N_2 
REMARK    2  A    between atoms: N_6  and  C_3 
REMARK    3  A    between atoms: N_7  and  N_6 
REMARK    4  A    between atoms: C_11  and  N_7 
ROOT
ATOM      1  C   UNL d   1      32.919  19.151 -23.320  0.00  0.00     0.206 A 
ATOM      2  N   UNL d   1      32.819  18.672 -23.990  0.00  0.00    -0.209 N 
ATOM      3  C   UNL d   1      33.091  19.915 -23.613  0.00  0.00     0.160 A 
ATOM      4  N   UNL d   1      32.923  19.109 -24.649  0.00  0.00    -0.162 NA
ATOM      5  C   UNL d   1      33.091  19.878 -24.434  0.00  0.00     0.124 A 
ATOM      6  N   UNL d   1      32.862  18.929 -22.522  0.00  0.00    -0.125 N 
ATOM      7  C   UNL d   1      33.238  20.520 -24.947  0.00  0.00     0.024 C 
ENDROOT
BRANCH   3   8
ATOM      8  N   UNL d   1      33.240  20.605 -23.227  0.00  0.00    -0.143 NA
BRANCH   8   9
ATOM      9  N   UNL d   1      32.821  20.784 -22.523  0.00  0.00    -0.148 NA
BRANCH   9  10
ATOM     10  C   UNL d   1      32.880  21.549 -22.196  0.00  0.00     0.103 A 
ATOM     11  C   UNL d   1      32.638  21.695 -21.416  0.00  0.00     0.019 A 
ATOM     12  C   UNL d   1      32.691  22.437 -21.090  0.00  0.00     0.002 A 
ATOM     13  C   UNL d   1      32.331  21.061 -20.955  0.00  0.00     0.002 C 
ATOM     14  C   UNL d   1      32.450  22.581 -20.313  0.00  0.00     0.000 C 
ATOM     15  C   UNL d   1      32.995  23.041 -21.563  0.00  0.00     0.000 A 
ATOM     16  C   UNL d   1      33.233  22.908 -22.323  0.00  0.00     0.002 A 
ATOM     17  C   UNL d   1      33.173  22.152 -22.641  0.00  0.00     0.021 A 
ENDBRANCH   9  10
ENDBRANCH   8   9
ENDBRANCH   3   8
BRANCH   2  18
ATOM     18  C   UNL d   1      32.644  17.885 -23.836  0.00  0.00     0.085 A 
ATOM     19  C   UNL d   1      31.889  17.612 -23.956  0.00  0.00     0.019 A 
ATOM     20  C   UNL d   1      31.715  16.812 -23.799  0.00  0.00     0.002 A 
ATOM     21  C   UNL d   1      32.276  16.306 -23.531  0.00  0.00     0.000 A 
ATOM     22  C   UNL d   1      33.047  16.576 -23.406  0.00  0.00     0.002 A 
ATOM     23  C   UNL d   1      33.240  17.352 -23.553  0.00  0.00     0.019 A 
ENDBRANCH   2  18
TORSDOF 4
ENDMDL
MODEL 4
REMARK VINA RESULT:       0.1      2.274      5.451
REMARK  4 active torsions:
REMARK  status: ('A' for Active; 'I' for Inactive)
REMARK    1  A    between atoms: C_10  and  N_2 
REMARK    2  A    between atoms: N_6  and  C_3 
REMARK    3  A    between atoms: N_7  and  N_6 
REMARK    4  A    between atoms: C_11  and  N_7 
ROOT
ATOM      1  C   UNL d   1      32.850  19.278 -23.373  0.00  0.00     0.206 A 
ATOM      2  N   UNL d   1      32.634  18.546 -23.048  0.00  0.00    -0.209 N 
ATOM      3  C   UNL d   1      33.008  19.776 -22.721  0.00  0.00     0.160 A 
ATOM      4  N   UNL d   1      32.656  18.590 -22.252  0.00  0.00    -0.162 NA
ATOM      5  C   UNL d   1      32.885  19.342 -22.034  0.00  0.00     0.124 A 
ATOM      6  N   UNL d   1      32.903  19.483 -24.176  0.00  0.00    -0.125 N 
ATOM      7  C   UNL d   1      32.981  19.630 -21.256  0.00  0.00     0.024 C 
ENDROOT
BRANCH   3   8
ATOM      8  N   UNL d   1      33.240  20.547 -22.691  0.00  0.00    -0.143 NA
BRANCH   8   9
ATOM      9  N   UNL d   1      33.229  21.009 -23.390  0.00  0.00    -0.148 NA
BRANCH   9  10
ATOM     10  C   UNL d   1      33.222  21.841 -23.328  0.00  0.00     0.103 A 
ATOM     11  C   UNL d   1      33.227  22.315 -24.009  0.00  0.00     0.019 A 
ATOM     12  C   UNL d   1      33.221  23.126 -23.958  0.00  0.00     0.002 A 
ATOM     13  C   UNL d   1      33.240  21.947 -24.766  0.00  0.00     0.002 C 
ATOM     14  C   UNL d   1      33.226  23.596 -24.638  0.00  0.00     0.000 C 
ATOM     15  C   UNL d   1      33.208  23.461 -23.205  0.00  0.00     0.000 A 
ATOM     16  C   UNL d   1      33.203  23.008 -22.538  0.00  0.00     0.002 A 
ATOM     17  C   UNL d   1      33.210  22.188 -22.603  0.00  0.00     0.021 A 
ENDBRANCH   9  10
ENDBRANCH   8   9
ENDBRANCH   3   8
BRANCH   2  18
ATOM     18  C   UNL d   1      32.450  17.960 -23.593  0.00  0.00     0.085 A 
ATOM     19  C   UNL d   1      31.694  17.904 -23.883  0.00  0.00     0.019 A 
ATOM     20  C   UNL d   1      31.513  17.308 -24.436  0.00  0.00     0.002 A 
ATOM     21  C   UNL d   1      32.069  16.788 -24.689  0.00  0.00     0.000 A 
ATOM     22  C   UNL d   1      32.841  16.838 -24.399  0.00  0.00     0.002 A 
ATOM     23  C   UNL d   1      33.041  17.412 -23.858  0.00  0.00     0.019 A 
ENDBRANCH   2  18
TORSDOF 4
ENDMDL
MODEL 5
REMARK VINA RESULT:       0.5      4.868      6.852
REMARK  4 active torsions:
REMARK  status: ('A' for Active; 'I' for Inactive)
REMARK    1  A    between atoms: C_10  and  N_2 
REMARK    2  A    between atoms: N_6  and  C_3 
REMARK    3  A    between atoms: N_7  and  N_6 
REMARK    4  A    between atoms: C_11  and  N_7 
ROOT
ATOM      1  C   UNL d   1      32.949  22.287 -19.576  0.00  0.00     0.206 A 
ATOM      2  N   UNL d   1      32.587  22.997 -19.345  0.00  0.00    -0.209 N 
ATOM      3  C   UNL d   1      32.960  22.301 -20.411  0.00  0.00     0.160 A 
ATOM      4  N   UNL d   1      32.390  23.419 -19.992  0.00  0.00    -0.162 NA
ATOM      5  C   UNL d   1      32.613  23.004 -20.658  0.00  0.00     0.124 A 
ATOM      6  N   UNL d   1      33.241  21.682 -19.087  0.00  0.00    -0.125 N 
ATOM      7  C   UNL d   1      32.513  23.241 -21.453  0.00  0.00     0.024 C 
ENDROOT
BRANCH   3   8
ATOM      8  N   UNL d   1      33.241  21.765 -20.943  0.00  0.00    -0.143 NA
BRANCH   8   9
ATOM      9  N   UNL d   1      32.787  21.084 -21.122  0.00  0.00    -0.148 NA
BRANCH   9  10
ATOM     10  C   UNL d   1      32.930  20.675 -21.835  0.00  0.00     0.103 A 
ATOM     11  C   UNL d   1      32.953  19.845 -21.848  0.00  0.00     0.019 A 
ATOM     12  C   UNL d   1      33.092  19.438 -22.537  0.00  0.00     0.002 A 
ATOM     13  C   UNL d   1      32.831  19.419 -21.132  0.00  0.00     0.002 C 
ATOM     14  C   UNL d   1      33.115  18.612 -22.547  0.00  0.00     0.000 C 
ATOM     15  C   UNL d   1      33.209  19.879 -23.224  0.00  0.00     0.000 A 
ATOM     16  C   UNL d   1      33.188  20.686 -23.220  0.00  0.00     0.002 A 
ATOM     17  C   UNL d   1      33.046  21.086 -22.516  0.00  0.00     0.021 A 
ENDBRANCH   9  10
ENDBRANCH   8   9
ENDBRANCH   3   8
BRANCH   2  18
ATOM     18  C   UNL d   1      32.514  23.107 -18.534  0.00  0.00     0.085 A 
ATOM     19  C   UNL d   1      33.153  23.366 -18.105  0.00  0.00     0.019 A 
ATOM     20  C   UNL d   1      33.074  23.476 -17.283  0.00  0.00     0.002 A 
ATOM     21  C   UNL d   1      32.381  23.332 -16.906  0.00  0.00     0.000 A 
ATOM     22  C   UNL d   1      31.726  23.069 -17.336  0.00  0.00     0.002 A 
ATOM     23  C   UNL d   1      31.780  22.954 -18.139  0.00  0.00     0.019 A 
ENDBRANCH   2  18
TORSDOF 4
ENDMDL
MODEL 6
REMARK VINA RESULT:       0.6      2.975      5.810
REMARK  4 active torsions:
REMARK  status: ('A' for Active; 'I' for Inactive)
REMARK    1  A    between atoms: C_10  and  N_2 
REMARK    2  A    between atoms: N_6  and  C_3 
REMARK    3  A    between atoms: N_7  and  N_6 
REMARK    4  A    between atoms: C_11  and  N_7 
ROOT
ATOM      1  C   UNL d   1      33.065  19.714 -22.516  0.00  0.00     0.206 A 
ATOM      2  N   UNL d   1      33.043  19.282 -23.225  0.00  0.00    -0.209 N 
ATOM      3  C   UNL d   1      33.070  20.518 -22.743  0.00  0.00     0.160 A 
ATOM      4  N   UNL d   1      33.034  19.785 -23.843  0.00  0.00    -0.162 NA
ATOM      5  C   UNL d   1      33.051  20.551 -23.564  0.00  0.00     0.124 A 
ATOM      6  N   UNL d   1      33.080  19.418 -21.740  0.00  0.00    -0.125 N 
ATOM      7  C   UNL d   1      33.049  21.251 -24.020  0.00  0.00     0.024 C 
ENDROOT
BRANCH   3   8
ATOM      8  N   UNL d   1      33.090  21.190 -22.299  0.00  0.00    -0.143 NA
BRANCH   8   9
ATOM      9  N   UNL d   1      32.784  21.178 -21.519  0.00  0.00    -0.148 NA
BRANCH   9  10
ATOM     10  C   UNL d   1      32.687  21.898 -21.108  0.00  0.00     0.103 A 
ATOM     11  C   UNL d   1      32.905  21.962 -20.310  0.00  0.00     0.019 A 
ATOM     12  C   UNL d   1      32.814  22.658 -19.903  0.00  0.00     0.002 A 
ATOM     13  C   UNL d   1      33.225  21.290 -19.916  0.00  0.00     0.002 C 
ATOM     14  C   UNL d   1      33.031  22.719 -19.107  0.00  0.00     0.000 C 
ATOM     15  C   UNL d   1      32.498  23.301 -20.311  0.00  0.00     0.000 A 
ATOM     16  C   UNL d   1      32.284  23.248 -21.088  0.00  0.00     0.002 A 
ATOM     17  C   UNL d   1      32.381  22.537 -21.489  0.00  0.00     0.021 A 
ENDBRANCH   9  10
ENDBRANCH   8   9
ENDBRANCH   3   8
BRANCH   2  18
ATOM     18  C   UNL d   1      33.034  18.466 -23.138  0.00  0.00     0.085 A 
ATOM     19  C   UNL d   1      33.223  18.136 -22.421  0.00  0.00     0.019 A 
ATOM     20  C   UNL d   1      33.213  17.307 -22.338  0.00  0.00     0.002 A 
ATOM     21  C   UNL d   1      33.021  16.827 -22.951  0.00  0.00     0.000 A 
ATOM     22  C   UNL d   1      32.827  17.155 -23.685  0.00  0.00     0.002 A 
ATOM     23  C   UNL d   1      32.830  17.961 -23.789  0.00  0.00     0.019 A 
ENDBRANCH   2  18
TORSDOF 4
ENDMDL
