MODEL 1
REMARK VINA RESULT:      33.2      0.000      0.000
REMARK  3 active torsions:
REMARK  status: ('A' for Active; 'I' for Inactive)
REMARK    1  A    between atoms: C_4  and  N_1 
REMARK    2  A    between atoms: C_6  and  C_4 
REMARK       I    between atoms: N_8  and  C_6 
REMARK    3  A    between atoms: C_10  and  N_8 
ROOT
ATOM      1  C   UNL d   1      58.989  49.539  50.354  0.00  0.00     0.165 C 
ENDROOT
BRANCH   1   2
ATOM      2  N   UNL d   1      58.174  49.575  50.207  0.00  0.00    -0.204 N 
ATOM      3  N   UNL d   1      57.815  49.577  49.456  0.00  0.00    -0.059 NA
ATOM      4  N   UNL d   1      56.997  49.618  49.564  0.00  0.00    -0.129 NA
ATOM      5  C   UNL d   1      56.844  49.643  50.376  0.00  0.00     0.122 A 
ATOM      6  C   UNL d   1      57.575  49.616  50.776  0.00  0.00     0.104 A 
ATOM      7  C   UNL d   1      56.142  49.686  50.803  0.00  0.00     0.022 A 
ATOM      8  C   UNL d   1      57.596  49.632  51.598  0.00  0.00     0.021 A 
ATOM      9  C   UNL d   1      56.894  49.676  52.026  0.00  0.00     0.002 A 
ATOM     10  C   UNL d   1      56.171  49.702  51.631  0.00  0.00     0.002 A 
ENDBRANCH   1   2
BRANCH   1  11
ATOM     11  C   UNL d   1      59.637  49.605  49.848  0.00  0.00     0.299 C 
ATOM     12  N   UNL d   1      60.292  49.621  50.344  0.00  0.00    -0.207 NA
ATOM     13  O   UNL d   1      59.521  49.638  49.032  0.00  0.00    -0.263 OA
BRANCH  12  14
ATOM     14  C   UNL d   1      60.403  49.587  51.160  0.00  0.00     0.085 A 
ATOM     15  C   UNL d   1      61.164  49.662  51.475  0.00  0.00     0.019 A 
ATOM     16  C   UNL d   1      61.275  49.628  52.292  0.00  0.00     0.002 A 
ATOM     17  C   UNL d   1      62.031  49.702  52.608  0.00  0.00     0.000 C 
ATOM     18  C   UNL d   1      60.626  49.520  52.793  0.00  0.00     0.000 A 
ATOM     19  C   UNL d   1      59.861  49.446  52.474  0.00  0.00     0.002 A 
ATOM     20  C   UNL d   1      59.750  49.479  51.661  0.00  0.00     0.019 A 
ENDBRANCH  12  14
ENDBRANCH   1  11
TORSDOF 3
ENDMDL
