MODEL 1
REMARK VINA RESULT:      22.6      0.000      0.000
REMARK  3 active torsions:
REMARK  status: ('A' for Active; 'I' for Inactive)
REMARK    1  A    between atoms: C_2  and  C_1 
REMARK    2  A    between atoms: C_5  and  C_2 
REMARK    3  A    between atoms: C_4  and  C_3 
ROOT
ATOM      1  C   UNL d   1      59.883  49.547  51.087  0.00  0.00     0.045 A 
ATOM      2  C   UNL d   1      60.679  49.331  51.062  0.00  0.00     0.068 A 
ATOM      3  C   UNL d   1      59.515  49.706  51.807  0.00  0.00     0.003 A 
ATOM      4  C   UNL d   1      61.111  49.275  51.766  0.00  0.00     0.006 A 
ATOM      5  C   UNL d   1      59.941  49.651  52.507  0.00  0.00     0.000 A 
ATOM      6  C   UNL d   1      60.748  49.433  52.486  0.00  0.00     0.000 A 
ENDROOT
BRANCH   1   7
ATOM      7  C   UNL d   1      59.447  49.604  50.382  0.00  0.00     0.196 C 
ATOM      8  O   UNL d   1      59.842  49.636  49.661  0.00  0.00    -0.287 OA
BRANCH   7   9
ATOM      9  C   UNL d   1      58.621  49.629  50.404  0.00  0.00     0.039 A 
ATOM     10  C   UNL d   1      58.185  49.665  49.697  0.00  0.00     0.005 A 
ATOM     11  C   UNL d   1      57.358  49.690  49.726  0.00  0.00     0.030 A 
ATOM     12  C   UNL d   1      56.970  49.679  50.448  0.00  0.00     0.140 A 
ATOM     13  C   UNL d   1      57.401  49.644  51.147  0.00  0.00     0.030 A 
ATOM     14  F   UNL d   1      56.139  49.705  50.463  0.00  0.00    -0.204 F 
ATOM     15  C   UNL d   1      58.225  49.619  51.131  0.00  0.00     0.005 A 
ENDBRANCH   7   9
ENDBRANCH   1   7
BRANCH   2  16
ATOM     16  C   UNL d   1      61.035  49.175  50.337  0.00  0.00     0.211 C 
ATOM     17  O   UNL d   1      60.946  49.706  49.708  0.00  0.00    -0.644 OA
ATOM     18  O   UNL d   1      61.477  48.488  50.248  0.00  0.00    -0.644 OA
ENDBRANCH   2  16
TORSDOF 3
ENDMDL
