MODEL 1
REMARK VINA RESULT:      76.4      0.000      0.000
REMARK  4 active torsions:
REMARK  status: ('A' for Active; 'I' for Inactive)
REMARK    1  A    between atoms: C_8  and  C_1 
REMARK    2  A    between atoms: N_5  and  C_2 
REMARK       I    between atoms: C_6  and  N_5 
REMARK    3  A    between atoms: C_10  and  C_6 
REMARK    4  A    between atoms: N_9  and  C_8 
ROOT
ATOM      1  C   UNL d   1     -51.254  25.856  33.918  0.00  0.00     0.042 A 
ATOM      2  C   UNL d   1     -50.647  26.222  33.502  0.00  0.00     0.115 A 
ATOM      3  S   UNL d   1     -50.906  26.980  33.307  0.00  0.00    -0.068 SA
ATOM      4  C   UNL d   1     -51.877  26.384  33.976  0.00  0.00     0.009 A 
ATOM      5  C   UNL d   1     -51.660  27.078  33.598  0.00  0.00     0.031 A 
ATOM      6  C   UNL d   1     -52.602  26.236  34.356  0.00  0.00     0.001 C 
ATOM      7  C   UNL d   1     -52.114  27.767  33.517  0.00  0.00     0.007 C 
ENDROOT
BRANCH   2   8
ATOM      8  N   UNL d   1     -49.911  25.898  33.311  0.00  0.00    -0.201 NA
ATOM      9  C   UNL d   1     -49.237  26.129  33.732  0.00  0.00     0.282 C 
ATOM     10  O   UNL d   1     -48.510  25.803  33.538  0.00  0.00    -0.265 OA
BRANCH   9  11
ATOM     11  C   UNL d   1     -49.301  26.684  34.342  0.00  0.00     0.085 A 
ATOM     12  C   UNL d   1     -49.388  27.484  34.154  0.00  0.00     0.145 A 
ATOM     13  F   UNL d   1     -49.419  27.798  33.393  0.00  0.00    -0.204 F 
ATOM     14  C   UNL d   1     -49.451  28.042  34.759  0.00  0.00     0.030 A 
ATOM     15  C   UNL d   1     -49.427  27.791  35.548  0.00  0.00     0.002 A 
ATOM     16  C   UNL d   1     -49.340  26.993  35.732  0.00  0.00     0.000 A 
ATOM     17  C   UNL d   1     -49.277  26.439  35.121  0.00  0.00     0.007 A 
ENDBRANCH   9  11
ENDBRANCH   2   8
BRANCH   1  18
ATOM     18  C   UNL d   1     -51.317  25.098  34.255  0.00  0.00     0.082 C 
BRANCH  18  19
ATOM     19  N   UNL d   1     -51.851  24.560  33.941  0.00  0.00    -0.304 N 
ATOM     20  C   UNL d   1     -51.658  23.746  33.933  0.00  0.00     0.064 A 
ATOM     21  C   UNL d   1     -50.938  23.492  34.238  0.00  0.00     0.019 C 
ATOM     22  C   UNL d   1     -52.192  23.198  33.617  0.00  0.00     0.018 A 
ATOM     23  C   UNL d   1     -52.909  23.455  33.314  0.00  0.00     0.003 A 
ATOM     24  C   UNL d   1     -53.099  24.259  33.323  0.00  0.00     0.019 A 
ATOM     25  C   UNL d   1     -52.571  24.805  33.635  0.00  0.00     0.080 A 
ENDBRANCH  18  19
ENDBRANCH   1  18
TORSDOF 4
ENDMDL
