MODEL 1
REMARK VINA RESULT:      -1.8      0.000      0.000
REMARK  3 active torsions:
REMARK  status: ('A' for Active; 'I' for Inactive)
REMARK    1  A    between atoms: N_2  and  S_1 
REMARK    2  A    between atoms: C_3  and  S_1 
REMARK    3  A    between atoms: O_17  and  C_11 
ROOT
ATOM      1  S   UNL d   1      57.890  -0.243  30.690  0.00  0.00     0.274 S 
ATOM      2  O   UNL d   1      57.747   0.549  30.946  0.00  0.00    -0.199 OA
ATOM      3  O   UNL d   1      58.015  -1.037  30.450  0.00  0.00    -0.199 OA
ENDROOT
BRANCH   1   4
ATOM      4  N   UNL d   1      57.312  -0.510  31.228  0.00  0.00    -0.212 N 
ATOM      5  C   UNL d   1      56.832  -1.155  31.095  0.00  0.00     0.193 A 
ATOM      6  N   UNL d   1      56.329  -1.224  31.787  0.00  0.00    -0.223 NA
ATOM      7  C   UNL d   1      56.524  -0.624  32.305  0.00  0.00     0.100 A 
ATOM      8  C   UNL d   1      57.148  -0.168  31.954  0.00  0.00     0.094 A 
ATOM      9  C   UNL d   1      56.232  -0.414  33.049  0.00  0.00     0.021 A 
ATOM     10  C   UNL d   1      57.452   0.479  32.364  0.00  0.00     0.020 A 
ATOM     11  C   UNL d   1      57.155   0.681  33.107  0.00  0.00     0.002 A 
ATOM     12  C   UNL d   1      56.552   0.248  33.458  0.00  0.00     0.002 A 
ENDBRANCH   1   4
BRANCH   1  13
ATOM     13  C   UNL d   1      58.489   0.042  30.132  0.00  0.00     0.127 A 
ATOM     14  C   UNL d   1      59.272  -0.059  30.316  0.00  0.00     0.026 A 
ATOM     15  C   UNL d   1      59.837   0.227  29.757  0.00  0.00     0.059 A 
ATOM     16 CL   UNL d   1      60.655   0.125  29.943  0.00  0.00    -0.082 Cl
ATOM     17  C   UNL d   1      59.602   0.591  29.059  0.00  0.00     0.013 A 
ATOM     18  C   UNL d   1      58.783   0.680  28.898  0.00  0.00     0.026 A 
ATOM     19  C   UNL d   1      58.231   0.403  29.439  0.00  0.00     0.106 A 
BRANCH  19  20
ATOM     20  O   UNL d   1      57.413   0.506  29.253  0.00  0.00    -0.327 OA
ATOM     21  C   UNL d   1      57.155   0.682  28.505  0.00  0.00     0.181 C 
ENDBRANCH  19  20
ENDBRANCH   1  13
TORSDOF 3
ENDMDL
MODEL 2
REMARK VINA RESULT:      -1.7      1.170      1.838
REMARK  3 active torsions:
REMARK  status: ('A' for Active; 'I' for Inactive)
REMARK    1  A    between atoms: N_2  and  S_1 
REMARK    2  A    between atoms: C_3  and  S_1 
REMARK    3  A    between atoms: O_17  and  C_11 
ROOT
ATOM      1  S   UNL d   1      57.825  -0.076  31.169  0.00  0.00     0.274 S 
ATOM      2  O   UNL d   1      57.489   0.636  30.863  0.00  0.00    -0.199 OA
ATOM      3  O   UNL d   1      58.146  -0.780  31.494  0.00  0.00    -0.199 OA
ENDROOT
BRANCH   1   4
ATOM      4  N   UNL d   1      57.387   0.032  31.869  0.00  0.00    -0.212 N 
ATOM      5  C   UNL d   1      57.460   0.682  32.355  0.00  0.00     0.193 A 
ATOM      6  N   UNL d   1      56.909   0.559  33.003  0.00  0.00    -0.223 NA
ATOM      7  C   UNL d   1      56.529  -0.153  32.882  0.00  0.00     0.100 A 
ATOM      8  C   UNL d   1      56.829  -0.492  32.164  0.00  0.00     0.094 A 
ATOM      9  C   UNL d   1      55.951  -0.555  33.314  0.00  0.00     0.021 A 
ATOM     10  C   UNL d   1      56.536  -1.219  31.910  0.00  0.00     0.020 A 
ATOM     11  C   UNL d   1      55.959  -1.613  32.347  0.00  0.00     0.002 A 
ATOM     12  C   UNL d   1      55.660  -1.297  33.044  0.00  0.00     0.002 A 
ENDBRANCH   1   4
BRANCH   1  13
ATOM     13  C   UNL d   1      58.279  -0.181  30.438  0.00  0.00     0.127 A 
ATOM     14  C   UNL d   1      57.962  -0.632  29.844  0.00  0.00     0.026 A 
ATOM     15  C   UNL d   1      58.422  -0.720  29.141  0.00  0.00     0.059 A 
ATOM     16 CL   UNL d   1      58.097  -1.189  28.519  0.00  0.00    -0.082 Cl
ATOM     17  C   UNL d   1      59.158  -0.362  29.065  0.00  0.00     0.013 A 
ATOM     18  C   UNL d   1      59.458   0.099  29.698  0.00  0.00     0.026 A 
ATOM     19  C   UNL d   1      59.013   0.186  30.383  0.00  0.00     0.106 A 
BRANCH  19  20
ATOM     20  O   UNL d   1      59.338   0.656  31.005  0.00  0.00    -0.327 OA
ATOM     21  C   UNL d   1      60.133   0.682  31.163  0.00  0.00     0.181 C 
ENDBRANCH  19  20
ENDBRANCH   1  13
TORSDOF 3
ENDMDL
MODEL 3
REMARK VINA RESULT:      -0.3      2.709      4.634
REMARK  3 active torsions:
REMARK  status: ('A' for Active; 'I' for Inactive)
REMARK    1  A    between atoms: N_2  and  S_1 
REMARK    2  A    between atoms: C_3  and  S_1 
REMARK    3  A    between atoms: O_17  and  C_11 
ROOT
ATOM      1  S   UNL d   1      55.888  -0.086  33.474  0.00  0.00     0.274 S 
ATOM      2  O   UNL d   1      55.612   0.631  33.122  0.00  0.00    -0.199 OA
ATOM      3  O   UNL d   1      56.171  -0.805  33.801  0.00  0.00    -0.199 OA
ENDROOT
BRANCH   1   4
ATOM      4  N   UNL d   1      56.179  -0.325  32.730  0.00  0.00    -0.212 N 
ATOM      5  C   UNL d   1      55.816  -0.882  32.259  0.00  0.00     0.193 A 
ATOM      6  N   UNL d   1      56.303  -0.952  31.555  0.00  0.00    -0.223 NA
ATOM      7  C   UNL d   1      56.934  -0.439  31.629  0.00  0.00     0.100 A 
ATOM      8  C   UNL d   1      56.859  -0.038  32.374  0.00  0.00     0.094 A 
ATOM      9  C   UNL d   1      57.573  -0.268  31.135  0.00  0.00     0.021 A 
ATOM     10  C   UNL d   1      57.429   0.516  32.590  0.00  0.00     0.020 A 
ATOM     11  C   UNL d   1      58.064   0.681  32.090  0.00  0.00     0.002 A 
ATOM     12  C   UNL d   1      58.148   0.301  31.367  0.00  0.00     0.002 A 
ENDBRANCH   1   4
BRANCH   1  13
ATOM     13  C   UNL d   1      55.582   0.170  34.243  0.00  0.00     0.127 A 
ATOM     14  C   UNL d   1      56.106   0.295  34.849  0.00  0.00     0.026 A 
ATOM     15  C   UNL d   1      55.785   0.544  35.589  0.00  0.00     0.059 A 
ATOM     16 CL   UNL d   1      56.326   0.676  36.224  0.00  0.00    -0.082 Cl
ATOM     17  C   UNL d   1      54.976   0.653  35.690  0.00  0.00     0.013 A 
ATOM     18  C   UNL d   1      54.460   0.514  35.043  0.00  0.00     0.026 A 
ATOM     19  C   UNL d   1      54.770   0.272  34.321  0.00  0.00     0.106 A 
BRANCH  19  20
ATOM     20  O   UNL d   1      54.228   0.140  33.687  0.00  0.00    -0.327 OA
ATOM     21  C   UNL d   1      53.448   0.355  33.727  0.00  0.00     0.181 C 
ENDBRANCH  19  20
ENDBRANCH   1  13
TORSDOF 3
ENDMDL
MODEL 4
REMARK VINA RESULT:       0.3      2.197      3.844
REMARK  3 active torsions:
REMARK  status: ('A' for Active; 'I' for Inactive)
REMARK    1  A    between atoms: N_2  and  S_1 
REMARK    2  A    between atoms: C_3  and  S_1 
REMARK    3  A    between atoms: O_17  and  C_11 
ROOT
ATOM      1  S   UNL d   1      59.398  -0.227  29.868  0.00  0.00     0.274 S 
ATOM      2  O   UNL d   1      58.845  -0.724  29.466  0.00  0.00    -0.199 OA
ATOM      3  O   UNL d   1      59.964   0.257  30.254  0.00  0.00    -0.199 OA
ENDROOT
BRANCH   1   4
ATOM      4  N   UNL d   1      60.005  -0.530  29.384  0.00  0.00    -0.212 N 
ATOM      5  C   UNL d   1      60.517  -0.063  28.954  0.00  0.00     0.193 A 
ATOM      6  N   UNL d   1      61.043  -0.604  28.543  0.00  0.00    -0.223 NA
ATOM      7  C   UNL d   1      60.830  -1.367  28.740  0.00  0.00     0.100 A 
ATOM      8  C   UNL d   1      60.171  -1.325  29.274  0.00  0.00     0.094 A 
ATOM      9  C   UNL d   1      61.130  -2.104  28.518  0.00  0.00     0.021 A 
ATOM     10  C   UNL d   1      59.842  -2.023  29.562  0.00  0.00     0.020 A 
ATOM     11  C   UNL d   1      60.149  -2.755  29.335  0.00  0.00     0.002 A 
ATOM     12  C   UNL d   1      60.786  -2.810  28.819  0.00  0.00     0.002 A 
ENDBRANCH   1   4
BRANCH   1  13
ATOM     13  C   UNL d   1      58.761   0.083  30.368  0.00  0.00     0.127 A 
ATOM     14  C   UNL d   1      58.880   0.127  31.168  0.00  0.00     0.026 A 
ATOM     15  C   UNL d   1      58.245   0.433  31.634  0.00  0.00     0.059 A 
ATOM     16 CL   UNL d   1      58.363   0.482  32.469  0.00  0.00    -0.082 Cl
ATOM     17  C   UNL d   1      57.539   0.674  31.289  0.00  0.00     0.013 A 
ATOM     18  C   UNL d   1      57.447   0.615  30.457  0.00  0.00     0.026 A 
ATOM     19  C   UNL d   1      58.062   0.318  30.001  0.00  0.00     0.106 A 
BRANCH  19  20
ATOM     20  O   UNL d   1      57.944   0.269  29.166  0.00  0.00    -0.327 OA
ATOM     21  C   UNL d   1      57.264   0.523  28.806  0.00  0.00     0.181 C 
ENDBRANCH  19  20
ENDBRANCH   1  13
TORSDOF 3
ENDMDL
MODEL 5
REMARK VINA RESULT:       0.6      2.276      3.304
REMARK  3 active torsions:
REMARK  status: ('A' for Active; 'I' for Inactive)
REMARK    1  A    between atoms: N_2  and  S_1 
REMARK    2  A    between atoms: C_3  and  S_1 
REMARK    3  A    between atoms: O_17  and  C_11 
ROOT
ATOM      1  S   UNL d   1      56.498   0.044  33.219  0.00  0.00     0.274 S 
ATOM      2  O   UNL d   1      56.047   0.665  32.866  0.00  0.00    -0.199 OA
ATOM      3  O   UNL d   1      56.937  -0.567  33.590  0.00  0.00    -0.199 OA
ENDROOT
BRANCH   1   4
ATOM      4  N   UNL d   1      56.195   0.261  33.964  0.00  0.00    -0.212 N 
ATOM      5  C   UNL d   1      56.661   0.432  34.610  0.00  0.00     0.193 A 
ATOM      6  N   UNL d   1      56.120   0.625  35.250  0.00  0.00    -0.223 NA
ATOM      7  C   UNL d   1      55.357   0.564  34.965  0.00  0.00     0.100 A 
ATOM      8  C   UNL d   1      55.400   0.333  34.149  0.00  0.00     0.094 A 
ATOM      9  C   UNL d   1      54.620   0.682  35.319  0.00  0.00     0.021 A 
ATOM     10  C   UNL d   1      54.702   0.231  33.724  0.00  0.00     0.020 A 
ATOM     11  C   UNL d   1      53.970   0.351  34.086  0.00  0.00     0.002 A 
ATOM     12  C   UNL d   1      53.915   0.574  34.874  0.00  0.00     0.002 A 
ENDBRANCH   1   4
BRANCH   1  13
ATOM     13  C   UNL d   1      56.809  -0.177  32.440  0.00  0.00     0.127 A 
ATOM     14  C   UNL d   1      57.257   0.362  32.033  0.00  0.00     0.026 A 
ATOM     15  C   UNL d   1      57.549   0.124  31.277  0.00  0.00     0.059 A 
ATOM     16 CL   UNL d   1      58.017   0.682  30.847  0.00  0.00    -0.082 Cl
ATOM     17  C   UNL d   1      57.385  -0.620  30.970  0.00  0.00     0.013 A 
ATOM     18  C   UNL d   1      56.918  -1.155  31.417  0.00  0.00     0.026 A 
ATOM     19  C   UNL d   1      56.633  -0.927  32.152  0.00  0.00     0.106 A 
BRANCH  19  20
ATOM     20  O   UNL d   1      56.166  -1.484  32.582  0.00  0.00    -0.327 OA
ATOM     21  C   UNL d   1      55.971  -2.212  32.284  0.00  0.00     0.181 C 
ENDBRANCH  19  20
ENDBRANCH   1  13
TORSDOF 3
ENDMDL
MODEL 6
REMARK VINA RESULT:       0.9      9.151     10.259
REMARK  3 active torsions:
REMARK  status: ('A' for Active; 'I' for Inactive)
REMARK    1  A    between atoms: N_2  and  S_1 
REMARK    2  A    between atoms: C_3  and  S_1 
REMARK    3  A    between atoms: O_17  and  C_11 
ROOT
ATOM      1  S   UNL d   1      59.435  -9.251  33.755  0.00  0.00     0.274 S 
ATOM      2  O   UNL d   1      60.201  -8.960  33.550  0.00  0.00    -0.199 OA
ATOM      3  O   UNL d   1      58.671  -9.547  33.935  0.00  0.00    -0.199 OA
ENDROOT
BRANCH   1   4
ATOM      4  N   UNL d   1      59.310  -9.452  32.955  0.00  0.00    -0.212 N 
ATOM      5  C   UNL d   1      58.584  -9.659  32.649  0.00  0.00     0.193 A 
ATOM      6  N   UNL d   1      58.714  -9.818  31.814  0.00  0.00    -0.223 NA
ATOM      7  C   UNL d   1      59.506  -9.701  31.653  0.00  0.00     0.100 A 
ATOM      8  C   UNL d   1      59.888  -9.468  32.375  0.00  0.00     0.094 A 
ATOM      9  C   UNL d   1      59.949  -9.769  30.959  0.00  0.00     0.021 A 
ATOM     10  C   UNL d   1      60.698  -9.314  32.369  0.00  0.00     0.020 A 
ATOM     11  C   UNL d   1      61.132  -9.384  31.671  0.00  0.00     0.002 A 
ATOM     12  C   UNL d   1      60.774  -9.608  30.966  0.00  0.00     0.002 A 
ENDBRANCH   1   4
BRANCH   1  13
ATOM     13  C   UNL d   1      59.573  -9.040  34.584  0.00  0.00     0.127 A 
ATOM     14  C   UNL d   1      60.024  -9.534  35.042  0.00  0.00     0.026 A 
ATOM     15  C   UNL d   1      60.143  -9.307  35.847  0.00  0.00     0.059 A 
ATOM     16 CL   UNL d   1      60.613  -9.818  36.330  0.00  0.00    -0.082 Cl
ATOM     17  C   UNL d   1      59.817  -8.616  36.150  0.00  0.00     0.013 A 
ATOM     18  C   UNL d   1      59.355  -8.127  35.649  0.00  0.00     0.026 A 
ATOM     19  C   UNL d   1      59.236  -8.344  34.866  0.00  0.00     0.106 A 
BRANCH  19  20
ATOM     20  O   UNL d   1      58.767  -7.834  34.383  0.00  0.00    -0.327 OA
ATOM     21  C   UNL d   1      58.585  -7.075  34.601  0.00  0.00     0.181 C 
ENDBRANCH  19  20
ENDBRANCH   1  13
TORSDOF 3
ENDMDL
