MODEL 1
REMARK VINA RESULT:      -6.6      0.000      0.000
REMARK  4 active torsions:
REMARK  status: ('A' for Active; 'I' for Inactive)
REMARK    1  A    between atoms: N_15  and  C_6 
REMARK    2  A    between atoms: N_14  and  C_19 
REMARK    3  A    between atoms: C_18  and  N_15 
REMARK    4  A    between atoms: C_19  and  C_18 
ROOT
ATOM      1  N   UNL d   1     -47.949  13.307  22.804  0.00  0.00    -0.183 N 
ATOM      2  C   UNL d   1     -48.735  13.532  22.918  0.00  0.00     0.169 A 
ATOM      3  C   UNL d   1     -49.300  12.982  23.113  0.00  0.00     0.073 A 
ATOM      4  C   UNL d   1     -49.076  12.204  23.193  0.00  0.00     0.185 A 
ATOM      5  N   UNL d   1     -48.290  11.978  23.079  0.00  0.00    -0.142 NA
ATOM      6  C   UNL d   1     -47.399  13.872  22.610  0.00  0.00     0.218 A 
ATOM      7  N   UNL d   1     -48.948  14.317  22.835  0.00  0.00    -0.226 NA
ATOM      8  C   UNL d   1     -50.077  13.205  23.226  0.00  0.00     0.007 A 
ATOM      9  N   UNL d   1     -49.637  11.634  23.390  0.00  0.00    -0.225 NA
ATOM     10  C   UNL d   1     -47.605  14.649  22.526  0.00  0.00     0.071 A 
ATOM     11  C   UNL d   1     -50.643  12.653  23.421  0.00  0.00     0.019 A 
ATOM     12  C   UNL d   1     -48.390  14.874  22.640  0.00  0.00     0.087 A 
ATOM     13  C   UNL d   1     -50.422  11.859  23.504  0.00  0.00     0.083 A 
ATOM     14  C   UNL d   1     -50.290  13.992  23.142  0.00  0.00     0.000 C 
ATOM     15  C   UNL d   1     -48.609  15.690  22.554  0.00  0.00     0.021 C 
ATOM     16  C   UNL d   1     -50.980  11.305  23.698  0.00  0.00     0.021 C 
ENDROOT
BRANCH   6  17
ATOM     17  N   UNL d   1     -46.590  13.631  22.493  0.00  0.00    -0.379 NA
BRANCH  17  18
ATOM     18  C   UNL d   1     -45.803  13.363  22.590  0.00  0.00     0.182 C 
BRANCH  18  19
ATOM     19  C   UNL d   1     -45.349  13.190  21.901  0.00  0.00     0.116 C 
BRANCH  19  20
ATOM     20  N   UNL d   1     -44.631  12.736  21.984  0.00  0.00    -0.297 N 
ATOM     21  C   UNL d   1     -44.597  12.118  22.540  0.00  0.00     0.107 A 
ATOM     22  C   UNL d   1     -43.875  11.662  22.622  0.00  0.00     0.142 A 
ATOM     23  O   UNL d   1     -43.205  11.836  22.145  0.00  0.00    -0.300 OA
ATOM     24  C   UNL d   1     -43.245  12.468  21.579  0.00  0.00     0.142 A 
ATOM     25  C   UNL d   1     -43.959  12.921  21.495  0.00  0.00     0.107 A 
ENDBRANCH  19  20
ENDBRANCH  18  19
ENDBRANCH  17  18
ENDBRANCH   6  17
TORSDOF 4
ENDMDL
MODEL 2
REMARK VINA RESULT:      -6.6      0.877      2.217
REMARK  4 active torsions:
REMARK  status: ('A' for Active; 'I' for Inactive)
REMARK    1  A    between atoms: N_15  and  C_6 
REMARK    2  A    between atoms: N_14  and  C_19 
REMARK    3  A    between atoms: C_18  and  N_15 
REMARK    4  A    between atoms: C_19  and  C_18 
ROOT
ATOM      1  N   UNL d   1     -48.154  13.394  23.142  0.00  0.00    -0.183 N 
ATOM      2  C   UNL d   1     -48.956  13.314  23.318  0.00  0.00     0.169 A 
ATOM      3  C   UNL d   1     -49.449  13.960  23.311  0.00  0.00     0.073 A 
ATOM      4  C   UNL d   1     -49.135  14.688  23.128  0.00  0.00     0.185 A 
ATOM      5  N   UNL d   1     -48.333  14.768  22.953  0.00  0.00    -0.142 NA
ATOM      6  C   UNL d   1     -47.678  12.736  23.154  0.00  0.00     0.218 A 
ATOM      7  N   UNL d   1     -49.261  12.578  23.500  0.00  0.00    -0.226 NA
ATOM      8  C   UNL d   1     -50.242  13.881  23.485  0.00  0.00     0.007 A 
ATOM      9  N   UNL d   1     -49.621  15.354  23.118  0.00  0.00    -0.225 NA
ATOM     10  C   UNL d   1     -47.974  12.006  23.334  0.00  0.00     0.071 A 
ATOM     11  C   UNL d   1     -50.735  14.529  23.478  0.00  0.00     0.019 A 
ATOM     12  C   UNL d   1     -48.776  11.926  23.509  0.00  0.00     0.087 A 
ATOM     13  C   UNL d   1     -50.423  15.274  23.293  0.00  0.00     0.083 A 
ATOM     14  C   UNL d   1     -50.546  13.142  23.668  0.00  0.00     0.000 C 
ATOM     15  C   UNL d   1     -49.089  11.160  23.698  0.00  0.00     0.021 C 
ATOM     16  C   UNL d   1     -50.907  15.922  23.285  0.00  0.00     0.021 C 
ENDROOT
BRANCH   6  17
ATOM     17  N   UNL d   1     -46.851  12.827  22.971  0.00  0.00    -0.379 NA
BRANCH  17  18
ATOM     18  C   UNL d   1     -46.016  12.773  22.948  0.00  0.00     0.182 C 
BRANCH  18  19
ATOM     19  C   UNL d   1     -45.616  13.021  22.248  0.00  0.00     0.116 C 
BRANCH  19  20
ATOM     20  N   UNL d   1     -44.824  12.738  22.105  0.00  0.00    -0.297 N 
ATOM     21  C   UNL d   1     -44.361  13.091  21.511  0.00  0.00     0.107 A 
ATOM     22  C   UNL d   1     -43.565  12.806  21.368  0.00  0.00     0.142 A 
ATOM     23  O   UNL d   1     -43.251  12.173  21.824  0.00  0.00    -0.300 OA
ATOM     24  C   UNL d   1     -43.728  11.815  22.429  0.00  0.00     0.142 A 
ATOM     25  C   UNL d   1     -44.517  12.095  22.573  0.00  0.00     0.107 A 
ENDBRANCH  19  20
ENDBRANCH  18  19
ENDBRANCH  17  18
ENDBRANCH   6  17
TORSDOF 4
ENDMDL
MODEL 3
REMARK VINA RESULT:      -5.1      2.088      5.072
REMARK  4 active torsions:
REMARK  status: ('A' for Active; 'I' for Inactive)
REMARK    1  A    between atoms: N_15  and  C_6 
REMARK    2  A    between atoms: N_14  and  C_19 
REMARK    3  A    between atoms: C_18  and  N_15 
REMARK    4  A    between atoms: C_19  and  C_18 
ROOT
ATOM      1  N   UNL d   1     -46.314  12.455  23.086  0.00  0.00    -0.183 N 
ATOM      2  C   UNL d   1     -45.524  12.334  22.880  0.00  0.00     0.169 A 
ATOM      3  C   UNL d   1     -45.145  11.643  23.080  0.00  0.00     0.073 A 
ATOM      4  C   UNL d   1     -45.559  11.074  23.488  0.00  0.00     0.185 A 
ATOM      5  N   UNL d   1     -46.349  11.196  23.694  0.00  0.00    -0.142 NA
ATOM      6  C   UNL d   1     -46.676  13.152  22.878  0.00  0.00     0.218 A 
ATOM      7  N   UNL d   1     -45.118  12.912  22.470  0.00  0.00    -0.226 NA
ATOM      8  C   UNL d   1     -44.364  11.523  22.876  0.00  0.00     0.007 A 
ATOM      9  N   UNL d   1     -45.189  10.369  23.698  0.00  0.00    -0.225 NA
ATOM     10  C   UNL d   1     -46.278  13.728  22.472  0.00  0.00     0.071 A 
ATOM     11  C   UNL d   1     -43.984  10.832  23.076  0.00  0.00     0.019 A 
ATOM     12  C   UNL d   1     -45.489  13.606  22.266  0.00  0.00     0.087 A 
ATOM     13  C   UNL d   1     -44.399  10.247  23.492  0.00  0.00     0.083 A 
ATOM     14  C   UNL d   1     -43.957  12.104  22.465  0.00  0.00     0.000 C 
ATOM     15  C   UNL d   1     -45.069  14.209  21.841  0.00  0.00     0.021 C 
ATOM     16  C   UNL d   1     -44.028   9.557  23.694  0.00  0.00     0.021 C 
ENDROOT
BRANCH   6  17
ATOM     17  N   UNL d   1     -47.491  13.270  23.095  0.00  0.00    -0.379 NA
BRANCH  17  18
ATOM     18  C   UNL d   1     -48.244  13.589  23.272  0.00  0.00     0.182 C 
BRANCH  18  19
ATOM     19  C   UNL d   1     -48.885  13.422  22.751  0.00  0.00     0.116 C 
BRANCH  19  20
ATOM     20  N   UNL d   1     -49.616  13.853  22.846  0.00  0.00    -0.297 N 
ATOM     21  C   UNL d   1     -50.136  13.652  23.463  0.00  0.00     0.107 A 
ATOM     22  C   UNL d   1     -50.869  14.086  23.557  0.00  0.00     0.142 A 
ATOM     23  O   UNL d   1     -51.064  14.711  23.030  0.00  0.00    -0.300 OA
ATOM     24  C   UNL d   1     -50.530  14.913  22.402  0.00  0.00     0.142 A 
ATOM     25  C   UNL d   1     -49.802  14.485  22.306  0.00  0.00     0.107 A 
ENDBRANCH  19  20
ENDBRANCH  18  19
ENDBRANCH  17  18
ENDBRANCH   6  17
TORSDOF 4
ENDMDL
MODEL 4
REMARK VINA RESULT:      -5.0      8.605      9.968
REMARK  4 active torsions:
REMARK  status: ('A' for Active; 'I' for Inactive)
REMARK    1  A    between atoms: N_15  and  C_6 
REMARK    2  A    between atoms: N_14  and  C_19 
REMARK    3  A    between atoms: C_18  and  N_15 
REMARK    4  A    between atoms: C_19  and  C_18 
ROOT
ATOM      1  N   UNL d   1     -39.267  14.491  18.782  0.00  0.00    -0.183 N 
ATOM      2  C   UNL d   1     -39.527  14.651  18.015  0.00  0.00     0.169 A 
ATOM      3  C   UNL d   1     -39.136  14.344  17.372  0.00  0.00     0.073 A 
ATOM      4  C   UNL d   1     -38.482  13.877  17.499  0.00  0.00     0.185 A 
ATOM      5  N   UNL d   1     -38.222  13.717  18.266  0.00  0.00    -0.142 NA
ATOM      6  C   UNL d   1     -39.671  14.807  19.412  0.00  0.00     0.218 A 
ATOM      7  N   UNL d   1     -40.184  15.121  17.899  0.00  0.00    -0.226 NA
ATOM      8  C   UNL d   1     -39.393  14.502  16.614  0.00  0.00     0.007 A 
ATOM      9  N   UNL d   1     -38.074  13.558  16.858  0.00  0.00    -0.225 NA
ATOM     10  C   UNL d   1     -40.322  15.273  19.302  0.00  0.00     0.071 A 
ATOM     11  C   UNL d   1     -39.001  14.195  15.970  0.00  0.00     0.019 A 
ATOM     12  C   UNL d   1     -40.582  15.433  18.536  0.00  0.00     0.087 A 
ATOM     13  C   UNL d   1     -38.334  13.718  16.091  0.00  0.00     0.083 A 
ATOM     14  C   UNL d   1     -40.053  14.974  16.499  0.00  0.00     0.000 C 
ATOM     15  C   UNL d   1     -41.266  15.922  18.419  0.00  0.00     0.021 C 
ATOM     16  C   UNL d   1     -37.940  13.409  15.456  0.00  0.00     0.021 C 
ENDROOT
BRANCH   6  17
ATOM     17  N   UNL d   1     -39.396  14.637  20.200  0.00  0.00    -0.379 NA
BRANCH  17  18
ATOM     18  C   UNL d   1     -38.937  14.525  20.891  0.00  0.00     0.182 C 
BRANCH  18  19
ATOM     19  C   UNL d   1     -39.323  14.558  21.639  0.00  0.00     0.116 C 
BRANCH  19  20
ATOM     20  N   UNL d   1     -38.913  14.260  22.327  0.00  0.00    -0.297 N 
ATOM     21  C   UNL d   1     -38.672  14.787  22.923  0.00  0.00     0.107 A 
ATOM     22  C   UNL d   1     -38.260  14.487  23.613  0.00  0.00     0.142 A 
ATOM     23  O   UNL d   1     -38.100  13.665  23.689  0.00  0.00    -0.300 OA
ATOM     24  C   UNL d   1     -38.348  13.130  23.077  0.00  0.00     0.142 A 
ATOM     25  C   UNL d   1     -38.756  13.425  22.392  0.00  0.00     0.107 A 
ENDBRANCH  19  20
ENDBRANCH  18  19
ENDBRANCH  17  18
ENDBRANCH   6  17
TORSDOF 4
ENDMDL
MODEL 5
REMARK VINA RESULT:      -4.8      4.429      8.557
REMARK  4 active torsions:
REMARK  status: ('A' for Active; 'I' for Inactive)
REMARK    1  A    between atoms: N_15  and  C_6 
REMARK    2  A    between atoms: N_14  and  C_19 
REMARK    3  A    between atoms: C_18  and  N_15 
REMARK    4  A    between atoms: C_19  and  C_18 
ROOT
ATOM      1  N   UNL d   1     -40.744  14.430  19.751  0.00  0.00    -0.183 N 
ATOM      2  C   UNL d   1     -40.143  14.921  19.472  0.00  0.00     0.169 A 
ATOM      3  C   UNL d   1     -39.942  14.924  18.684  0.00  0.00     0.073 A 
ATOM      4  C   UNL d   1     -40.346  14.433  18.177  0.00  0.00     0.185 A 
ATOM      5  N   UNL d   1     -40.947  13.942  18.457  0.00  0.00    -0.142 NA
ATOM      6  C   UNL d   1     -40.929  14.442  20.542  0.00  0.00     0.218 A 
ATOM      7  N   UNL d   1     -39.743  15.410  19.990  0.00  0.00    -0.226 NA
ATOM      8  C   UNL d   1     -39.347  15.410  18.407  0.00  0.00     0.007 A 
ATOM      9  N   UNL d   1     -40.155  14.424  17.375  0.00  0.00    -0.225 NA
ATOM     10  C   UNL d   1     -40.538  14.924  21.059  0.00  0.00     0.071 A 
ATOM     11  C   UNL d   1     -39.147  15.412  17.618  0.00  0.00     0.019 A 
ATOM     12  C   UNL d   1     -39.937  15.415  20.780  0.00  0.00     0.087 A 
ATOM     13  C   UNL d   1     -39.554  14.915  17.095  0.00  0.00     0.083 A 
ATOM     14  C   UNL d   1     -38.948  15.900  18.928  0.00  0.00     0.000 C 
ATOM     15  C   UNL d   1     -39.524  15.922  21.320  0.00  0.00     0.021 C 
ATOM     16  C   UNL d   1     -39.360  14.912  16.310  0.00  0.00     0.021 C 
ENDROOT
BRANCH   6  17
ATOM     17  N   UNL d   1     -41.552  13.932  20.823  0.00  0.00    -0.379 NA
BRANCH  17  18
ATOM     18  C   UNL d   1     -42.060  13.454  21.284  0.00  0.00     0.182 C 
BRANCH  18  19
ATOM     19  C   UNL d   1     -42.817  13.253  20.972  0.00  0.00     0.116 C 
BRANCH  19  20
ATOM     20  N   UNL d   1     -43.388  12.879  21.484  0.00  0.00    -0.297 N 
ATOM     21  C   UNL d   1     -43.178  12.192  21.904  0.00  0.00     0.107 A 
ATOM     22  C   UNL d   1     -43.752  11.817  22.418  0.00  0.00     0.142 A 
ATOM     23  O   UNL d   1     -44.524  12.140  22.501  0.00  0.00    -0.300 OA
ATOM     24  C   UNL d   1     -44.735  12.841  22.071  0.00  0.00     0.142 A 
ATOM     25  C   UNL d   1     -44.167  13.215  21.560  0.00  0.00     0.107 A 
ENDBRANCH  19  20
ENDBRANCH  18  19
ENDBRANCH  17  18
ENDBRANCH   6  17
TORSDOF 4
ENDMDL
MODEL 6
REMARK VINA RESULT:      -4.7      2.058      4.200
REMARK  4 active torsions:
REMARK  status: ('A' for Active; 'I' for Inactive)
REMARK    1  A    between atoms: N_15  and  C_6 
REMARK    2  A    between atoms: N_14  and  C_19 
REMARK    3  A    between atoms: C_18  and  N_15 
REMARK    4  A    between atoms: C_19  and  C_18 
ROOT
ATOM      1  N   UNL d   1     -44.456  12.569  22.275  0.00  0.00    -0.183 N 
ATOM      2  C   UNL d   1     -45.022  12.188  22.740  0.00  0.00     0.169 A 
ATOM      3  C   UNL d   1     -45.762  12.509  22.838  0.00  0.00     0.073 A 
ATOM      4  C   UNL d   1     -45.934  13.214  22.470  0.00  0.00     0.185 A 
ATOM      5  N   UNL d   1     -45.368  13.595  22.005  0.00  0.00    -0.142 NA
ATOM      6  C   UNL d   1     -43.722  12.232  22.189  0.00  0.00     0.218 A 
ATOM      7  N   UNL d   1     -44.839  11.481  23.105  0.00  0.00    -0.226 NA
ATOM      8  C   UNL d   1     -46.322  12.133  23.298  0.00  0.00     0.007 A 
ATOM      9  N   UNL d   1     -46.679  13.553  22.560  0.00  0.00    -0.225 NA
ATOM     10  C   UNL d   1     -43.536  11.532  22.548  0.00  0.00     0.071 A 
ATOM     11  C   UNL d   1     -47.063  12.455  23.396  0.00  0.00     0.019 A 
ATOM     12  C   UNL d   1     -44.101  11.152  23.012  0.00  0.00     0.087 A 
ATOM     13  C   UNL d   1     -47.245  13.173  23.024  0.00  0.00     0.083 A 
ATOM     14  C   UNL d   1     -46.137  11.424  23.664  0.00  0.00     0.000 C 
ATOM     15  C   UNL d   1     -43.908  10.417  23.391  0.00  0.00     0.021 C 
ATOM     16  C   UNL d   1     -47.980  13.499  23.118  0.00  0.00     0.021 C 
ENDROOT
BRANCH   6  17
ATOM     17  N   UNL d   1     -43.143  12.631  21.707  0.00  0.00    -0.379 NA
BRANCH  17  18
ATOM     18  C   UNL d   1     -42.451  12.863  21.300  0.00  0.00     0.182 C 
BRANCH  18  19
ATOM     19  C   UNL d   1     -42.322  13.685  21.161  0.00  0.00     0.116 C 
BRANCH  19  20
ATOM     20  N   UNL d   1     -41.564  13.937  20.860  0.00  0.00    -0.297 N 
ATOM     21  C   UNL d   1     -40.929  14.052  21.384  0.00  0.00     0.107 A 
ATOM     22  C   UNL d   1     -40.168  14.306  21.080  0.00  0.00     0.142 A 
ATOM     23  O   UNL d   1     -40.062  14.438  20.257  0.00  0.00    -0.300 OA
ATOM     24  C   UNL d   1     -40.714  14.320  19.724  0.00  0.00     0.142 A 
ATOM     25  C   UNL d   1     -41.469  14.068  20.023  0.00  0.00     0.107 A 
ENDBRANCH  19  20
ENDBRANCH  18  19
ENDBRANCH  17  18
ENDBRANCH   6  17
TORSDOF 4
ENDMDL
