MODEL 1
REMARK VINA RESULT:      29.4      0.000      0.000
REMARK  7 active torsions:
REMARK  status: ('A' for Active; 'I' for Inactive)
REMARK    1  A    between atoms: C_2  and  P_1 
REMARK    2  A    between atoms: O_3  and  P_1 
REMARK    3  A    between atoms: C_4  and  P_1 
REMARK    4  A    between atoms: C_12  and  C_2 
REMARK    5  A    between atoms: C_13  and  O_3 
REMARK    6  A    between atoms: N_7  and  C_6 
REMARK    7  A    between atoms: C_15  and  C_13 
ROOT
ATOM      1  P   UNL d   1      14.122  12.580  -1.472  0.00  0.00     0.307 P 
ATOM      2  O   UNL d   1      13.842  11.779  -1.624  0.00  0.00    -0.277 OA
ENDROOT
BRANCH   1   3
ATOM      3  C   UNL d   1      14.476  12.327  -0.735  0.00  0.00     0.253 C 
ATOM      4  O   UNL d   1      14.066  12.439  -0.027  0.00  0.00    -0.281 OA
BRANCH   3   5
ATOM      5  C   UNL d   1      15.221  11.975  -0.727  0.00  0.00     0.044 C 
ATOM      6  C   UNL d   1      15.590  11.779  -1.439  0.00  0.00     0.004 C 
ATOM      7  C   UNL d   1      15.594  11.818  -0.015  0.00  0.00     0.004 C 
ENDBRANCH   3   5
ENDBRANCH   1   3
BRANCH   1   8
ATOM      8  O   UNL d   1      13.763  12.809  -2.208  0.00  0.00    -0.279 OA
BRANCH   8   9
ATOM      9  C   UNL d   1      13.437  12.223  -2.736  0.00  0.00     0.124 C 
BRANCH   9  10
ATOM     10  C   UNL d   1      13.245  12.399  -3.514  0.00  0.00     0.025 A 
ATOM     11  C   UNL d   1      13.082  13.177  -3.733  0.00  0.00     0.002 A 
ATOM     12  C   UNL d   1      12.887  13.360  -4.518  0.00  0.00     0.000 A 
ATOM     13  C   UNL d   1      12.856  12.760  -5.082  0.00  0.00     0.000 A 
ATOM     14  C   UNL d   1      13.021  11.977  -4.859  0.00  0.00     0.000 A 
ATOM     15  C   UNL d   1      13.214  11.798  -4.077  0.00  0.00     0.002 A 
ENDBRANCH   9  10
ENDBRANCH   8   9
ENDBRANCH   1   8
BRANCH   1  16
ATOM     16  C   UNL d   1      14.385  13.385  -1.352  0.00  0.00     0.061 A 
ATOM     17  C   UNL d   1      14.560  13.635  -0.588  0.00  0.00     0.007 A 
ATOM     18  C   UNL d   1      14.814  14.403  -0.454  0.00  0.00     0.018 A 
ATOM     19  C   UNL d   1      14.894  14.926  -1.088  0.00  0.00     0.064 A 
ATOM     20  C   UNL d   1      14.719  14.676  -1.852  0.00  0.00     0.018 A 
ATOM     21  C   UNL d   1      14.464  13.902  -1.984  0.00  0.00     0.007 A 
BRANCH  19  22
ATOM     22  N   UNL d   1      15.161  15.729  -0.937  0.00  0.00    -0.301 N 
ATOM     23  C   UNL d   1      15.050  16.311  -1.518  0.00  0.00     0.100 C 
ATOM     24  C   UNL d   1      15.527  15.928  -0.220  0.00  0.00     0.100 C 
ENDBRANCH  19  22
ENDBRANCH   1  16
TORSDOF 7
ENDMDL
MODEL 2
REMARK VINA RESULT:      31.1      1.791      3.557
REMARK  7 active torsions:
REMARK  status: ('A' for Active; 'I' for Inactive)
REMARK    1  A    between atoms: C_2  and  P_1 
REMARK    2  A    between atoms: O_3  and  P_1 
REMARK    3  A    between atoms: C_4  and  P_1 
REMARK    4  A    between atoms: C_12  and  C_2 
REMARK    5  A    between atoms: C_13  and  O_3 
REMARK    6  A    between atoms: N_7  and  C_6 
REMARK    7  A    between atoms: C_15  and  C_13 
ROOT
ATOM      1  P   UNL d   1      13.588  13.114  -3.752  0.00  0.00     0.307 P 
ATOM      2  O   UNL d   1      13.416  13.459  -4.524  0.00  0.00    -0.277 OA
ENDROOT
BRANCH   1   3
ATOM      3  C   UNL d   1      13.335  12.344  -4.030  0.00  0.00     0.253 C 
ATOM      4  O   UNL d   1      13.021  11.802  -3.493  0.00  0.00    -0.281 OA
BRANCH   3   5
ATOM      5  C   UNL d   1      13.404  12.143  -4.826  0.00  0.00     0.044 C 
ATOM      6  C   UNL d   1      14.112  12.280  -5.225  0.00  0.00     0.004 C 
ATOM      7  C   UNL d   1      12.769  11.807  -5.221  0.00  0.00     0.004 C 
ENDBRANCH   3   5
ENDBRANCH   1   3
BRANCH   1   8
ATOM      8  O   UNL d   1      13.834  13.887  -3.499  0.00  0.00    -0.279 OA
BRANCH   8   9
ATOM      9  C   UNL d   1      13.514  14.589  -3.864  0.00  0.00     0.124 C 
BRANCH   9  10
ATOM     10  C   UNL d   1      13.931  15.295  -3.887  0.00  0.00     0.025 A 
ATOM     11  C   UNL d   1      14.291  15.584  -3.204  0.00  0.00     0.002 A 
ATOM     12  C   UNL d   1      14.715  16.298  -3.223  0.00  0.00     0.000 A 
ATOM     13  C   UNL d   1      14.775  16.718  -3.928  0.00  0.00     0.000 A 
ATOM     14  C   UNL d   1      14.412  16.425  -4.615  0.00  0.00     0.000 A 
ATOM     15  C   UNL d   1      13.991  15.715  -4.593  0.00  0.00     0.002 A 
ENDBRANCH   9  10
ENDBRANCH   8   9
ENDBRANCH   1   8
BRANCH   1  16
ATOM     16  C   UNL d   1      13.768  12.804  -2.977  0.00  0.00     0.061 A 
ATOM     17  C   UNL d   1      14.438  13.079  -2.585  0.00  0.00     0.007 A 
ATOM     18  C   UNL d   1      14.627  12.792  -1.841  0.00  0.00     0.018 A 
ATOM     19  C   UNL d   1      14.144  12.227  -1.483  0.00  0.00     0.064 A 
ATOM     20  C   UNL d   1      13.474  11.952  -1.874  0.00  0.00     0.018 A 
ATOM     21  C   UNL d   1      13.287  12.242  -2.624  0.00  0.00     0.007 A 
BRANCH  19  22
ATOM     22  N   UNL d   1      14.350  11.933  -0.702  0.00  0.00    -0.301 N 
ATOM     23  C   UNL d   1      13.749  11.802  -0.145  0.00  0.00     0.100 C 
ATOM     24  C   UNL d   1      15.139  11.779  -0.500  0.00  0.00     0.100 C 
ENDBRANCH  19  22
ENDBRANCH   1  16
TORSDOF 7
ENDMDL
