MODEL 1
REMARK VINA RESULT:     162.4      0.000      0.000
REMARK  3 active torsions:
REMARK  status: ('A' for Active; 'I' for Inactive)
REMARK       I    between atoms: C_3  and  N_1 
REMARK       I    between atoms: C_2  and  N_7 
REMARK    1  A    between atoms: C_4  and  C_2 
REMARK    2  A    between atoms: C_6  and  C_3 
REMARK    3  A    between atoms: N_7  and  C_15 
ROOT
ATOM      1  N   UNL d   1     -55.253-100.712 -40.783  0.00  0.00    -0.273 N 
ATOM      2  C   UNL d   1     -55.095 -99.925 -40.577  0.00  0.00     0.271 C 
ATOM      3  C   UNL d   1     -55.150-100.970 -41.559  0.00  0.00     0.067 A 
ATOM      4  C   UNL d   1     -55.309-101.753 -41.757  0.00  0.00     0.018 A 
ATOM      5  C   UNL d   1     -54.889-100.439 -42.131  0.00  0.00     0.019 A 
ATOM      6  O   UNL d   1     -54.832 -99.386 -41.146  0.00  0.00    -0.266 OA
ATOM      7  C   UNL d   1     -54.941-101.476 -43.116  0.00  0.00     0.085 A 
ATOM      8  C   UNL d   1     -55.205-102.008 -42.535  0.00  0.00     0.021 A 
ATOM      9  C   UNL d   1     -55.517-101.252 -40.213  0.00  0.00     0.083 A 
ATOM     10  C   UNL d   1     -54.784-100.689 -42.906  0.00  0.00     0.021 A 
ATOM     11  C   UNL d   1     -55.569-102.282 -41.191  0.00  0.00     0.003 A 
ATOM     12  C   UNL d   1     -55.674-102.030 -40.412  0.00  0.00     0.019 A 
ENDROOT
BRANCH   7  13
ATOM     13  N   UNL d   1     -54.839-101.732 -43.884  0.00  0.00    -0.208 NA
ATOM     14  C   UNL d   1     -55.067-101.251 -44.513  0.00  0.00     0.282 C 
ATOM     15  O   UNL d   1     -55.398-100.511 -44.374  0.00  0.00    -0.265 OA
BRANCH  14  16
ATOM     16  C   UNL d   1     -54.967-101.503 -45.284  0.00  0.00     0.096 A 
ATOM     17  C   UNL d   1     -54.876-100.948 -45.899  0.00  0.00     0.065 A 
ATOM     18 CL   UNL d   1     -54.888-100.144 -45.721  0.00  0.00    -0.082 Cl
ATOM     19  C   UNL d   1     -54.776-101.200 -46.673  0.00  0.00     0.012 A 
ATOM     20  C   UNL d   1     -54.765-102.010 -46.841  0.00  0.00     0.003 A 
ATOM     21  C   UNL d   1     -54.856-102.560 -46.227  0.00  0.00     0.030 A 
ATOM     22  C   UNL d   1     -54.956-102.303 -45.450  0.00  0.00     0.146 A 
ATOM     23  F   UNL d   1     -55.046-102.865 -44.845  0.00  0.00    -0.204 F 
ENDBRANCH  14  16
ENDBRANCH   7  13
BRANCH   2  24
ATOM     24  C   UNL d   1     -55.203 -99.677 -39.793  0.00  0.00     0.086 A 
ATOM     25  S   UNL d   1     -55.551 -98.954 -39.556  0.00  0.00    -0.082 SA
ATOM     26  C   UNL d   1     -55.542 -98.942 -38.730  0.00  0.00     0.036 A 
ATOM     27  C   UNL d   1     -55.198 -99.637 -38.449  0.00  0.00     0.008 A 
ATOM     28  C   UNL d   1     -54.989-100.092 -39.109  0.00  0.00     0.012 A 
ENDBRANCH   2  24
TORSDOF 3
ENDMDL
