MODEL 1
REMARK VINA RESULT:      -3.7      0.000      0.000
REMARK  1 active torsions:
REMARK  status: ('A' for Active; 'I' for Inactive)
REMARK    1  A    between atoms: N_14  and  C_8 
ROOT
ATOM      1  C   UNL d   1      33.238  19.720 -22.547  0.00  0.00     0.056 A 
ATOM      2  C   UNL d   1      33.236  21.685 -21.035  0.00  0.00     0.074 A 
ATOM      3  C   UNL d   1      33.240  19.828 -23.365  0.00  0.00    -0.012 A 
ATOM      4  C   UNL d   1      33.238  20.373 -22.046  0.00  0.00    -0.016 A 
ATOM      5  C   UNL d   1      33.238  21.793 -21.858  0.00  0.00    -0.014 A 
ATOM      6  C   UNL d   1      33.238  21.141 -22.360  0.00  0.00    -0.007 A 
ATOM      7  C   UNL d   1      33.240  20.588 -23.678  0.00  0.00    -0.004 A 
ATOM      8  C   UNL d   1      33.236  22.433 -20.684  0.00  0.00     0.089 A 
ATOM      9  C   UNL d   1      33.236  20.916 -20.721  0.00  0.00    -0.017 A 
ATOM     10  C   UNL d   1      33.240  21.249 -23.178  0.00  0.00    -0.001 A 
ATOM     11  C   UNL d   1      33.236  20.264 -21.223  0.00  0.00    -0.008 A 
ATOM     12  C   UNL d   1      33.238  18.960 -22.232  0.00  0.00    -0.015 A 
ATOM     13  C   UNL d   1      33.238  22.608 -22.011  0.00  0.00    -0.002 A 
ATOM     14  C   UNL d   1      33.240  19.175 -23.864  0.00  0.00     0.038 A 
ATOM     15  C   UNL d   1      33.237  22.995 -21.279  0.00  0.00     0.017 A 
ATOM     16  C   UNL d   1      33.238  18.303 -22.734  0.00  0.00     0.038 A 
ATOM     17  C   UNL d   1      33.240  18.411 -23.552  0.00  0.00     0.195 A 
ATOM     18  C   UNL d   1      33.237  19.611 -21.726  0.00  0.00     0.013 C 
ATOM     19  C   UNL d   1      33.235  21.577 -20.218  0.00  0.00     0.015 C 
ATOM     20  O   UNL d   1      33.240  17.758 -24.051  0.00  0.00    -0.287 OA
ENDROOT
BRANCH   8  21
ATOM     21  N   UNL d   1      33.235  22.578 -19.871  0.00  0.00    -0.131 NA
ATOM     22  N   UNL d   1      33.045  23.315 -19.543  0.00  0.00    -0.023 N 
ENDBRANCH   8  21
TORSDOF 1
ENDMDL
MODEL 2
REMARK VINA RESULT:      -3.6      2.390      3.782
REMARK  1 active torsions:
REMARK  status: ('A' for Active; 'I' for Inactive)
REMARK    1  A    between atoms: N_14  and  C_8 
ROOT
ATOM      1  C   UNL d   1      33.176  21.535 -21.327  0.00  0.00     0.056 A 
ATOM      2  C   UNL d   1      33.218  19.469 -22.697  0.00  0.00     0.074 A 
ATOM      3  C   UNL d   1      33.174  22.274 -21.694  0.00  0.00    -0.012 A 
ATOM      4  C   UNL d   1      33.190  20.849 -21.783  0.00  0.00    -0.016 A 
ATOM      5  C   UNL d   1      33.216  20.212 -23.066  0.00  0.00    -0.014 A 
ATOM      6  C   UNL d   1      33.202  20.898 -22.612  0.00  0.00    -0.007 A 
ATOM      7  C   UNL d   1      33.187  22.324 -22.515  0.00  0.00    -0.004 A 
ATOM      8  C   UNL d   1      33.233  18.895 -23.292  0.00  0.00     0.089 A 
ATOM      9  C   UNL d   1      33.205  19.420 -21.868  0.00  0.00    -0.017 A 
ATOM     10  C   UNL d   1      33.201  21.637 -22.979  0.00  0.00    -0.001 A 
ATOM     11  C   UNL d   1      33.191  20.106 -21.414  0.00  0.00    -0.008 A 
ATOM     12  C   UNL d   1      33.163  21.483 -20.507  0.00  0.00    -0.015 A 
ATOM     13  C   UNL d   1      33.231  20.093 -23.887  0.00  0.00    -0.002 A 
ATOM     14  C   UNL d   1      33.160  22.957 -21.238  0.00  0.00     0.038 A 
ATOM     15  C   UNL d   1      33.241  19.276 -24.016  0.00  0.00     0.017 A 
ATOM     16  C   UNL d   1      33.149  22.170 -20.048  0.00  0.00     0.038 A 
ATOM     17  C   UNL d   1      33.148  22.909 -20.414  0.00  0.00     0.195 A 
ATOM     18  C   UNL d   1      33.177  20.793 -20.959  0.00  0.00     0.013 C 
ATOM     19  C   UNL d   1      33.219  18.731 -22.331  0.00  0.00     0.015 C 
ATOM     20  O   UNL d   1      33.134  23.592 -19.959  0.00  0.00    -0.287 OA
ENDROOT
BRANCH   8  21
ATOM     21  N   UNL d   1      33.239  18.079 -23.166  0.00  0.00    -0.131 NA
ATOM     22  N   UNL d   1      33.010  17.530 -23.744  0.00  0.00    -0.023 N 
ENDBRANCH   8  21
TORSDOF 1
ENDMDL
MODEL 3
REMARK VINA RESULT:      -3.4      0.950      1.690
REMARK  1 active torsions:
REMARK  status: ('A' for Active; 'I' for Inactive)
REMARK    1  A    between atoms: N_14  and  C_8 
ROOT
ATOM      1  C   UNL d   1      33.140  18.411 -23.608  0.00  0.00     0.056 A 
ATOM      2  C   UNL d   1      33.187  20.396 -22.125  0.00  0.00     0.074 A 
ATOM      3  C   UNL d   1      33.158  18.506 -24.428  0.00  0.00    -0.012 A 
ATOM      4  C   UNL d   1      33.155  19.070 -23.116  0.00  0.00    -0.016 A 
ATOM      5  C   UNL d   1      33.206  20.493 -22.949  0.00  0.00    -0.014 A 
ATOM      6  C   UNL d   1      33.190  19.834 -23.441  0.00  0.00    -0.007 A 
ATOM      7  C   UNL d   1      33.192  19.262 -24.751  0.00  0.00    -0.004 A 
ATOM      8  C   UNL d   1      33.209  21.150 -21.784  0.00  0.00     0.089 A 
ATOM      9  C   UNL d   1      33.152  19.633 -21.800  0.00  0.00    -0.017 A 
ATOM     10  C   UNL d   1      33.209  19.930 -24.260  0.00  0.00    -0.001 A 
ATOM     11  C   UNL d   1      33.137  18.974 -22.292  0.00  0.00    -0.008 A 
ATOM     12  C   UNL d   1      33.105  17.656 -23.283  0.00  0.00    -0.015 A 
ATOM     13  C   UNL d   1      33.239  21.305 -23.113  0.00  0.00    -0.002 A 
ATOM     14  C   UNL d   1      33.142  17.847 -24.917  0.00  0.00     0.038 A 
ATOM     15  C   UNL d   1      33.241  21.702 -22.387  0.00  0.00     0.017 A 
ATOM     16  C   UNL d   1      33.089  16.992 -23.775  0.00  0.00     0.038 A 
ATOM     17  C   UNL d   1      33.108  17.088 -24.595  0.00  0.00     0.195 A 
ATOM     18  C   UNL d   1      33.121  18.314 -22.785  0.00  0.00     0.013 C 
ATOM     19  C   UNL d   1      33.169  20.301 -21.306  0.00  0.00     0.015 C 
ATOM     20  O   UNL d   1      33.092  16.429 -25.084  0.00  0.00    -0.287 OA
ENDROOT
BRANCH   8  21
ATOM     21  N   UNL d   1      33.200  21.306 -20.974  0.00  0.00    -0.131 NA
ATOM     22  N   UNL d   1      33.167  22.074 -20.661  0.00  0.00    -0.023 N 
ENDBRANCH   8  21
TORSDOF 1
ENDMDL
MODEL 4
REMARK VINA RESULT:      -3.1      2.725      4.245
REMARK  1 active torsions:
REMARK  status: ('A' for Active; 'I' for Inactive)
REMARK    1  A    between atoms: N_14  and  C_8 
ROOT
ATOM      1  C   UNL d   1      33.116  22.979 -20.393  0.00  0.00     0.056 A 
ATOM      2  C   UNL d   1      33.142  22.985 -22.873  0.00  0.00     0.074 A 
ATOM      3  C   UNL d   1      33.165  22.265 -19.982  0.00  0.00    -0.012 A 
ATOM      4  C   UNL d   1      33.125  22.980 -21.217  0.00  0.00    -0.016 A 
ATOM      5  C   UNL d   1      33.190  22.268 -22.458  0.00  0.00    -0.014 A 
ATOM      6  C   UNL d   1      33.182  22.265 -21.636  0.00  0.00    -0.007 A 
ATOM      7  C   UNL d   1      33.221  21.557 -20.395  0.00  0.00    -0.004 A 
ATOM      8  C   UNL d   1      33.163  22.809 -23.680  0.00  0.00     0.089 A 
ATOM      9  C   UNL d   1      33.085  23.700 -22.454  0.00  0.00    -0.017 A 
ATOM     10  C   UNL d   1      33.230  21.552 -21.224  0.00  0.00    -0.001 A 
ATOM     11  C   UNL d   1      33.076  23.698 -21.631  0.00  0.00    -0.008 A 
ATOM     12  C   UNL d   1      33.060  23.689 -19.982  0.00  0.00    -0.015 A 
ATOM     13  C   UNL d   1      33.241  21.653 -23.012  0.00  0.00    -0.002 A 
ATOM     14  C   UNL d   1      33.156  22.266 -19.160  0.00  0.00     0.038 A 
ATOM     15  C   UNL d   1      33.223  21.998 -23.764  0.00  0.00     0.017 A 
ATOM     16  C   UNL d   1      33.051  23.689 -19.155  0.00  0.00     0.038 A 
ATOM     17  C   UNL d   1      33.100  22.976 -18.743  0.00  0.00     0.195 A 
ATOM     18  C   UNL d   1      33.068  23.695 -20.807  0.00  0.00     0.013 C 
ATOM     19  C   UNL d   1      33.093  23.697 -23.284  0.00  0.00     0.015 C 
ATOM     20  O   UNL d   1      33.091  22.976 -17.922  0.00  0.00    -0.287 OA
ENDROOT
BRANCH   8  21
ATOM     21  N   UNL d   1      33.128  23.365 -24.290  0.00  0.00    -0.131 NA
ATOM     22  N   UNL d   1      33.138  23.158 -25.092  0.00  0.00    -0.023 N 
ENDBRANCH   8  21
TORSDOF 1
ENDMDL
MODEL 5
REMARK VINA RESULT:      -2.5      1.677      2.489
REMARK  1 active torsions:
REMARK  status: ('A' for Active; 'I' for Inactive)
REMARK    1  A    between atoms: N_14  and  C_8 
ROOT
ATOM      1  C   UNL d   1      33.221  18.960 -23.489  0.00  0.00     0.056 A 
ATOM      2  C   UNL d   1      33.233  21.430 -23.716  0.00  0.00     0.074 A 
ATOM      3  C   UNL d   1      33.219  18.614 -22.740  0.00  0.00    -0.012 A 
ATOM      4  C   UNL d   1      33.225  19.781 -23.564  0.00  0.00    -0.016 A 
ATOM      5  C   UNL d   1      33.231  21.081 -22.962  0.00  0.00    -0.014 A 
ATOM      6  C   UNL d   1      33.227  20.262 -22.887  0.00  0.00    -0.007 A 
ATOM      7  C   UNL d   1      33.221  19.090 -22.070  0.00  0.00    -0.004 A 
ATOM      8  C   UNL d   1      33.237  22.250 -23.612  0.00  0.00     0.089 A 
ATOM      9  C   UNL d   1      33.231  20.948 -24.392  0.00  0.00    -0.017 A 
ATOM     10  C   UNL d   1      33.225  19.916 -22.138  0.00  0.00    -0.001 A 
ATOM     11  C   UNL d   1      33.227  20.129 -24.317  0.00  0.00    -0.008 A 
ATOM     12  C   UNL d   1      33.219  18.487 -24.162  0.00  0.00    -0.015 A 
ATOM     13  C   UNL d   1      33.234  21.688 -22.397  0.00  0.00    -0.002 A 
ATOM     14  C   UNL d   1      33.215  17.796 -22.668  0.00  0.00     0.038 A 
ATOM     15  C   UNL d   1      33.237  22.406 -22.809  0.00  0.00     0.017 A 
ATOM     16  C   UNL d   1      33.215  17.663 -24.089  0.00  0.00     0.038 A 
ATOM     17  C   UNL d   1      33.213  17.317 -23.340  0.00  0.00     0.195 A 
ATOM     18  C   UNL d   1      33.223  19.308 -24.242  0.00  0.00     0.013 C 
ATOM     19  C   UNL d   1      33.235  21.775 -24.463  0.00  0.00     0.015 C 
ATOM     20  O   UNL d   1      33.209  16.499 -23.268  0.00  0.00    -0.287 OA
ENDROOT
BRANCH   8  21
ATOM     21  N   UNL d   1      33.240  22.807 -24.221  0.00  0.00    -0.131 NA
ATOM     22  N   UNL d   1      33.236  23.625 -24.086  0.00  0.00    -0.023 N 
ENDBRANCH   8  21
TORSDOF 1
ENDMDL
MODEL 6
REMARK VINA RESULT:      -2.5      1.331      2.176
REMARK  1 active torsions:
REMARK  status: ('A' for Active; 'I' for Inactive)
REMARK    1  A    between atoms: N_14  and  C_8 
ROOT
ATOM      1  C   UNL d   1      33.025  21.108 -21.170  0.00  0.00     0.056 A 
ATOM      2  C   UNL d   1      33.028  22.425 -19.069  0.00  0.00     0.074 A 
ATOM      3  C   UNL d   1      32.812  21.467 -21.882  0.00  0.00    -0.012 A 
ATOM      4  C   UNL d   1      33.026  21.546 -20.473  0.00  0.00    -0.016 A 
ATOM      5  C   UNL d   1      32.815  22.785 -19.785  0.00  0.00    -0.014 A 
ATOM      6  C   UNL d   1      32.813  22.349 -20.483  0.00  0.00    -0.007 A 
ATOM      7  C   UNL d   1      32.602  22.261 -21.893  0.00  0.00    -0.004 A 
ATOM      8  C   UNL d   1      32.977  22.997 -18.475  0.00  0.00     0.089 A 
ATOM      9  C   UNL d   1      33.241  21.622 -19.060  0.00  0.00    -0.017 A 
ATOM     10  C   UNL d   1      32.601  22.707 -21.194  0.00  0.00    -0.001 A 
ATOM     11  C   UNL d   1      33.240  21.185 -19.757  0.00  0.00    -0.008 A 
ATOM     12  C   UNL d   1      33.236  20.313 -21.156  0.00  0.00    -0.015 A 
ATOM     13  C   UNL d   1      32.632  23.579 -19.630  0.00  0.00    -0.002 A 
ATOM     14  C   UNL d   1      32.812  21.029 -22.577  0.00  0.00     0.038 A 
ATOM     15  C   UNL d   1      32.735  23.700 -18.818  0.00  0.00     0.017 A 
ATOM     16  C   UNL d   1      33.236  19.872 -21.856  0.00  0.00     0.038 A 
ATOM     17  C   UNL d   1      33.023  20.231 -22.568  0.00  0.00     0.195 A 
ATOM     18  C   UNL d   1      33.239  20.748 -20.455  0.00  0.00     0.013 C 
ATOM     19  C   UNL d   1      33.241  22.066 -18.358  0.00  0.00     0.015 C 
ATOM     20  O   UNL d   1      33.023  19.793 -23.262  0.00  0.00    -0.287 OA
ENDROOT
BRANCH   8  21
ATOM     21  N   UNL d   1      33.143  22.872 -17.676  0.00  0.00    -0.131 NA
ATOM     22  N   UNL d   1      33.178  23.485 -17.120  0.00  0.00    -0.023 N 
ENDBRANCH   8  21
TORSDOF 1
ENDMDL
MODEL 7
REMARK VINA RESULT:      -1.1      5.494      6.636
REMARK  1 active torsions:
REMARK  status: ('A' for Active; 'I' for Inactive)
REMARK    1  A    between atoms: N_14  and  C_8 
ROOT
ATOM      1  C   UNL d   1      28.741  16.188 -23.747  0.00  0.00     0.056 A 
ATOM      2  C   UNL d   1      31.070  16.258 -24.596  0.00  0.00     0.074 A 
ATOM      3  C   UNL d   1      28.282  16.873 -23.744  0.00  0.00    -0.012 A 
ATOM      4  C   UNL d   1      29.515  16.212 -24.029  0.00  0.00    -0.016 A 
ATOM      5  C   UNL d   1      30.607  16.947 -24.594  0.00  0.00    -0.014 A 
ATOM      6  C   UNL d   1      29.835  16.924 -24.312  0.00  0.00    -0.007 A 
ATOM      7  C   UNL d   1      28.597  17.579 -24.024  0.00  0.00    -0.004 A 
ATOM      8  C   UNL d   1      31.810  16.455 -24.907  0.00  0.00     0.089 A 
ATOM      9  C   UNL d   1      30.750  15.546 -24.313  0.00  0.00    -0.017 A 
ATOM     10  C   UNL d   1      29.375  17.609 -24.310  0.00  0.00    -0.001 A 
ATOM     11  C   UNL d   1      29.977  15.523 -24.031  0.00  0.00    -0.008 A 
ATOM     12  C   UNL d   1      28.428  15.481 -23.467  0.00  0.00    -0.015 A 
ATOM     13  C   UNL d   1      31.064  17.566 -24.904  0.00  0.00    -0.002 A 
ATOM     14  C   UNL d   1      27.511  16.847 -23.463  0.00  0.00     0.038 A 
ATOM     15  C   UNL d   1      31.806  17.251 -25.094  0.00  0.00     0.017 A 
ATOM     16  C   UNL d   1      27.652  15.455 -23.183  0.00  0.00     0.038 A 
ATOM     17  C   UNL d   1      27.192  16.140 -23.181  0.00  0.00     0.195 A 
ATOM     18  C   UNL d   1      29.204  15.500 -23.749  0.00  0.00     0.013 C 
ATOM     19  C   UNL d   1      31.529  15.574 -24.598  0.00  0.00     0.015 C 
ATOM     20  O   UNL d   1      26.421  16.114 -22.899  0.00  0.00    -0.287 OA
ENDROOT
BRANCH   8  21
ATOM     21  N   UNL d   1      32.439  15.930 -25.008  0.00  0.00    -0.131 NA
ATOM     22  N   UNL d   1      33.227  16.177 -25.082  0.00  0.00    -0.023 N 
ENDBRANCH   8  21
TORSDOF 1
ENDMDL
MODEL 8
REMARK VINA RESULT:      -1.1      4.667      5.910
REMARK  1 active torsions:
REMARK  status: ('A' for Active; 'I' for Inactive)
REMARK    1  A    between atoms: N_14  and  C_8 
ROOT
ATOM      1  C   UNL d   1      29.383  16.464 -23.881  0.00  0.00     0.056 A 
ATOM      2  C   UNL d   1      31.552  17.482 -24.518  0.00  0.00     0.074 A 
ATOM      3  C   UNL d   1      29.366  15.808 -23.381  0.00  0.00    -0.012 A 
ATOM      4  C   UNL d   1      30.104  16.802 -24.092  0.00  0.00    -0.016 A 
ATOM      5  C   UNL d   1      31.535  16.822 -24.015  0.00  0.00    -0.014 A 
ATOM      6  C   UNL d   1      30.815  16.484 -23.804  0.00  0.00    -0.007 A 
ATOM      7  C   UNL d   1      30.069  15.493 -23.095  0.00  0.00    -0.004 A 
ATOM      8  C   UNL d   1      32.345  17.691 -24.628  0.00  0.00     0.089 A 
ATOM      9  C   UNL d   1      30.841  17.799 -24.807  0.00  0.00    -0.017 A 
ATOM     10  C   UNL d   1      30.797  15.828 -23.304  0.00  0.00    -0.001 A 
ATOM     11  C   UNL d   1      30.122  17.462 -24.595  0.00  0.00    -0.008 A 
ATOM     12  C   UNL d   1      28.681  16.782 -24.169  0.00  0.00    -0.015 A 
ATOM     13  C   UNL d   1      32.316  16.628 -23.817  0.00  0.00    -0.002 A 
ATOM     14  C   UNL d   1      28.646  15.473 -23.171  0.00  0.00     0.038 A 
ATOM     15  C   UNL d   1      32.809  17.171 -24.200  0.00  0.00     0.017 A 
ATOM     16  C   UNL d   1      27.956  16.444 -23.957  0.00  0.00     0.038 A 
ATOM     17  C   UNL d   1      27.939  15.788 -23.457  0.00  0.00     0.195 A 
ATOM     18  C   UNL d   1      29.401  17.123 -24.383  0.00  0.00     0.013 C 
ATOM     19  C   UNL d   1      31.570  18.137 -25.018  0.00  0.00     0.015 C 
ATOM     20  O   UNL d   1      27.219  15.453 -23.248  0.00  0.00    -0.287 OA
ENDROOT
BRANCH   8  21
ATOM     21  N   UNL d   1      32.611  18.321 -25.091  0.00  0.00    -0.131 NA
ATOM     22  N   UNL d   1      33.241  18.812 -24.869  0.00  0.00    -0.023 N 
ENDBRANCH   8  21
TORSDOF 1
ENDMDL
