MODEL 1
REMARK VINA RESULT:       6.5      0.000      0.000
REMARK  6 active torsions:
REMARK  status: ('A' for Active; 'I' for Inactive)
REMARK    1  A    between atoms: S_10  and  C_5 
REMARK    2  A    between atoms: C_11  and  N_8 
REMARK    3  A    between atoms: C_15  and  S_10 
REMARK    4  A    between atoms: C_16  and  C_11 
REMARK    5  A    between atoms: C_17  and  C_15 
REMARK    6  A    between atoms: C_23  and  C_16 
ROOT
ATOM      1  C   UNL d   1     -42.493-122.742 -50.861  0.00  0.00     0.174 A 
ATOM      2  C   UNL d   1     -42.016-122.103 -50.632  0.00  0.00     0.159 A 
ATOM      3  N   UNL d   1     -42.461-122.799 -51.676  0.00  0.00    -0.203 NA
ATOM      4  N   UNL d   1     -42.887-123.178 -50.282  0.00  0.00    -0.239 N 
ATOM      5  C   UNL d   1     -41.965-122.194 -51.943  0.00  0.00     0.181 A 
ATOM      6  C   UNL d   1     -42.822-122.997 -49.464  0.00  0.00     0.358 A 
ATOM      7  N   UNL d   1     -42.346-122.358 -49.236  0.00  0.00    -0.152 NA
ATOM      8  N   UNL d   1     -41.642-121.709 -51.345  0.00  0.00    -0.279 N 
ATOM      9  C   UNL d   1     -41.934-121.900 -49.824  0.00  0.00     0.302 A 
ATOM     10  O   UNL d   1     -43.219-123.434 -48.873  0.00  0.00    -0.244 OA
ATOM     11  O   UNL d   1     -41.457-121.262 -49.595  0.00  0.00    -0.263 OA
ATOM     12  C   UNL d   1     -43.363-123.816 -50.510  0.00  0.00     0.105 C 
ENDROOT
BRANCH   5  13
ATOM     13  S   UNL d   1     -41.908-122.220 -52.763  0.00  0.00    -0.049 SA
BRANCH  13  14
ATOM     14  C   UNL d   1     -42.244-122.685 -53.361  0.00  0.00     0.038 C 
BRANCH  14  15
ATOM     15  C   UNL d   1     -42.229-122.426 -54.144  0.00  0.00     0.007 A 
ATOM     16  C   UNL d   1     -41.574-122.592 -54.614  0.00  0.00     0.001 A 
ATOM     17  C   UNL d   1     -41.559-122.333 -55.397  0.00  0.00     0.000 A 
ATOM     18  C   UNL d   1     -42.199-121.910 -55.707  0.00  0.00     0.000 A 
ATOM     19  C   UNL d   1     -42.855-121.747 -55.228  0.00  0.00     0.000 A 
ATOM     20  C   UNL d   1     -42.184-121.650 -56.494  0.00  0.00     0.000 C 
ATOM     21  C   UNL d   1     -42.866-122.007 -54.445  0.00  0.00     0.001 A 
ENDBRANCH  14  15
ENDBRANCH  13  14
ENDBRANCH   5  13
BRANCH   8  22
ATOM     22  C   UNL d   1     -41.138-121.086 -51.536  0.00  0.00     0.082 C 
BRANCH  22  23
ATOM     23  C   UNL d   1     -41.259-120.337 -51.211  0.00  0.00     0.019 C 
BRANCH  23  24
ATOM     24  C   UNL d   1     -41.174-119.662 -51.675  0.00  0.00     0.002 C 
ATOM     25  C   UNL d   1     -41.123-119.722 -52.496  0.00  0.00     0.000 C 
ATOM     26  C   UNL d   1     -41.140-118.915 -51.321  0.00  0.00     0.000 C 
ENDBRANCH  23  24
ENDBRANCH  22  23
ENDBRANCH   8  22
TORSDOF 6
ENDMDL
MODEL 2
REMARK VINA RESULT:       8.5      2.084      4.779
REMARK  6 active torsions:
REMARK  status: ('A' for Active; 'I' for Inactive)
REMARK    1  A    between atoms: S_10  and  C_5 
REMARK    2  A    between atoms: C_11  and  N_8 
REMARK    3  A    between atoms: C_15  and  S_10 
REMARK    4  A    between atoms: C_16  and  C_11 
REMARK    5  A    between atoms: C_17  and  C_15 
REMARK    6  A    between atoms: C_23  and  C_16 
ROOT
ATOM      1  C   UNL d   1     -41.128-120.561 -51.703  0.00  0.00     0.174 A 
ATOM      2  C   UNL d   1     -41.128-120.946 -52.438  0.00  0.00     0.159 A 
ATOM      3  N   UNL d   1     -41.130-121.134 -51.119  0.00  0.00    -0.203 NA
ATOM      4  N   UNL d   1     -41.127-119.737 -51.681  0.00  0.00    -0.239 N 
ATOM      5  C   UNL d   1     -41.131-121.868 -51.500  0.00  0.00     0.181 A 
ATOM      6  C   UNL d   1     -41.125-119.271 -52.380  0.00  0.00     0.358 A 
ATOM      7  N   UNL d   1     -41.125-119.655 -53.114  0.00  0.00    -0.152 NA
ATOM      8  N   UNL d   1     -41.129-121.837 -52.334  0.00  0.00    -0.279 N 
ATOM      9  C   UNL d   1     -41.126-120.506 -53.150  0.00  0.00     0.302 A 
ATOM     10  O   UNL d   1     -41.124-118.435 -52.364  0.00  0.00    -0.244 OA
ATOM     11  O   UNL d   1     -41.125-120.891 -53.884  0.00  0.00    -0.263 OA
ATOM     12  C   UNL d   1     -41.127-119.352 -50.947  0.00  0.00     0.105 C 
ENDROOT
BRANCH   5  13
ATOM     13  S   UNL d   1     -41.132-122.473 -50.943  0.00  0.00    -0.049 SA
BRANCH  13  14
ATOM     14  C   UNL d   1     -41.703-122.994 -50.645  0.00  0.00     0.038 C 
BRANCH  14  15
ATOM     15  C   UNL d   1     -41.835-123.042 -49.831  0.00  0.00     0.007 A 
ATOM     16  C   UNL d   1     -42.593-122.924 -49.535  0.00  0.00     0.001 A 
ATOM     17  C   UNL d   1     -42.725-122.972 -48.722  0.00  0.00     0.000 A 
ATOM     18  C   UNL d   1     -42.097-123.138 -48.209  0.00  0.00     0.000 A 
ATOM     19  C   UNL d   1     -41.336-123.257 -48.514  0.00  0.00     0.000 A 
ATOM     20  C   UNL d   1     -42.229-123.186 -47.392  0.00  0.00     0.000 C 
ATOM     21  C   UNL d   1     -41.209-123.208 -49.328  0.00  0.00     0.001 A 
ENDBRANCH  14  15
ENDBRANCH  13  14
ENDBRANCH   5  13
BRANCH   8  22
ATOM     22  C   UNL d   1     -41.130-122.529 -52.781  0.00  0.00     0.082 C 
BRANCH  22  23
ATOM     23  C   UNL d   1     -41.626-122.603 -53.436  0.00  0.00     0.019 C 
BRANCH  23  24
ATOM     24  C   UNL d   1     -41.758-123.340 -53.779  0.00  0.00     0.002 C 
ATOM     25  C   UNL d   1     -41.123-123.817 -54.002  0.00  0.00     0.000 C 
ATOM     26  C   UNL d   1     -42.530-123.610 -53.904  0.00  0.00     0.000 C 
ENDBRANCH  23  24
ENDBRANCH  22  23
ENDBRANCH   8  22
TORSDOF 6
ENDMDL
MODEL 3
REMARK VINA RESULT:       9.1      1.814      2.653
REMARK  6 active torsions:
REMARK  status: ('A' for Active; 'I' for Inactive)
REMARK    1  A    between atoms: S_10  and  C_5 
REMARK    2  A    between atoms: C_11  and  N_8 
REMARK    3  A    between atoms: C_15  and  S_10 
REMARK    4  A    between atoms: C_16  and  C_11 
REMARK    5  A    between atoms: C_17  and  C_15 
REMARK    6  A    between atoms: C_23  and  C_16 
ROOT
ATOM      1  C   UNL d   1     -42.011-123.204 -48.914  0.00  0.00     0.174 A 
ATOM      2  C   UNL d   1     -42.776-122.996 -49.158  0.00  0.00     0.159 A 
ATOM      3  N   UNL d   1     -41.512-123.125 -49.558  0.00  0.00    -0.203 NA
ATOM      4  N   UNL d   1     -41.887-123.436 -48.132  0.00  0.00    -0.239 N 
ATOM      5  C   UNL d   1     -41.976-122.869 -50.193  0.00  0.00     0.181 A 
ATOM      6  C   UNL d   1     -42.511-123.469 -47.571  0.00  0.00     0.358 A 
ATOM      7  N   UNL d   1     -43.276-123.262 -47.815  0.00  0.00    -0.152 NA
ATOM      8  N   UNL d   1     -42.786-122.763 -50.023  0.00  0.00    -0.279 N 
ATOM      9  C   UNL d   1     -43.417-123.021 -48.620  0.00  0.00     0.302 A 
ATOM     10  O   UNL d   1     -42.392-123.704 -46.778  0.00  0.00    -0.244 OA
ATOM     11  O   UNL d   1     -44.182-122.813 -48.863  0.00  0.00    -0.263 OA
ATOM     12  C   UNL d   1     -41.123-123.643 -47.889  0.00  0.00     0.105 C 
ENDROOT
BRANCH   5  13
ATOM     13  S   UNL d   1     -41.506-122.778 -50.863  0.00  0.00    -0.049 SA
BRANCH  13  14
ATOM     14  C   UNL d   1     -41.123-123.294 -51.385  0.00  0.00     0.038 C 
BRANCH  14  15
ATOM     15  C   UNL d   1     -41.173-123.170 -52.200  0.00  0.00     0.007 A 
ATOM     16  C   UNL d   1     -41.273-123.814 -52.703  0.00  0.00     0.001 A 
ATOM     17  C   UNL d   1     -41.323-123.690 -53.517  0.00  0.00     0.000 A 
ATOM     18  C   UNL d   1     -41.272-122.924 -53.824  0.00  0.00     0.000 A 
ATOM     19  C   UNL d   1     -41.172-122.280 -53.312  0.00  0.00     0.000 A 
ATOM     20  C   UNL d   1     -41.322-122.799 -54.642  0.00  0.00     0.000 C 
ATOM     21  C   UNL d   1     -41.123-122.409 -52.498  0.00  0.00     0.001 A 
ENDBRANCH  14  15
ENDBRANCH  13  14
ENDBRANCH   5  13
BRANCH   8  22
ATOM     22  C   UNL d   1     -43.308-122.510 -50.608  0.00  0.00     0.082 C 
BRANCH  22  23
ATOM     23  C   UNL d   1     -43.603-121.739 -50.599  0.00  0.00     0.019 C 
BRANCH  23  24
ATOM     24  C   UNL d   1     -44.260-121.538 -51.053  0.00  0.00     0.002 C 
ATOM     25  C   UNL d   1     -45.005-121.470 -50.705  0.00  0.00     0.000 C 
ATOM     26  C   UNL d   1     -44.180-121.401 -51.865  0.00  0.00     0.000 C 
ENDBRANCH  23  24
ENDBRANCH  22  23
ENDBRANCH   8  22
TORSDOF 6
ENDMDL
