MODEL 1
REMARK VINA RESULT:      -4.8      0.000      0.000
REMARK  3 active torsions:
REMARK  status: ('A' for Active; 'I' for Inactive)
REMARK    1  A    between atoms: C_6  and  C_1 
REMARK    2  A    between atoms: O_10  and  C_6 
REMARK    3  A    between atoms: C_13  and  O_10 
ROOT
ATOM      1  C   UNL d   1     -41.600-122.765 -51.446  0.00  0.00     0.121 A 
ATOM      2  C   UNL d   1     -42.165-122.477 -50.918  0.00  0.00     0.204 A 
ATOM      3  C   UNL d   1     -41.123-123.405 -51.233  0.00  0.00     0.107 A 
ATOM      4  C   UNL d   1     -42.251-122.828 -50.177  0.00  0.00     0.057 A 
ATOM      5  N   UNL d   1     -41.213-123.757 -50.485  0.00  0.00    -0.244 NA
ATOM      6  C   UNL d   1     -41.777-123.469 -49.956  0.00  0.00     0.085 A 
ATOM      7  O   UNL d   1     -42.640-121.836 -51.135  0.00  0.00    -0.286 OA
ATOM      8  C   UNL d   1     -42.818-122.537 -49.649  0.00  0.00     0.005 A 
ATOM      9  C   UNL d   1     -41.862-123.817 -49.223  0.00  0.00     0.019 A 
ATOM     10  C   UNL d   1     -42.900-122.891 -48.911  0.00  0.00     0.000 A 
ATOM     11  C   UNL d   1     -42.422-123.531 -48.698  0.00  0.00     0.002 A 
ENDROOT
BRANCH   1  12
ATOM     12  C   UNL d   1     -41.507-122.419 -52.190  0.00  0.00     0.305 C 
ATOM     13  O   UNL d   1     -41.125-121.690 -52.252  0.00  0.00    -0.259 OA
BRANCH  12  14
ATOM     14  O   UNL d   1     -41.793-122.801 -52.865  0.00  0.00    -0.271 OA
BRANCH  14  15
ATOM     15  C   UNL d   1     -41.562-122.544 -53.616  0.00  0.00     0.126 C 
ATOM     16  C   UNL d   1     -41.835-122.939 -54.286  0.00  0.00     0.029 C 
ENDBRANCH  14  15
ENDBRANCH  12  14
ENDBRANCH   1  12
TORSDOF 3
ENDMDL
MODEL 2
REMARK VINA RESULT:      -4.7      1.039      3.654
REMARK  3 active torsions:
REMARK  status: ('A' for Active; 'I' for Inactive)
REMARK    1  A    between atoms: C_6  and  C_1 
REMARK    2  A    between atoms: O_10  and  C_6 
REMARK    3  A    between atoms: C_13  and  O_10 
ROOT
ATOM      1  C   UNL d   1     -41.498-122.814 -52.165  0.00  0.00     0.121 A 
ATOM      2  C   UNL d   1     -41.748-122.316 -52.773  0.00  0.00     0.204 A 
ATOM      3  C   UNL d   1     -41.185-123.558 -52.341  0.00  0.00     0.107 A 
ATOM      4  C   UNL d   1     -41.684-122.562 -53.558  0.00  0.00     0.057 A 
ATOM      5  N   UNL d   1     -41.123-123.803 -53.134  0.00  0.00    -0.244 NA
ATOM      6  C   UNL d   1     -41.372-123.305 -53.742  0.00  0.00     0.085 A 
ATOM      7  O   UNL d   1     -42.060-121.572 -52.592  0.00  0.00    -0.286 OA
ATOM      8  C   UNL d   1     -41.935-122.060 -54.166  0.00  0.00     0.005 A 
ATOM      9  C   UNL d   1     -41.309-123.549 -54.518  0.00  0.00     0.019 A 
ATOM     10  C   UNL d   1     -41.869-122.311 -54.947  0.00  0.00     0.000 A 
ATOM     11  C   UNL d   1     -41.556-123.056 -55.123  0.00  0.00     0.002 A 
ENDROOT
BRANCH   1  12
ATOM     12  C   UNL d   1     -41.558-122.576 -51.377  0.00  0.00     0.305 C 
ATOM     13  O   UNL d   1     -41.124-121.923 -51.117  0.00  0.00    -0.259 OA
BRANCH  12  14
ATOM     14  O   UNL d   1     -42.048-122.988 -50.854  0.00  0.00    -0.271 OA
BRANCH  14  15
ATOM     15  C   UNL d   1     -42.029-122.816 -50.045  0.00  0.00     0.126 C 
ATOM     16  C   UNL d   1     -42.565-123.182 -49.536  0.00  0.00     0.029 C 
ENDBRANCH  14  15
ENDBRANCH  12  14
ENDBRANCH   1  12
TORSDOF 3
ENDMDL
MODEL 3
REMARK VINA RESULT:      -4.5      1.254      1.848
REMARK  3 active torsions:
REMARK  status: ('A' for Active; 'I' for Inactive)
REMARK    1  A    between atoms: C_6  and  C_1 
REMARK    2  A    between atoms: O_10  and  C_6 
REMARK    3  A    between atoms: C_13  and  O_10 
ROOT
ATOM      1  C   UNL d   1     -41.506-122.610 -53.184  0.00  0.00     0.121 A 
ATOM      2  C   UNL d   1     -41.589-122.215 -52.465  0.00  0.00     0.204 A 
ATOM      3  C   UNL d   1     -41.296-123.410 -53.195  0.00  0.00     0.107 A 
ATOM      4  C   UNL d   1     -41.460-122.618 -51.757  0.00  0.00     0.057 A 
ATOM      5  N   UNL d   1     -41.167-123.813 -52.479  0.00  0.00    -0.244 NA
ATOM      6  C   UNL d   1     -41.250-123.418 -51.760  0.00  0.00     0.085 A 
ATOM      7  O   UNL d   1     -41.799-121.415 -52.459  0.00  0.00    -0.286 OA
ATOM      8  C   UNL d   1     -41.544-122.219 -51.038  0.00  0.00     0.005 A 
ATOM      9  C   UNL d   1     -41.123-123.817 -51.060  0.00  0.00     0.019 A 
ATOM     10  C   UNL d   1     -41.415-122.626 -50.335  0.00  0.00     0.000 A 
ATOM     11  C   UNL d   1     -41.204-123.426 -50.346  0.00  0.00     0.002 A 
ENDROOT
BRANCH   1  12
ATOM     12  C   UNL d   1     -41.632-122.215 -53.897  0.00  0.00     0.305 C 
ATOM     13  O   UNL d   1     -41.133-121.591 -54.109  0.00  0.00    -0.259 OA
BRANCH  12  14
ATOM     14  O   UNL d   1     -42.252-122.441 -54.395  0.00  0.00    -0.271 OA
BRANCH  14  15
ATOM     15  C   UNL d   1     -42.259-122.200 -55.186  0.00  0.00     0.126 C 
ATOM     16  C   UNL d   1     -42.899-122.395 -55.668  0.00  0.00     0.029 C 
ENDBRANCH  14  15
ENDBRANCH  12  14
ENDBRANCH   1  12
TORSDOF 3
ENDMDL
MODEL 4
REMARK VINA RESULT:      -3.8      0.947      1.466
REMARK  3 active torsions:
REMARK  status: ('A' for Active; 'I' for Inactive)
REMARK    1  A    between atoms: C_6  and  C_1 
REMARK    2  A    between atoms: O_10  and  C_6 
REMARK    3  A    between atoms: C_13  and  O_10 
ROOT
ATOM      1  C   UNL d   1     -41.995-122.671 -50.153  0.00  0.00     0.121 A 
ATOM      2  C   UNL d   1     -42.645-122.910 -49.706  0.00  0.00     0.204 A 
ATOM      3  C   UNL d   1     -41.232-122.735 -49.841  0.00  0.00     0.107 A 
ATOM      4  C   UNL d   1     -42.533-123.213 -48.947  0.00  0.00     0.057 A 
ATOM      5  N   UNL d   1     -41.123-123.041 -49.076  0.00  0.00    -0.244 NA
ATOM      6  C   UNL d   1     -41.773-123.280 -48.628  0.00  0.00     0.085 A 
ATOM      7  O   UNL d   1     -43.407-122.844 -50.022  0.00  0.00    -0.286 OA
ATOM      8  C   UNL d   1     -43.187-123.452 -48.501  0.00  0.00     0.005 A 
ATOM      9  C   UNL d   1     -41.662-123.580 -47.878  0.00  0.00     0.019 A 
ATOM     10  C   UNL d   1     -43.070-123.753 -47.744  0.00  0.00     0.000 A 
ATOM     11  C   UNL d   1     -42.306-123.817 -47.433  0.00  0.00     0.002 A 
ENDROOT
BRANCH   1  12
ATOM     12  C   UNL d   1     -42.098-122.366 -50.913  0.00  0.00     0.305 C 
ATOM     13  O   UNL d   1     -42.505-121.655 -51.013  0.00  0.00    -0.259 OA
BRANCH  12  14
ATOM     14  O   UNL d   1     -41.795-122.770 -51.568  0.00  0.00    -0.271 OA
BRANCH  14  15
ATOM     15  C   UNL d   1     -41.462-122.350 -52.197  0.00  0.00     0.126 C 
ATOM     16  C   UNL d   1     -41.337-122.726 -52.921  0.00  0.00     0.029 C 
ENDBRANCH  14  15
ENDBRANCH  12  14
ENDBRANCH   1  12
TORSDOF 3
ENDMDL
MODEL 5
REMARK VINA RESULT:      -3.7      1.083      3.390
REMARK  3 active torsions:
REMARK  status: ('A' for Active; 'I' for Inactive)
REMARK    1  A    between atoms: C_6  and  C_1 
REMARK    2  A    between atoms: O_10  and  C_6 
REMARK    3  A    between atoms: C_13  and  O_10 
ROOT
ATOM      1  C   UNL d   1     -42.073-122.989 -50.384  0.00  0.00     0.121 A 
ATOM      2  C   UNL d   1     -42.055-122.350 -50.904  0.00  0.00     0.204 A 
ATOM      3  C   UNL d   1     -41.780-123.725 -50.621  0.00  0.00     0.107 A 
ATOM      4  C   UNL d   1     -41.744-122.445 -51.662  0.00  0.00     0.057 A 
ATOM      5  N   UNL d   1     -41.467-123.817 -51.386  0.00  0.00    -0.244 NA
ATOM      6  C   UNL d   1     -41.449-123.178 -51.907  0.00  0.00     0.085 A 
ATOM      7  O   UNL d   1     -42.350-121.616 -50.663  0.00  0.00    -0.286 OA
ATOM      8  C   UNL d   1     -41.728-121.802 -52.182  0.00  0.00     0.005 A 
ATOM      9  C   UNL d   1     -41.141-123.273 -52.656  0.00  0.00     0.019 A 
ATOM     10  C   UNL d   1     -41.416-121.903 -52.937  0.00  0.00     0.000 A 
ATOM     11  C   UNL d   1     -41.123-122.639 -53.174  0.00  0.00     0.002 A 
ENDROOT
BRANCH   1  12
ATOM     12  C   UNL d   1     -42.383-122.903 -49.624  0.00  0.00     0.305 C 
ATOM     13  O   UNL d   1     -43.192-122.767 -49.528  0.00  0.00    -0.259 OA
BRANCH  12  14
ATOM     14  O   UNL d   1     -41.887-122.951 -48.964  0.00  0.00    -0.271 OA
BRANCH  14  15
ATOM     15  C   UNL d   1     -42.210-122.993 -48.204  0.00  0.00     0.126 C 
ATOM     16  C   UNL d   1     -41.711-123.014 -47.548  0.00  0.00     0.029 C 
ENDBRANCH  14  15
ENDBRANCH  12  14
ENDBRANCH   1  12
TORSDOF 3
ENDMDL
