MODEL 1
REMARK VINA RESULT:      40.1      0.000      0.000
REMARK  5 active torsions:
REMARK  status: ('A' for Active; 'I' for Inactive)
REMARK    1  A    between atoms: N_2  and  S_1 
REMARK    2  A    between atoms: C_4  and  S_1 
REMARK    3  A    between atoms: C_3  and  N_2 
REMARK    4  A    between atoms: O_19  and  C_13 
REMARK    5  A    between atoms: C_20  and  O_19 
ROOT
ATOM      1  S   UNL d   1      13.831  13.422  -3.064  0.00  0.00     0.327 S 
ATOM      2  O   UNL d   1      14.021  14.127  -2.678  0.00  0.00    -0.186 OA
ATOM      3  O   UNL d   1      13.640  12.718  -3.453  0.00  0.00    -0.186 OA
ENDROOT
BRANCH   1   4
ATOM      4  N   UNL d   1      13.943  13.001  -2.361  0.00  0.00    -0.314 NA
BRANCH   4   5
ATOM      5  C   UNL d   1      14.059  12.592  -1.653  0.00  0.00     0.185 A 
ATOM      6  C   UNL d   1      13.412  12.390  -1.185  0.00  0.00     0.048 A 
ATOM      7  C   UNL d   1      13.527  11.984  -0.484  0.00  0.00     0.060 A 
ATOM      8 CL   UNL d   1      12.880  11.781  -0.015  0.00  0.00    -0.082 Cl
ATOM      9  C   UNL d   1      14.289  11.779  -0.246  0.00  0.00     0.015 A 
ATOM     10  C   UNL d   1      14.936  11.983  -0.715  0.00  0.00     0.046 A 
ATOM     11  C   UNL d   1      14.820  12.393  -1.424  0.00  0.00     0.226 A 
ATOM     12  O   UNL d   1      15.467  12.597  -1.894  0.00  0.00    -0.284 OA
ENDBRANCH   4   5
ENDBRANCH   1   4
BRANCH   1  13
ATOM     13  C   UNL d   1      13.717  13.839  -3.769  0.00  0.00     0.117 A 
ATOM     14  C   UNL d   1      13.952  14.625  -3.821  0.00  0.00     0.016 A 
ATOM     15  C   UNL d   1      13.840  15.045  -4.523  0.00  0.00     0.025 A 
ATOM     16  C   UNL d   1      13.491  14.672  -5.179  0.00  0.00     0.100 A 
ATOM     17  C   UNL d   1      13.258  13.879  -5.117  0.00  0.00     0.025 A 
ATOM     18  C   UNL d   1      13.371  13.464  -4.415  0.00  0.00     0.016 A 
BRANCH  16  19
ATOM     19  O   UNL d   1      13.377  15.089  -5.884  0.00  0.00    -0.305 OA
BRANCH  19  20
ATOM     20  C   UNL d   1      13.212  15.895  -5.862  0.00  0.00     0.123 C 
ATOM     21  C   UNL d   1      13.700  16.433  -6.258  0.00  0.00     0.029 C 
ENDBRANCH  19  20
ENDBRANCH  16  19
ENDBRANCH   1  13
TORSDOF 5
ENDMDL
