MODEL 1
REMARK VINA RESULT:       8.3      0.000      0.000
REMARK  2 active torsions:
REMARK  status: ('A' for Active; 'I' for Inactive)
REMARK    1  A    between atoms: C_5  and  N_1 
REMARK    2  A    between atoms: O_14  and  C_11 
ROOT
ATOM      1  C   UNL d   1      45.296 -14.148  44.328  0.00  0.00     0.069 A 
ATOM      2  C   UNL d   1      45.911 -14.668  44.144  0.00  0.00     0.020 A 
ATOM      3  C   UNL d   1      44.628 -14.451  44.741  0.00  0.00     0.020 A 
ATOM      4  C   UNL d   1      45.237 -15.753  44.752  0.00  0.00     0.094 A 
ATOM      5  C   UNL d   1      45.875 -15.464  44.357  0.00  0.00     0.026 A 
ATOM      6  C   UNL d   1      44.597 -15.250  44.954  0.00  0.00     0.026 A 
ENDROOT
BRANCH   1   7
ATOM      7  N   UNL d   1      45.354 -13.353  44.103  0.00  0.00    -0.249 N 
ATOM      8  C   UNL d   1      45.908 -12.814  44.390  0.00  0.00     0.208 A 
ATOM      9  N   UNL d   1      45.744 -12.080  43.995  0.00  0.00    -0.212 NA
ATOM     10  S   UNL d   1      46.508 -12.969  44.955  0.00  0.00    -0.038 SA
ATOM     11  C   UNL d   1      45.103 -12.218  43.496  0.00  0.00     0.162 A 
ATOM     12  C   UNL d   1      44.869 -13.004  43.568  0.00  0.00     0.286 A 
ATOM     13  O   UNL d   1      44.234 -13.385  43.158  0.00  0.00    -0.265 OA
ENDBRANCH   1   7
BRANCH   4  14
ATOM     14  O   UNL d   1      45.227 -16.551  44.954  0.00  0.00    -0.328 OA
ATOM     15  C   UNL d   1      45.894 -17.017  44.823  0.00  0.00     0.181 C 
ENDBRANCH   4  14
TORSDOF 2
ENDMDL
MODEL 2
REMARK VINA RESULT:      10.6      4.754      5.822
REMARK  2 active torsions:
REMARK  status: ('A' for Active; 'I' for Inactive)
REMARK    1  A    between atoms: C_5  and  N_1 
REMARK    2  A    between atoms: O_14  and  C_11 
ROOT
ATOM      1  C   UNL d   1      46.551 -19.110  42.805  0.00  0.00     0.069 A 
ATOM      2  C   UNL d   1      46.624 -19.895  42.559  0.00  0.00     0.020 A 
ATOM      3  C   UNL d   1      46.500 -18.511  42.217  0.00  0.00     0.020 A 
ATOM      4  C   UNL d   1      46.596 -19.517  41.195  0.00  0.00     0.094 A 
ATOM      5  C   UNL d   1      46.646 -20.090  41.757  0.00  0.00     0.026 A 
ATOM      6  C   UNL d   1      46.522 -18.711  41.414  0.00  0.00     0.026 A 
ENDROOT
BRANCH   1   7
ATOM      7  N   UNL d   1      46.531 -18.938  43.615  0.00  0.00    -0.249 N 
ATOM      8  C   UNL d   1      46.521 -19.496  44.222  0.00  0.00     0.208 A 
ATOM      9  N   UNL d   1      46.501 -19.051  44.945  0.00  0.00    -0.212 NA
ATOM     10  S   UNL d   1      46.528 -20.330  44.133  0.00  0.00    -0.038 SA
ATOM     11  C   UNL d   1      46.501 -18.255  44.734  0.00  0.00     0.162 A 
ATOM     12  C   UNL d   1      46.520 -18.194  43.913  0.00  0.00     0.286 A 
ATOM     13  O   UNL d   1      46.526 -17.481  43.457  0.00  0.00    -0.265 OA
ENDBRANCH   1   7
BRANCH   4  14
ATOM     14  O   UNL d   1      46.621 -19.740  40.403  0.00  0.00    -0.328 OA
ATOM     15  C   UNL d   1      46.223 -19.293  39.837  0.00  0.00     0.181 C 
ENDBRANCH   4  14
TORSDOF 2
ENDMDL
