MODEL 1
REMARK VINA RESULT:      35.7      0.000      0.000
REMARK  3 active torsions:
REMARK  status: ('A' for Active; 'I' for Inactive)
REMARK    1  A    between atoms: C_2  and  O_1 
REMARK    2  A    between atoms: C_5  and  O_1 
REMARK    3  A    between atoms: C_10  and  C_5 
ROOT
ATOM      1  O   UNL d   1     -47.399  31.578  35.230  0.00  0.00    -0.305 OA
ENDROOT
BRANCH   1   2
ATOM      2  C   UNL d   1     -47.470  30.774  35.438  0.00  0.00     0.100 A 
ATOM      3  C   UNL d   1     -47.771  30.214  34.894  0.00  0.00     0.026 A 
ATOM      4  C   UNL d   1     -47.837  29.421  35.111  0.00  0.00     0.023 A 
ATOM      5  C   UNL d   1     -47.605  29.181  35.865  0.00  0.00     0.103 A 
ATOM      6  C   UNL d   1     -47.296  29.755  36.423  0.00  0.00     0.023 A 
ATOM      7  N   UNL d   1     -47.669  28.374  36.095  0.00  0.00    -0.148 N 
ATOM      8  C   UNL d   1     -47.238  30.534  36.192  0.00  0.00     0.026 A 
ENDBRANCH   1   2
BRANCH   1   9
ATOM      9  C   UNL d   1     -47.151  31.781  34.472  0.00  0.00     0.122 C 
BRANCH   9  10
ATOM     10  C   UNL d   1     -47.538  32.421  34.088  0.00  0.00     0.025 A 
ATOM     11  C   UNL d   1     -47.080  32.997  33.687  0.00  0.00     0.002 A 
ATOM     12  C   UNL d   1     -47.451  33.628  33.308  0.00  0.00     0.000 A 
ATOM     13  C   UNL d   1     -48.296  33.686  33.328  0.00  0.00     0.000 A 
ATOM     14  C   UNL d   1     -48.731  33.116  33.723  0.00  0.00     0.000 A 
ATOM     15  C   UNL d   1     -48.360  32.485  34.103  0.00  0.00     0.002 A 
ENDBRANCH   9  10
ENDBRANCH   1   9
TORSDOF 3
ENDMDL
MODEL 2
REMARK VINA RESULT:      37.9      1.670      3.905
REMARK  3 active torsions:
REMARK  status: ('A' for Active; 'I' for Inactive)
REMARK    1  A    between atoms: C_2  and  O_1 
REMARK    2  A    between atoms: C_5  and  O_1 
REMARK    3  A    between atoms: C_10  and  C_5 
ROOT
ATOM      1  O   UNL d   1     -47.238  31.284  35.457  0.00  0.00    -0.305 OA
ENDROOT
BRANCH   1   2
ATOM      2  C   UNL d   1     -47.441  31.888  34.920  0.00  0.00     0.100 A 
ATOM      3  C   UNL d   1     -46.882  32.469  34.696  0.00  0.00     0.026 A 
ATOM      4  C   UNL d   1     -47.094  33.062  34.163  0.00  0.00     0.023 A 
ATOM      5  C   UNL d   1     -47.858  33.083  33.853  0.00  0.00     0.103 A 
ATOM      6  C   UNL d   1     -48.432  32.487  34.084  0.00  0.00     0.023 A 
ATOM      7  N   UNL d   1     -48.083  33.684  33.310  0.00  0.00    -0.148 N 
ATOM      8  C   UNL d   1     -48.205  31.908  34.610  0.00  0.00     0.026 A 
ENDBRANCH   1   2
BRANCH   1   9
ATOM      9  C   UNL d   1     -47.046  30.536  35.173  0.00  0.00     0.122 C 
BRANCH   9  10
ATOM     10  C   UNL d   1     -47.377  29.868  35.562  0.00  0.00     0.025 A 
ATOM     11  C   UNL d   1     -47.318  29.806  36.395  0.00  0.00     0.002 A 
ATOM     12  C   UNL d   1     -47.640  29.154  36.784  0.00  0.00     0.000 A 
ATOM     13  C   UNL d   1     -48.029  28.552  36.333  0.00  0.00     0.000 A 
ATOM     14  C   UNL d   1     -48.080  28.626  35.520  0.00  0.00     0.000 A 
ATOM     15  C   UNL d   1     -47.758  29.278  35.130  0.00  0.00     0.002 A 
ENDBRANCH   9  10
ENDBRANCH   1   9
TORSDOF 3
ENDMDL
