MODEL 1
REMARK VINA RESULT:      -0.7      0.000      0.000
REMARK  5 active torsions:
REMARK  status: ('A' for Active; 'I' for Inactive)
REMARK    1  A    between atoms: S_5  and  C_2 
REMARK    2  A    between atoms: C_12  and  S_5 
REMARK    3  A    between atoms: N_11  and  C_8 
REMARK    4  A    between atoms: C_19  and  N_11 
REMARK    5  A    between atoms: C_32  and  C_26 
ROOT
ATOM      1  C   UNL d   1      57.610  -0.624  31.100  0.00  0.00     0.197 A 
ATOM      2  C   UNL d   1      56.922  -0.846  31.494  0.00  0.00     0.227 A 
ATOM      3  N   UNL d   1      57.716  -1.137  30.459  0.00  0.00    -0.192 N 
ATOM      4  N   UNL d   1      58.158  -0.018  31.240  0.00  0.00    -0.206 NA
ATOM      5  N   UNL d   1      56.596  -1.503  31.097  0.00  0.00    -0.115 NA
ATOM      6  N   UNL d   1      57.093  -1.679  30.456  0.00  0.00    -0.058 NA
ATOM      7  C   UNL d   1      58.815   0.078  30.740  0.00  0.00     0.166 A 
ATOM      8  C   UNL d   1      58.913  -0.440  30.102  0.00  0.00     0.054 A 
ATOM      9  C   UNL d   1      58.373  -1.045  29.956  0.00  0.00     0.089 A 
ATOM     10  C   UNL d   1      58.473  -1.560  29.319  0.00  0.00     0.020 A 
ATOM     11  C   UNL d   1      59.567  -0.351  29.598  0.00  0.00     0.016 A 
ATOM     12  C   UNL d   1      59.669  -0.865  28.960  0.00  0.00     0.058 A 
ATOM     13  C   UNL d   1      59.123  -1.468  28.821  0.00  0.00     0.013 A 
ATOM     14 CL   UNL d   1      60.321  -0.771  28.463  0.00  0.00    -0.082 Cl
ENDROOT
BRANCH   2  15
ATOM     15  S   UNL d   1      56.602  -0.489  32.164  0.00  0.00     0.231 S 
ATOM     16  O   UNL d   1      56.654   0.260  31.829  0.00  0.00    -0.215 OA
ATOM     17  O   UNL d   1      56.552  -1.240  32.498  0.00  0.00    -0.215 OA
BRANCH  15  18
ATOM     18  C   UNL d   1      56.278  -0.192  32.861  0.00  0.00     0.090 A 
ATOM     19  C   UNL d   1      56.667   0.383  33.287  0.00  0.00     0.011 A 
ATOM     20  C   UNL d   1      56.346   0.679  33.981  0.00  0.00     0.001 A 
ATOM     21  C   UNL d   1      55.615   0.389  34.250  0.00  0.00     0.000 A 
ATOM     22  C   UNL d   1      55.222  -0.196  33.815  0.00  0.00     0.001 A 
ATOM     23  C   UNL d   1      55.548  -0.486  33.125  0.00  0.00     0.011 A 
BRANCH  21  24
ATOM     24  C   UNL d   1      55.291   0.681  34.940  0.00  0.00     0.000 C 
ATOM     25  C   UNL d   1      55.727   0.672  35.645  0.00  0.00     0.000 C 
ENDBRANCH  21  24
ENDBRANCH  15  18
ENDBRANCH   2  15
BRANCH   7  26
ATOM     26  N   UNL d   1      59.361   0.681  30.879  0.00  0.00    -0.227 NA
BRANCH  26  27
ATOM     27  C   UNL d   1      59.806   0.681  31.576  0.00  0.00     0.083 A 
ATOM     28  C   UNL d   1      60.628   0.681  31.539  0.00  0.00     0.021 A 
ATOM     29  C   UNL d   1      61.074   0.681  32.227  0.00  0.00     0.031 A 
ATOM     30  C   UNL d   1      60.689   0.681  32.966  0.00  0.00     0.140 A 
ATOM     31  C   UNL d   1      59.855   0.680  32.997  0.00  0.00     0.031 A 
ATOM     32  F   UNL d   1      61.133   0.680  33.653  0.00  0.00    -0.204 F 
ATOM     33  C   UNL d   1      59.425   0.680  32.298  0.00  0.00     0.021 A 
ENDBRANCH  26  27
ENDBRANCH   7  26
TORSDOF 5
ENDMDL
MODEL 2
REMARK VINA RESULT:       1.2      1.751      2.985
REMARK  5 active torsions:
REMARK  status: ('A' for Active; 'I' for Inactive)
REMARK    1  A    between atoms: S_5  and  C_2 
REMARK    2  A    between atoms: C_12  and  S_5 
REMARK    3  A    between atoms: N_11  and  C_8 
REMARK    4  A    between atoms: C_19  and  N_11 
REMARK    5  A    between atoms: C_32  and  C_26 
ROOT
ATOM      1  C   UNL d   1      58.586   0.125  31.271  0.00  0.00     0.197 A 
ATOM      2  C   UNL d   1      58.293   0.275  32.025  0.00  0.00     0.227 A 
ATOM      3  N   UNL d   1      59.374   0.376  31.246  0.00  0.00    -0.192 N 
ATOM      4  N   UNL d   1      58.237  -0.209  30.597  0.00  0.00    -0.206 NA
ATOM      5  N   UNL d   1      58.903   0.622  32.476  0.00  0.00    -0.115 NA
ATOM      6  N   UNL d   1      59.571   0.682  31.987  0.00  0.00    -0.058 NA
ATOM      7  C   UNL d   1      58.674  -0.295  29.895  0.00  0.00     0.166 A 
ATOM      8  C   UNL d   1      59.462  -0.042  29.880  0.00  0.00     0.054 A 
ATOM      9  C   UNL d   1      59.817   0.292  30.546  0.00  0.00     0.089 A 
ATOM     10  C   UNL d   1      60.602   0.543  30.527  0.00  0.00     0.020 A 
ATOM     11  C   UNL d   1      59.906  -0.123  29.183  0.00  0.00     0.016 A 
ATOM     12  C   UNL d   1      60.692   0.128  29.163  0.00  0.00     0.058 A 
ATOM     13  C   UNL d   1      61.040   0.461  29.834  0.00  0.00     0.013 A 
ATOM     14 CL   UNL d   1      61.128   0.044  28.468  0.00  0.00    -0.082 Cl
ENDROOT
BRANCH   2  15
ATOM     15  S   UNL d   1      57.532   0.115  32.298  0.00  0.00     0.231 S 
ATOM     16  O   UNL d   1      57.192   0.363  31.591  0.00  0.00    -0.215 OA
ATOM     17  O   UNL d   1      57.875  -0.132  33.005  0.00  0.00    -0.215 OA
BRANCH  15  18
ATOM     18  C   UNL d   1      56.799  -0.064  32.628  0.00  0.00     0.090 A 
ATOM     19  C   UNL d   1      56.354   0.514  32.991  0.00  0.00     0.011 A 
ATOM     20  C   UNL d   1      55.625   0.337  33.319  0.00  0.00     0.001 A 
ATOM     21  C   UNL d   1      55.337  -0.442  33.280  0.00  0.00     0.000 A 
ATOM     22  C   UNL d   1      55.790  -1.028  32.911  0.00  0.00     0.001 A 
ATOM     23  C   UNL d   1      56.516  -0.844  32.586  0.00  0.00     0.011 A 
BRANCH  21  24
ATOM     24  C   UNL d   1      54.610  -0.623  33.606  0.00  0.00     0.000 C 
ATOM     25  C   UNL d   1      54.097  -0.020  33.849  0.00  0.00     0.000 C 
ENDBRANCH  21  24
ENDBRANCH  15  18
ENDBRANCH   2  15
BRANCH   7  26
ATOM     26  N   UNL d   1      58.327  -0.627  29.224  0.00  0.00    -0.227 NA
BRANCH  26  27
ATOM     27  C   UNL d   1      58.312  -1.449  29.133  0.00  0.00     0.083 A 
ATOM     28  C   UNL d   1      57.835  -1.909  29.619  0.00  0.00     0.021 A 
ATOM     29  C   UNL d   1      57.817  -2.724  29.532  0.00  0.00     0.031 A 
ATOM     30  C   UNL d   1      58.286  -3.085  28.946  0.00  0.00     0.140 A 
ATOM     31  C   UNL d   1      58.768  -2.613  28.455  0.00  0.00     0.031 A 
ATOM     32  F   UNL d   1      58.268  -3.898  28.859  0.00  0.00    -0.204 F 
ATOM     33  C   UNL d   1      58.774  -1.799  28.557  0.00  0.00     0.021 A 
ENDBRANCH  26  27
ENDBRANCH   7  26
TORSDOF 5
ENDMDL
