MODEL 1
REMARK VINA RESULT:      -5.5      0.000      0.000
REMARK  3 active torsions:
REMARK  status: ('A' for Active; 'I' for Inactive)
REMARK    1  A    between atoms: N_4  and  C_1 
REMARK       I    between atoms: C_8  and  N_4 
REMARK    2  A    between atoms: C_16  and  C_8 
REMARK       I    between atoms: C_9  and  N_10 
REMARK    3  A    between atoms: N_10  and  C_11 
ROOT
ATOM      1  C   UNL d   1      57.356  -0.148  30.887  0.00  0.00     0.197 A 
ATOM      2  N   UNL d   1      57.019  -0.834  31.118  0.00  0.00    -0.221 NA
ATOM      3  S   UNL d   1      57.275   0.410  31.445  0.00  0.00    -0.047 SA
ATOM      4  C   UNL d   1      56.878   0.093  32.059  0.00  0.00     0.051 A 
ATOM      5  C   UNL d   1      56.717  -0.689  31.854  0.00  0.00     0.090 A 
ATOM      6  C   UNL d   1      56.627   0.379  32.784  0.00  0.00     0.027 A 
ATOM      7  C   UNL d   1      56.220  -0.099  33.308  0.00  0.00     0.085 A 
ATOM      8  C   UNL d   1      56.304  -1.191  32.372  0.00  0.00     0.021 A 
ATOM      9  C   UNL d   1      56.058  -0.882  33.103  0.00  0.00     0.021 A 
ENDROOT
BRANCH   1  10
ATOM     10  N   UNL d   1      57.736  -0.058  30.153  0.00  0.00    -0.183 NA
ATOM     11  C   UNL d   1      58.542   0.128  30.085  0.00  0.00     0.281 C 
ATOM     12  O   UNL d   1      58.981   0.228  30.784  0.00  0.00    -0.265 OA
BRANCH  11  13
ATOM     13  C   UNL d   1      58.888   0.210  29.366  0.00  0.00     0.063 C 
ATOM     14  C   UNL d   1      59.715   0.208  29.288  0.00  0.00     0.005 C 
ENDBRANCH  11  13
ENDBRANCH   1  10
BRANCH   7  15
ATOM     15  N   UNL d   1      55.955   0.183  34.059  0.00  0.00    -0.208 NA
ATOM     16  C   UNL d   1      55.170   0.400  34.140  0.00  0.00     0.279 C 
ATOM     17  O   UNL d   1      54.642   0.346  33.500  0.00  0.00    -0.265 OA
ATOM     18  C   UNL d   1      54.877   0.682  34.865  0.00  0.00     0.068 C 
ENDBRANCH   7  15
TORSDOF 3
ENDMDL
MODEL 2
REMARK VINA RESULT:      -4.2      0.887      4.203
REMARK  3 active torsions:
REMARK  status: ('A' for Active; 'I' for Inactive)
REMARK    1  A    between atoms: N_4  and  C_1 
REMARK       I    between atoms: C_8  and  N_4 
REMARK    2  A    between atoms: C_16  and  C_8 
REMARK       I    between atoms: C_9  and  N_10 
REMARK    3  A    between atoms: N_10  and  C_11 
ROOT
ATOM      1  C   UNL d   1      55.952   0.000  32.751  0.00  0.00     0.197 A 
ATOM      2  N   UNL d   1      56.194  -0.714  32.487  0.00  0.00    -0.221 NA
ATOM      3  S   UNL d   1      56.286   0.585  32.334  0.00  0.00    -0.047 SA
ATOM      4  C   UNL d   1      56.760   0.259  31.781  0.00  0.00     0.051 A 
ATOM      5  C   UNL d   1      56.702  -0.558  31.878  0.00  0.00     0.090 A 
ATOM      6  C   UNL d   1      57.245   0.562  31.195  0.00  0.00     0.027 A 
ATOM      7  C   UNL d   1      57.672   0.066  30.703  0.00  0.00     0.085 A 
ATOM      8  C   UNL d   1      57.128  -1.078  31.389  0.00  0.00     0.021 A 
ATOM      9  C   UNL d   1      57.614  -0.751  30.800  0.00  0.00     0.021 A 
ENDROOT
BRANCH   1  10
ATOM     10  N   UNL d   1      55.418   0.089  33.383  0.00  0.00    -0.183 NA
ATOM     11  C   UNL d   1      55.638   0.423  34.110  0.00  0.00     0.281 C 
ATOM     12  O   UNL d   1      56.424   0.677  34.204  0.00  0.00    -0.265 OA
BRANCH  11  13
ATOM     13  C   UNL d   1      55.107   0.499  34.706  0.00  0.00     0.063 C 
ATOM     14  C   UNL d   1      55.355   0.674  35.480  0.00  0.00     0.005 C 
ENDBRANCH  11  13
ENDBRANCH   1  10
BRANCH   7  15
ATOM     15  N   UNL d   1      58.175   0.365  30.095  0.00  0.00    -0.208 NA
ATOM     16  C   UNL d   1      58.982   0.393  30.233  0.00  0.00     0.279 C 
ATOM     17  O   UNL d   1      59.301   0.134  30.956  0.00  0.00    -0.265 OA
ATOM     18  C   UNL d   1      59.505   0.682  29.656  0.00  0.00     0.068 C 
ENDBRANCH   7  15
TORSDOF 3
ENDMDL
MODEL 3
REMARK VINA RESULT:      -4.1      1.396      4.630
REMARK  3 active torsions:
REMARK  status: ('A' for Active; 'I' for Inactive)
REMARK    1  A    between atoms: N_4  and  C_1 
REMARK       I    between atoms: C_8  and  N_4 
REMARK    2  A    between atoms: C_16  and  C_8 
REMARK       I    between atoms: C_9  and  N_10 
REMARK    3  A    between atoms: N_10  and  C_11 
ROOT
ATOM      1  C   UNL d   1      57.310   0.385  31.464  0.00  0.00     0.197 A 
ATOM      2  N   UNL d   1      57.067   0.368  30.704  0.00  0.00    -0.221 NA
ATOM      3  S   UNL d   1      58.098   0.465  31.508  0.00  0.00    -0.047 SA
ATOM      4  C   UNL d   1      58.387   0.501  30.765  0.00  0.00     0.051 A 
ATOM      5  C   UNL d   1      57.738   0.441  30.260  0.00  0.00     0.090 A 
ATOM      6  C   UNL d   1      59.138   0.581  30.449  0.00  0.00     0.027 A 
ATOM      7  C   UNL d   1      59.255   0.601  29.640  0.00  0.00     0.085 A 
ATOM      8  C   UNL d   1      57.837   0.459  29.435  0.00  0.00     0.021 A 
ATOM      9  C   UNL d   1      58.606   0.540  29.134  0.00  0.00     0.021 A 
ENDROOT
BRANCH   1  10
ATOM     10  N   UNL d   1      56.785   0.326  32.106  0.00  0.00    -0.183 NA
ATOM     11  C   UNL d   1      56.457  -0.397  32.350  0.00  0.00     0.281 C 
ATOM     12  O   UNL d   1      56.666  -1.083  31.931  0.00  0.00    -0.265 OA
BRANCH  11  13
ATOM     13  C   UNL d   1      55.952  -0.431  32.972  0.00  0.00     0.063 C 
ATOM     14  C   UNL d   1      55.735  -1.161  33.306  0.00  0.00     0.005 C 
ENDBRANCH  11  13
ENDBRANCH   1  10
BRANCH   7  15
ATOM     15  N   UNL d   1      60.024   0.682  29.301  0.00  0.00    -0.208 NA
ATOM     16  C   UNL d   1      60.378   0.021  28.970  0.00  0.00     0.279 C 
ATOM     17  O   UNL d   1      59.990  -0.715  28.967  0.00  0.00    -0.265 OA
ATOM     18  C   UNL d   1      61.133   0.066  28.628  0.00  0.00     0.068 C 
ENDBRANCH   7  15
TORSDOF 3
ENDMDL
MODEL 4
REMARK VINA RESULT:      -3.8      1.186      1.381
REMARK  3 active torsions:
REMARK  status: ('A' for Active; 'I' for Inactive)
REMARK    1  A    between atoms: N_4  and  C_1 
REMARK       I    between atoms: C_8  and  N_4 
REMARK    2  A    between atoms: C_16  and  C_8 
REMARK       I    between atoms: C_9  and  N_10 
REMARK    3  A    between atoms: N_10  and  C_11 
ROOT
ATOM      1  C   UNL d   1      58.201   0.673  30.748  0.00  0.00     0.197 A 
ATOM      2  N   UNL d   1      58.513   0.670  31.483  0.00  0.00    -0.221 NA
ATOM      3  S   UNL d   1      57.409   0.677  30.777  0.00  0.00    -0.047 SA
ATOM      4  C   UNL d   1      57.186   0.676  31.543  0.00  0.00     0.051 A 
ATOM      5  C   UNL d   1      57.881   0.672  31.987  0.00  0.00     0.090 A 
ATOM      6  C   UNL d   1      56.463   0.679  31.926  0.00  0.00     0.027 A 
ATOM      7  C   UNL d   1      56.418   0.678  32.743  0.00  0.00     0.085 A 
ATOM      8  C   UNL d   1      57.857   0.671  32.818  0.00  0.00     0.021 A 
ATOM      9  C   UNL d   1      57.113   0.674  33.188  0.00  0.00     0.021 A 
ENDROOT
BRANCH   1  10
ATOM     10  N   UNL d   1      58.669   0.672  30.061  0.00  0.00    -0.183 NA
ATOM     11  C   UNL d   1      58.672   0.040  29.522  0.00  0.00     0.281 C 
ATOM     12  O   UNL d   1      58.184  -0.613  29.683  0.00  0.00    -0.265 OA
BRANCH  11  13
ATOM     13  C   UNL d   1      59.131   0.060  28.865  0.00  0.00     0.063 C 
ATOM     14  C   UNL d   1      59.387  -0.642  28.502  0.00  0.00     0.005 C 
ENDBRANCH  11  13
ENDBRANCH   1  10
BRANCH   7  15
ATOM     15  N   UNL d   1      55.679   0.681  33.151  0.00  0.00    -0.208 NA
ATOM     16  C   UNL d   1      55.343  -0.037  33.356  0.00  0.00     0.279 C 
ATOM     17  O   UNL d   1      55.719  -0.755  33.167  0.00  0.00    -0.265 OA
ATOM     18  C   UNL d   1      54.616  -0.071  33.757  0.00  0.00     0.068 C 
ENDBRANCH   7  15
TORSDOF 3
ENDMDL
MODEL 5
REMARK VINA RESULT:      -2.7      2.431      3.959
REMARK  3 active torsions:
REMARK  status: ('A' for Active; 'I' for Inactive)
REMARK    1  A    between atoms: N_4  and  C_1 
REMARK       I    between atoms: C_8  and  N_4 
REMARK    2  A    between atoms: C_16  and  C_8 
REMARK       I    between atoms: C_9  and  N_10 
REMARK    3  A    between atoms: N_10  and  C_11 
ROOT
ATOM      1  C   UNL d   1      59.967  -1.560  28.818  0.00  0.00     0.197 A 
ATOM      2  N   UNL d   1      60.234  -0.818  28.941  0.00  0.00    -0.221 NA
ATOM      3  S   UNL d   1      59.225  -1.643  29.085  0.00  0.00    -0.047 SA
ATOM      4  C   UNL d   1      58.991  -0.945  29.391  0.00  0.00     0.051 A 
ATOM      5  C   UNL d   1      59.625  -0.426  29.301  0.00  0.00     0.090 A 
ATOM      6  C   UNL d   1      58.301  -0.680  29.744  0.00  0.00     0.027 A 
ATOM      7  C   UNL d   1      58.231   0.091  30.008  0.00  0.00     0.085 A 
ATOM      8  C   UNL d   1      59.574   0.361  29.563  0.00  0.00     0.021 A 
ATOM      9  C   UNL d   1      58.866   0.610  29.918  0.00  0.00     0.021 A 
ENDROOT
BRANCH   1  10
ATOM     10  N   UNL d   1      60.428  -2.149  28.455  0.00  0.00    -0.183 NA
ATOM     11  C   UNL d   1      60.689  -2.826  28.860  0.00  0.00     0.281 C 
ATOM     12  O   UNL d   1      60.476  -2.911  29.659  0.00  0.00    -0.265 OA
BRANCH  11  13
ATOM     13  C   UNL d   1      61.133  -3.382  28.490  0.00  0.00     0.063 C 
ATOM     14  C   UNL d   1      61.058  -4.187  28.684  0.00  0.00     0.005 C 
ENDBRANCH  11  13
ENDBRANCH   1  10
BRANCH   7  15
ATOM     15  N   UNL d   1      57.526   0.377  30.374  0.00  0.00    -0.208 NA
ATOM     16  C   UNL d   1      57.493   0.406  31.192  0.00  0.00     0.279 C 
ATOM     17  O   UNL d   1      58.139   0.160  31.655  0.00  0.00    -0.265 OA
ATOM     18  C   UNL d   1      56.815   0.681  31.584  0.00  0.00     0.068 C 
ENDBRANCH   7  15
TORSDOF 3
ENDMDL
