MODEL 1
REMARK VINA RESULT:      26.4      0.000      0.000
REMARK  5 active torsions:
REMARK  status: ('A' for Active; 'I' for Inactive)
REMARK    1  A    between atoms: C_2  and  C_1 
REMARK    2  A    between atoms: O_4  and  C_2 
REMARK    3  A    between atoms: C_9  and  O_4 
REMARK    4  A    between atoms: C_5  and  C_9 
REMARK    5  A    between atoms: C_12  and  C_5 
ROOT
ATOM      1  C   UNL d   1     -51.855  25.182  33.313  0.00  0.00     0.168 C 
ENDROOT
BRANCH   1   2
ATOM      2  C   UNL d   1     -51.750  25.999  33.417  0.00  0.00     0.220 C 
ATOM      3  O   UNL d   1     -52.401  26.501  33.411  0.00  0.00    -0.284 OA
BRANCH   2   4
ATOM      4  C   UNL d   1     -50.988  26.299  33.527  0.00  0.00     0.041 A 
ATOM      5  C   UNL d   1     -50.895  27.053  33.856  0.00  0.00     0.003 A 
ATOM      6  C   UNL d   1     -50.139  27.354  33.966  0.00  0.00     0.000 A 
ATOM      7  C   UNL d   1     -49.481  26.910  33.751  0.00  0.00     0.000 A 
ATOM      8  C   UNL d   1     -49.583  26.155  33.421  0.00  0.00     0.000 A 
ATOM      9  C   UNL d   1     -50.340  25.855  33.312  0.00  0.00     0.003 A 
ENDBRANCH   2   4
ENDBRANCH   1   2
BRANCH   1  10
ATOM     10  O   UNL d   1     -52.589  24.844  33.453  0.00  0.00    -0.267 OA
BRANCH  10  11
ATOM     11  C   UNL d   1     -52.655  24.032  33.557  0.00  0.00     0.306 C 
ATOM     12  O   UNL d   1     -52.010  23.542  33.420  0.00  0.00    -0.258 OA
BRANCH  11  13
ATOM     13  C   UNL d   1     -53.376  23.706  33.802  0.00  0.00     0.093 A 
ATOM     14  S   UNL d   1     -53.591  23.530  34.578  0.00  0.00    -0.081 SA
ATOM     15  C   UNL d   1     -54.351  23.215  34.571  0.00  0.00     0.036 A 
ATOM     16  C   UNL d   1     -54.612  23.194  33.787  0.00  0.00     0.008 A 
ATOM     17  C   UNL d   1     -54.012  23.496  33.313  0.00  0.00     0.012 A 
ENDBRANCH  11  13
ENDBRANCH  10  11
ENDBRANCH   1  10
TORSDOF 5
ENDMDL
