MODEL 1
REMARK VINA RESULT:       6.6      0.000      0.000
REMARK  5 active torsions:
REMARK  status: ('A' for Active; 'I' for Inactive)
REMARK    1  A    between atoms: C_7  and  N_1 
REMARK    2  A    between atoms: C_2  and  C_6 
REMARK    3  A    between atoms: C_5  and  C_3 
REMARK    4  A    between atoms: N_8  and  C_5 
REMARK    5  A    between atoms: C_19  and  N_9 
ROOT
ATOM      1  C   UNL d   1     -42.856-122.434 -49.662  0.00  0.00     0.102 A 
ATOM      2  C   UNL d   1     -42.285-121.969 -50.783  0.00  0.00     0.126 A 
ATOM      3  O   UNL d   1     -42.249-121.953 -49.959  0.00  0.00    -0.305 OA
ATOM      4  C   UNL d   1     -43.269-122.747 -50.314  0.00  0.00     0.027 A 
ATOM      5  C   UNL d   1     -42.915-122.458 -50.996  0.00  0.00     0.029 A 
ENDROOT
BRANCH   2   6
ATOM      6  C   UNL d   1     -41.764-121.551 -51.330  0.00  0.00     0.143 C 
ATOM      7  S   UNL d   1     -41.178-121.052 -51.033  0.00  0.00    -0.057 SA
BRANCH   6   8
ATOM      8  N   UNL d   1     -41.871-121.667 -52.161  0.00  0.00    -0.291 N 
ATOM      9  C   UNL d   1     -41.518-122.292 -52.558  0.00  0.00     0.100 A 
ATOM     10  C   UNL d   1     -41.638-122.380 -53.360  0.00  0.00     0.100 A 
ATOM     11  N   UNL d   1     -42.097-121.869 -53.786  0.00  0.00    -0.301 N 
ATOM     12  C   UNL d   1     -42.470-121.219 -53.398  0.00  0.00     0.100 A 
ATOM     13  C   UNL d   1     -42.353-121.120 -52.578  0.00  0.00     0.100 A 
BRANCH  11  14
ATOM     14  C   UNL d   1     -42.205-121.978 -54.601  0.00  0.00     0.064 A 
ATOM     15  C   UNL d   1     -41.867-121.470 -55.149  0.00  0.00     0.018 A 
ATOM     16  C   UNL d   1     -41.981-121.589 -55.955  0.00  0.00     0.002 A 
ATOM     17  C   UNL d   1     -42.444-122.229 -56.211  0.00  0.00     0.000 A 
ATOM     18  C   UNL d   1     -42.782-122.737 -55.664  0.00  0.00     0.002 A 
ATOM     19  C   UNL d   1     -42.659-122.606 -54.860  0.00  0.00     0.018 A 
ENDBRANCH  11  14
ENDBRANCH   6   8
ENDBRANCH   2   6
BRANCH   1  20
ATOM     20  C   UNL d   1     -43.086-122.626 -48.888  0.00  0.00     0.045 A 
ATOM     21  C   UNL d   1     -42.579-123.067 -48.400  0.00  0.00     0.129 A 
ATOM     22  C   UNL d   1     -42.807-123.258 -47.631  0.00  0.00     0.024 A 
ATOM     23  C   UNL d   1     -43.546-123.012 -47.332  0.00  0.00     0.002 A 
ATOM     24  C   UNL d   1     -44.043-122.573 -47.826  0.00  0.00     0.000 A 
ATOM     25  C   UNL d   1     -43.815-122.382 -48.596  0.00  0.00     0.004 A 
BRANCH  21  26
ATOM     26  N   UNL d   1     -41.854-123.316 -48.675  0.00  0.00    -0.114 N 
ATOM     27  O   UNL d   1     -41.128-123.189 -48.277  0.00  0.00    -0.532 OA
ATOM     28  O   UNL d   1     -41.745-123.727 -49.382  0.00  0.00    -0.532 OA
ENDBRANCH  21  26
ENDBRANCH   1  20
TORSDOF 5
ENDMDL
