MODEL 1
REMARK VINA RESULT:      73.5      0.000      0.000
REMARK  6 active torsions:
REMARK  status: ('A' for Active; 'I' for Inactive)
REMARK    1  A    between atoms: N_7  and  C_1 
REMARK    2  A    between atoms: S_2  and  C_14 
REMARK    3  A    between atoms: N_9  and  S_2 
REMARK       I    between atoms: C_11  and  N_7 
REMARK       I    between atoms: C_10  and  N_8 
REMARK    4  A    between atoms: O_27  and  C_10 
REMARK    5  A    between atoms: C_19  and  C_11 
REMARK    6  A    between atoms: C_30  and  O_27 
ROOT
ATOM      1  C   UNL d   1     -50.370  27.105  33.557  0.00  0.00     0.099 A 
ATOM      2  C   UNL d   1     -51.172  26.946  33.448  0.00  0.00     0.091 A 
ATOM      3  C   UNL d   1     -50.545  25.768  33.513  0.00  0.00     0.049 A 
ATOM      4  C   UNL d   1     -51.282  26.128  33.420  0.00  0.00     0.021 A 
ATOM      5  S   UNL d   1     -49.975  26.365  33.599  0.00  0.00    -0.068 SA
ATOM      6  N   UNL d   1     -51.161  24.473  33.411  0.00  0.00    -0.251 N 
ATOM      7  C   UNL d   1     -51.099  23.652  33.407  0.00  0.00     0.378 C 
ATOM      8  C   UNL d   1     -50.481  24.937  33.509  0.00  0.00     0.091 A 
ATOM      9  C   UNL d   1     -51.773  27.504  33.376  0.00  0.00     0.103 C 
ATOM     10  N   UNL d   1     -52.360  28.068  33.306  0.00  0.00    -0.191 NA
ATOM     11  C   UNL d   1     -51.958  25.659  33.323  0.00  0.00     0.020 A 
ATOM     12  C   UNL d   1     -51.892  24.836  33.319  0.00  0.00     0.085 A 
ATOM     13  O   UNL d   1     -50.368  23.284  33.498  0.00  0.00    -0.237 OA
ENDROOT
BRANCH   1  14
ATOM     14  N   UNL d   1     -50.025  27.858  33.615  0.00  0.00    -0.316 N 
ATOM     15  C   UNL d   1     -49.452  28.007  34.202  0.00  0.00     0.258 C 
ATOM     16  O   UNL d   1     -49.232  27.402  34.722  0.00  0.00    -0.267 OA
ATOM     17  H   UNL d   1     -49.900  28.474  33.484  0.00  0.00     0.169 HD
BRANCH  15  18
ATOM     18  C   UNL d   1     -49.107  28.760  34.260  0.00  0.00     0.056 A 
ATOM     19  C   UNL d   1     -49.493  29.407  33.927  0.00  0.00     0.005 A 
ATOM     20  C   UNL d   1     -49.155  30.165  33.981  0.00  0.00     0.013 A 
ATOM     21  C   UNL d   1     -48.427  30.260  34.371  0.00  0.00     0.104 A 
ATOM     22  C   UNL d   1     -48.047  29.600  34.703  0.00  0.00     0.013 A 
ATOM     23  C   UNL d   1     -48.383  28.852  34.649  0.00  0.00     0.005 A 
BRANCH  21  24
ATOM     24  S   UNL d   1     -48.086  31.016  34.426  0.00  0.00     0.271 S 
ATOM     25  O   UNL d   1     -48.743  31.304  34.003  0.00  0.00    -0.200 OA
ATOM     26  O   UNL d   1     -47.436  30.728  34.846  0.00  0.00    -0.200 OA
BRANCH  24  27
ATOM     27  N   UNL d   1     -47.750  31.767  34.480  0.00  0.00    -0.229 N 
ATOM     28  C   UNL d   1     -47.308  32.056  35.123  0.00  0.00     0.092 A 
ATOM     29  C   UNL d   1     -47.080  32.826  34.946  0.00  0.00     0.021 A 
ATOM     30  C   UNL d   1     -47.373  33.020  34.202  0.00  0.00     0.021 A 
ATOM     31  C   UNL d   1     -47.785  32.366  33.917  0.00  0.00     0.092 A 
ENDBRANCH  24  27
ENDBRANCH  21  24
ENDBRANCH  15  18
ENDBRANCH   1  14
BRANCH   7  32
ATOM     32  O   UNL d   1     -51.786  23.189  33.308  0.00  0.00    -0.257 OA
BRANCH  32  33
ATOM     33  C   UNL d   1     -52.518  23.540  33.386  0.00  0.00     0.128 C 
ATOM     34  C   UNL d   1     -53.043  23.260  33.951  0.00  0.00     0.029 C 
ENDBRANCH  32  33
ENDBRANCH   7  32
TORSDOF 6
ENDMDL
MODEL 2
REMARK VINA RESULT:      75.6      0.940      1.489
REMARK  6 active torsions:
REMARK  status: ('A' for Active; 'I' for Inactive)
REMARK    1  A    between atoms: N_7  and  C_1 
REMARK    2  A    between atoms: S_2  and  C_14 
REMARK    3  A    between atoms: N_9  and  S_2 
REMARK       I    between atoms: C_11  and  N_7 
REMARK       I    between atoms: C_10  and  N_8 
REMARK    4  A    between atoms: O_27  and  C_10 
REMARK    5  A    between atoms: C_19  and  C_11 
REMARK    6  A    between atoms: C_30  and  O_27 
ROOT
ATOM      1  C   UNL d   1     -50.477  27.094  33.308  0.00  0.00     0.099 A 
ATOM      2  C   UNL d   1     -50.137  26.341  33.309  0.00  0.00     0.091 A 
ATOM      3  C   UNL d   1     -51.463  26.172  33.313  0.00  0.00     0.049 A 
ATOM      4  C   UNL d   1     -50.739  25.775  33.312  0.00  0.00     0.021 A 
ATOM      5  S   UNL d   1     -51.310  26.988  33.310  0.00  0.00    -0.068 SA
ATOM      6  N   UNL d   1     -52.158  24.913  33.317  0.00  0.00    -0.251 N 
ATOM      7  C   UNL d   1     -52.862  24.487  33.320  0.00  0.00     0.378 C 
ATOM      8  C   UNL d   1     -52.177  25.742  33.315  0.00  0.00     0.091 A 
ATOM      9  C   UNL d   1     -49.332  26.172  33.308  0.00  0.00     0.103 C 
ATOM     10  N   UNL d   1     -48.530  26.016  33.306  0.00  0.00    -0.191 NA
ATOM     11  C   UNL d   1     -50.726  24.947  33.314  0.00  0.00     0.020 A 
ATOM     12  C   UNL d   1     -51.434  24.523  33.317  0.00  0.00     0.085 A 
ATOM     13  O   UNL d   1     -53.588  24.874  33.321  0.00  0.00    -0.237 OA
ENDROOT
BRANCH   1  14
ATOM     14  N   UNL d   1     -50.066  27.814  33.306  0.00  0.00    -0.316 N 
ATOM     15  C   UNL d   1     -50.086  28.305  33.980  0.00  0.00     0.258 C 
ATOM     16  O   UNL d   1     -50.516  28.067  34.646  0.00  0.00    -0.267 OA
ATOM     17  H   UNL d   1     -49.698  28.296  33.095  0.00  0.00     0.169 HD
BRANCH  15  18
ATOM     18  C   UNL d   1     -49.675  29.025  33.977  0.00  0.00     0.056 A 
ATOM     19  C   UNL d   1     -50.089  29.726  33.851  0.00  0.00     0.005 A 
ATOM     20  C   UNL d   1     -49.684  30.453  33.847  0.00  0.00     0.013 A 
ATOM     21  C   UNL d   1     -48.862  30.463  33.971  0.00  0.00     0.104 A 
ATOM     22  C   UNL d   1     -48.455  29.750  34.098  0.00  0.00     0.013 A 
ATOM     23  C   UNL d   1     -48.856  29.033  34.102  0.00  0.00     0.005 A 
BRANCH  21  24
ATOM     24  S   UNL d   1     -48.454  31.187  33.968  0.00  0.00     0.271 S 
ATOM     25  O   UNL d   1     -47.757  30.753  34.111  0.00  0.00    -0.200 OA
ATOM     26  O   UNL d   1     -49.146  31.614  33.826  0.00  0.00    -0.200 OA
BRANCH  24  27
ATOM     27  N   UNL d   1     -48.046  31.904  33.965  0.00  0.00    -0.229 N 
ATOM     28  C   UNL d   1     -47.513  32.160  34.549  0.00  0.00     0.092 A 
ATOM     29  C   UNL d   1     -47.235  32.902  34.329  0.00  0.00     0.021 A 
ATOM     30  C   UNL d   1     -47.588  33.111  33.615  0.00  0.00     0.021 A 
ATOM     31  C   UNL d   1     -48.087  32.494  33.393  0.00  0.00     0.092 A 
ENDBRANCH  24  27
ENDBRANCH  21  24
ENDBRANCH  15  18
ENDBRANCH   1  14
BRANCH   7  32
ATOM     32  O   UNL d   1     -52.836  23.653  33.322  0.00  0.00    -0.257 OA
BRANCH  32  33
ATOM     33  C   UNL d   1     -53.330  23.239  33.822  0.00  0.00     0.128 C 
ATOM     34  C   UNL d   1     -54.131  23.191  33.651  0.00  0.00     0.029 C 
ENDBRANCH  32  33
ENDBRANCH   7  32
TORSDOF 6
ENDMDL
