MODEL 1
REMARK VINA RESULT:      -4.2      0.000      0.000
REMARK  3 active torsions:
REMARK  status: ('A' for Active; 'I' for Inactive)
REMARK    1  A    between atoms: N_7  and  C_4 
REMARK    2  A    between atoms: N_9  and  N_7 
REMARK       I    between atoms: C_8  and  N_9 
REMARK    3  A    between atoms: C_10  and  C_8 
ROOT
ATOM      1  N   UNL d   1     -41.249-122.246 -52.707  0.00  0.00    -0.127 NA
ENDROOT
BRANCH   1   2
ATOM      2  C   UNL d   1     -41.621-122.294 -53.446  0.00  0.00     0.178 A 
ATOM      3  N   UNL d   1     -41.561-122.980 -53.897  0.00  0.00    -0.240 N 
ATOM      4  C   UNL d   1     -41.929-123.027 -54.627  0.00  0.00     0.343 A 
ATOM      5  C   UNL d   1     -41.127-123.623 -53.611  0.00  0.00     0.105 C 
ATOM      6  N   UNL d   1     -42.363-122.384 -54.914  0.00  0.00    -0.224 N 
ATOM      7  O   UNL d   1     -41.867-123.719 -55.080  0.00  0.00    -0.245 OA
ATOM      8  C   UNL d   1     -42.433-121.687 -54.472  0.00  0.00     0.271 A 
ATOM      9  C   UNL d   1     -42.735-122.432 -55.652  0.00  0.00     0.107 C 
ATOM     10  C   UNL d   1     -42.055-121.651 -53.732  0.00  0.00     0.101 A 
ATOM     11  O   UNL d   1     -42.862-121.050 -54.755  0.00  0.00    -0.266 OA
ENDBRANCH   1   2
BRANCH   1  12
ATOM     12  N   UNL d   1     -41.631-122.533 -52.034  0.00  0.00    -0.104 NA
ATOM     13  C   UNL d   1     -41.570-122.121 -51.322  0.00  0.00     0.297 C 
ATOM     14  O   UNL d   1     -41.128-121.424 -51.282  0.00  0.00    -0.264 OA
BRANCH  13  15
ATOM     15  C   UNL d   1     -41.952-122.407 -50.649  0.00  0.00     0.059 A 
ATOM     16  C   UNL d   1     -41.546-122.896 -50.127  0.00  0.00     0.005 A 
ATOM     17  C   UNL d   1     -41.921-123.184 -49.456  0.00  0.00     0.000 A 
ATOM     18  C   UNL d   1     -41.511-123.676 -48.932  0.00  0.00     0.000 C 
ATOM     19  C   UNL d   1     -42.716-122.980 -49.303  0.00  0.00     0.000 A 
ATOM     20  C   UNL d   1     -43.121-122.490 -49.827  0.00  0.00     0.000 A 
ATOM     21  C   UNL d   1     -43.085-123.270 -48.632  0.00  0.00     0.000 C 
ATOM     22  C   UNL d   1     -42.731-122.205 -50.502  0.00  0.00     0.005 A 
ENDBRANCH  13  15
ENDBRANCH   1  12
TORSDOF 3
ENDMDL
