MODEL 1
REMARK VINA RESULT:      -5.5      0.000      0.000
REMARK  3 active torsions:
REMARK  status: ('A' for Active; 'I' for Inactive)
REMARK    1  A    between atoms: C_6  and  C_1 
REMARK    2  A    between atoms: C_7  and  C_5 
REMARK    3  A    between atoms: O_11  and  C_6 
ROOT
ATOM      1  C   UNL d   1     -41.507-122.649 -51.991  0.00  0.00     0.167 A 
ATOM      2  C   UNL d   1     -41.137-123.151 -51.516  0.00  0.00     0.047 A 
ATOM      3  N   UNL d   1     -42.249-122.209 -50.947  0.00  0.00    -0.148 NA
ATOM      4  N   UNL d   1     -42.067-122.174 -51.705  0.00  0.00    -0.143 NA
ATOM      5  C   UNL d   1     -41.875-122.716 -50.467  0.00  0.00     0.105 A 
ENDROOT
BRANCH   5   6
ATOM      6  C   UNL d   1     -41.924-122.895 -49.663  0.00  0.00     0.019 A 
ATOM      7  C   UNL d   1     -42.664-122.842 -49.285  0.00  0.00     0.002 A 
ATOM      8  C   UNL d   1     -42.722-123.020 -48.479  0.00  0.00     0.011 A 
ATOM      9  C   UNL d   1     -42.042-123.251 -48.057  0.00  0.00     0.058 A 
ATOM     10  C   UNL d   1     -41.314-123.299 -48.446  0.00  0.00     0.011 A 
ATOM     11 CL   UNL d   1     -42.104-123.432 -47.236  0.00  0.00    -0.082 Cl
ATOM     12  C   UNL d   1     -41.259-123.122 -49.244  0.00  0.00     0.002 A 
ENDBRANCH   5   6
BRANCH   1  13
ATOM     13  C   UNL d   1     -41.318-122.618 -52.758  0.00  0.00     0.316 C 
ATOM     14  O   UNL d   1     -41.123-121.927 -53.091  0.00  0.00    -0.257 OA
BRANCH  13  15
ATOM     15  O   UNL d   1     -41.327-123.312 -53.202  0.00  0.00    -0.294 OA
ATOM     16  C   UNL d   1     -41.233-123.273 -54.043  0.00  0.00     0.185 C 
ENDBRANCH  13  15
ENDBRANCH   1  13
TORSDOF 3
ENDMDL
MODEL 2
REMARK VINA RESULT:      -5.3      1.268      1.899
REMARK  3 active torsions:
REMARK  status: ('A' for Active; 'I' for Inactive)
REMARK    1  A    between atoms: C_6  and  C_1 
REMARK    2  A    between atoms: C_7  and  C_5 
REMARK    3  A    between atoms: O_11  and  C_6 
ROOT
ATOM      1  C   UNL d   1     -41.474-122.618 -53.720  0.00  0.00     0.167 A 
ATOM      2  C   UNL d   1     -41.554-123.303 -53.347  0.00  0.00     0.047 A 
ATOM      3  N   UNL d   1     -41.383-121.980 -52.529  0.00  0.00    -0.148 NA
ATOM      4  N   UNL d   1     -41.388-121.951 -53.309  0.00  0.00    -0.143 NA
ATOM      5  C   UNL d   1     -41.463-122.672 -52.153  0.00  0.00     0.105 A 
ENDROOT
BRANCH   5   6
ATOM      6  C   UNL d   1     -41.482-122.901 -51.360  0.00  0.00     0.019 A 
ATOM      7  C   UNL d   1     -41.874-122.413 -50.811  0.00  0.00     0.002 A 
ATOM      8  C   UNL d   1     -41.898-122.636 -50.014  0.00  0.00     0.011 A 
ATOM      9  C   UNL d   1     -41.531-123.343 -49.771  0.00  0.00     0.058 A 
ATOM     10  C   UNL d   1     -41.145-123.817 -50.328  0.00  0.00     0.011 A 
ATOM     11 CL   UNL d   1     -41.557-123.566 -48.959  0.00  0.00    -0.082 Cl
ATOM     12  C   UNL d   1     -41.123-123.595 -51.116  0.00  0.00     0.002 A 
ENDBRANCH   5   6
BRANCH   1  13
ATOM     13  C   UNL d   1     -41.480-122.595 -54.511  0.00  0.00     0.316 C 
ATOM     14  O   UNL d   1     -41.262-123.232 -54.928  0.00  0.00    -0.257 OA
BRANCH  13  15
ATOM     15  O   UNL d   1     -41.715-121.903 -54.890  0.00  0.00    -0.294 OA
ATOM     16  C   UNL d   1     -42.033-121.942 -55.675  0.00  0.00     0.185 C 
ENDBRANCH  13  15
ENDBRANCH   1  13
TORSDOF 3
ENDMDL
MODEL 3
REMARK VINA RESULT:      -4.7      1.844      2.566
REMARK  3 active torsions:
REMARK  status: ('A' for Active; 'I' for Inactive)
REMARK    1  A    between atoms: C_6  and  C_1 
REMARK    2  A    between atoms: C_7  and  C_5 
REMARK    3  A    between atoms: O_11  and  C_6 
ROOT
ATOM      1  C   UNL d   1     -41.687-122.758 -54.284  0.00  0.00     0.167 A 
ATOM      2  C   UNL d   1     -41.743-122.203 -53.733  0.00  0.00     0.047 A 
ATOM      3  N   UNL d   1     -41.403-123.676 -53.331  0.00  0.00    -0.148 NA
ATOM      4  N   UNL d   1     -41.516-123.500 -54.083  0.00  0.00    -0.143 NA
ATOM      5  C   UNL d   1     -41.460-123.116 -52.774  0.00  0.00     0.105 A 
ENDROOT
BRANCH   5   6
ATOM      6  C   UNL d   1     -41.378-123.105 -51.953  0.00  0.00     0.019 A 
ATOM      7  C   UNL d   1     -41.206-123.817 -51.558  0.00  0.00     0.002 A 
ATOM      8  C   UNL d   1     -41.123-123.815 -50.734  0.00  0.00     0.011 A 
ATOM      9  C   UNL d   1     -41.210-123.103 -50.312  0.00  0.00     0.058 A 
ATOM     10  C   UNL d   1     -41.381-122.403 -50.719  0.00  0.00     0.011 A 
ATOM     11 CL   UNL d   1     -41.125-123.104 -49.474  0.00  0.00    -0.082 Cl
ATOM     12  C   UNL d   1     -41.463-122.407 -51.533  0.00  0.00     0.002 A 
ENDBRANCH   5   6
BRANCH   1  13
ATOM     13  C   UNL d   1     -41.802-122.573 -55.045  0.00  0.00     0.316 C 
ATOM     14  O   UNL d   1     -41.183-122.501 -55.534  0.00  0.00    -0.257 OA
BRANCH  13  15
ATOM     15  O   UNL d   1     -42.570-122.458 -55.318  0.00  0.00    -0.294 OA
ATOM     16  C   UNL d   1     -42.729-121.840 -55.876  0.00  0.00     0.185 C 
ENDBRANCH  13  15
ENDBRANCH   1  13
TORSDOF 3
ENDMDL
MODEL 4
REMARK VINA RESULT:      -4.2      2.657      4.250
REMARK  3 active torsions:
REMARK  status: ('A' for Active; 'I' for Inactive)
REMARK    1  A    between atoms: C_6  and  C_1 
REMARK    2  A    between atoms: C_7  and  C_5 
REMARK    3  A    between atoms: O_11  and  C_6 
ROOT
ATOM      1  C   UNL d   1     -41.963-123.334 -49.818  0.00  0.00     0.167 A 
ATOM      2  C   UNL d   1     -42.332-122.876 -50.337  0.00  0.00     0.047 A 
ATOM      3  N   UNL d   1     -41.134-123.773 -50.794  0.00  0.00    -0.148 NA
ATOM      4  N   UNL d   1     -41.359-123.786 -50.047  0.00  0.00    -0.143 NA
ATOM      5  C   UNL d   1     -41.506-123.311 -51.318  0.00  0.00     0.105 A 
ENDROOT
BRANCH   5   6
ATOM      6  C   UNL d   1     -41.418-123.164 -52.126  0.00  0.00     0.019 A 
ATOM      7  C   UNL d   1     -41.213-123.795 -52.628  0.00  0.00     0.002 A 
ATOM      8  C   UNL d   1     -41.123-123.656 -53.439  0.00  0.00     0.011 A 
ATOM      9  C   UNL d   1     -41.237-122.888 -53.742  0.00  0.00     0.058 A 
ATOM     10  C   UNL d   1     -41.440-122.271 -53.230  0.00  0.00     0.011 A 
ATOM     11 CL   UNL d   1     -41.144-122.750 -54.568  0.00  0.00    -0.082 Cl
ATOM     12  C   UNL d   1     -41.529-122.411 -52.428  0.00  0.00     0.002 A 
ENDBRANCH   5   6
BRANCH   1  13
ATOM     13  C   UNL d   1     -42.197-123.342 -49.062  0.00  0.00     0.316 C 
ATOM     14  O   UNL d   1     -41.717-123.068 -48.496  0.00  0.00    -0.257 OA
BRANCH  13  15
ATOM     15  O   UNL d   1     -42.942-123.639 -48.876  0.00  0.00    -0.294 OA
ATOM     16  C   UNL d   1     -43.148-123.778 -48.066  0.00  0.00     0.185 C 
ENDBRANCH  13  15
ENDBRANCH   1  13
TORSDOF 3
ENDMDL
MODEL 5
REMARK VINA RESULT:      -3.0      2.722      4.166
REMARK  3 active torsions:
REMARK  status: ('A' for Active; 'I' for Inactive)
REMARK    1  A    between atoms: C_6  and  C_1 
REMARK    2  A    between atoms: C_7  and  C_5 
REMARK    3  A    between atoms: O_11  and  C_6 
ROOT
ATOM      1  C   UNL d   1     -42.227-123.202 -48.735  0.00  0.00     0.167 A 
ATOM      2  C   UNL d   1     -41.771-123.638 -49.200  0.00  0.00     0.047 A 
ATOM      3  N   UNL d   1     -42.491-122.373 -49.773  0.00  0.00    -0.148 NA
ATOM      4  N   UNL d   1     -42.591-122.564 -49.023  0.00  0.00    -0.143 NA
ATOM      5  C   UNL d   1     -42.030-122.814 -50.242  0.00  0.00     0.105 A 
ENDROOT
BRANCH   5   6
ATOM      6  C   UNL d   1     -41.807-122.776 -51.036  0.00  0.00     0.019 A 
ATOM      7  C   UNL d   1     -41.441-122.083 -51.317  0.00  0.00     0.002 A 
ATOM      8  C   UNL d   1     -41.215-122.038 -52.112  0.00  0.00     0.011 A 
ATOM      9  C   UNL d   1     -41.355-122.683 -52.620  0.00  0.00     0.058 A 
ATOM     10  C   UNL d   1     -41.719-123.365 -52.326  0.00  0.00     0.011 A 
ATOM     11 CL   UNL d   1     -41.123-122.633 -53.429  0.00  0.00    -0.082 Cl
ATOM     12  C   UNL d   1     -41.942-123.408 -51.539  0.00  0.00     0.002 A 
ENDBRANCH   5   6
BRANCH   1  13
ATOM     13  C   UNL d   1     -42.325-123.400 -47.976  0.00  0.00     0.316 C 
ATOM     14  O   UNL d   1     -42.960-123.817 -47.753  0.00  0.00    -0.257 OA
BRANCH  13  15
ATOM     15  O   UNL d   1     -41.758-123.168 -47.425  0.00  0.00    -0.294 OA
ATOM     16  C   UNL d   1     -41.361-123.755 -46.960  0.00  0.00     0.185 C 
ENDBRANCH  13  15
ENDBRANCH   1  13
TORSDOF 3
ENDMDL
