MODEL 1
REMARK VINA RESULT:      -4.4      0.000      0.000
REMARK  5 active torsions:
REMARK  status: ('A' for Active; 'I' for Inactive)
REMARK    1  A    between atoms: C_6  and  C_1 
REMARK    2  A    between atoms: C_7  and  C_6 
REMARK    3  A    between atoms: C_10  and  O_14 
REMARK    4  A    between atoms: C_20  and  C_10 
REMARK    5  A    between atoms: O_14  and  C_12 
ROOT
ATOM      1  C   UNL d   1      58.318  -0.864  29.528  0.00  0.00     0.141 A 
ATOM      2  C   UNL d   1      57.823   0.019  30.393  0.00  0.00     0.064 A 
ATOM      3  C   UNL d   1      58.166  -0.065  29.653  0.00  0.00     0.220 A 
ATOM      4  C   UNL d   1      57.760  -0.730  30.732  0.00  0.00     0.105 A 
ATOM      5  O   UNL d   1      58.067  -1.282  30.197  0.00  0.00    -0.304 OA
ATOM      6  C   UNL d   1      57.435  -0.814  31.477  0.00  0.00     0.050 A 
ATOM      7  C   UNL d   1      57.559   0.682  30.804  0.00  0.00     0.007 A 
ATOM      8  C   UNL d   1      57.170  -0.152  31.889  0.00  0.00     0.105 A 
ATOM      9  O   UNL d   1      58.334   0.546  29.119  0.00  0.00    -0.284 OA
ATOM     10  C   UNL d   1      57.234   0.594  31.551  0.00  0.00     0.025 A 
ENDROOT
BRANCH   1  11
ATOM     11  C   UNL d   1      58.660  -1.197  28.856  0.00  0.00     0.053 C 
BRANCH  11  12
ATOM     12  C   UNL d   1      59.113  -1.888  28.913  0.00  0.00     0.102 A 
ATOM     13  O   UNL d   1      59.887  -1.947  29.180  0.00  0.00    -0.305 OA
ATOM     14  C   UNL d   1      60.115  -2.737  29.142  0.00  0.00     0.123 A 
ATOM     15  C   UNL d   1      59.480  -3.177  28.848  0.00  0.00     0.029 A 
ATOM     16  C   UNL d   1      58.856  -2.654  28.705  0.00  0.00     0.027 A 
ENDBRANCH  11  12
ENDBRANCH   1  11
BRANCH   8  17
ATOM     17  O   UNL d   1      56.843  -0.238  32.638  0.00  0.00    -0.273 OA
BRANCH  17  18
ATOM     18  C   UNL d   1      56.061  -0.475  32.723  0.00  0.00     0.300 C 
ATOM     19  O   UNL d   1      55.850  -1.255  32.560  0.00  0.00    -0.259 OA
BRANCH  18  20
ATOM     20  C   UNL d   1      55.493   0.073  32.970  0.00  0.00     0.069 C 
ATOM     21  C   UNL d   1      55.014  -0.104  33.622  0.00  0.00     0.006 C 
ENDBRANCH  18  20
ENDBRANCH  17  18
ENDBRANCH   8  17
TORSDOF 5
ENDMDL
MODEL 2
REMARK VINA RESULT:      -3.1      0.957      4.353
REMARK  5 active torsions:
REMARK  status: ('A' for Active; 'I' for Inactive)
REMARK    1  A    between atoms: C_6  and  C_1 
REMARK    2  A    between atoms: C_7  and  C_6 
REMARK    3  A    between atoms: C_10  and  O_14 
REMARK    4  A    between atoms: C_20  and  C_10 
REMARK    5  A    between atoms: O_14  and  C_12 
ROOT
ATOM      1  C   UNL d   1      57.849  -0.330  30.613  0.00  0.00     0.141 A 
ATOM      2  C   UNL d   1      58.932  -0.588  29.883  0.00  0.00     0.064 A 
ATOM      3  C   UNL d   1      58.584  -0.041  30.384  0.00  0.00     0.220 A 
ATOM      4  C   UNL d   1      58.412  -1.223  29.797  0.00  0.00     0.105 A 
ATOM      5  O   UNL d   1      57.736  -1.066  30.250  0.00  0.00    -0.304 OA
ATOM      6  C   UNL d   1      58.616  -1.856  29.324  0.00  0.00     0.050 A 
ATOM      7  C   UNL d   1      59.656  -0.593  29.492  0.00  0.00     0.007 A 
ATOM      8  C   UNL d   1      59.341  -1.861  28.932  0.00  0.00     0.105 A 
ATOM      9  O   UNL d   1      58.912   0.682  30.624  0.00  0.00    -0.284 OA
ATOM     10  C   UNL d   1      59.858  -1.229  29.017  0.00  0.00     0.025 A 
ENDROOT
BRANCH   1  11
ATOM     11  C   UNL d   1      57.311   0.042  31.116  0.00  0.00     0.053 C 
BRANCH  11  12
ATOM     12  C   UNL d   1      56.938  -0.382  31.722  0.00  0.00     0.102 A 
ATOM     13  O   UNL d   1      56.585  -1.120  31.658  0.00  0.00    -0.305 OA
ATOM     14  C   UNL d   1      56.285  -1.329  32.396  0.00  0.00     0.123 A 
ATOM     15  C   UNL d   1      56.452  -0.717  32.926  0.00  0.00     0.029 A 
ATOM     16  C   UNL d   1      56.857  -0.128  32.511  0.00  0.00     0.027 A 
ENDBRANCH  11  12
ENDBRANCH   1  11
BRANCH   8  17
ATOM     17  O   UNL d   1      59.546  -2.499  28.455  0.00  0.00    -0.273 OA
BRANCH  17  18
ATOM     18  C   UNL d   1      59.656  -3.243  28.786  0.00  0.00     0.300 C 
ATOM     19  O   UNL d   1      59.010  -3.656  29.091  0.00  0.00    -0.259 OA
BRANCH  18  20
ATOM     20  C   UNL d   1      60.415  -3.572  28.810  0.00  0.00     0.069 C 
ATOM     21  C   UNL d   1      60.529  -4.306  29.173  0.00  0.00     0.006 C 
ENDBRANCH  18  20
ENDBRANCH  17  18
ENDBRANCH   8  17
TORSDOF 5
ENDMDL
MODEL 3
REMARK VINA RESULT:      -2.8      1.098      1.999
REMARK  5 active torsions:
REMARK  status: ('A' for Active; 'I' for Inactive)
REMARK    1  A    between atoms: C_6  and  C_1 
REMARK    2  A    between atoms: C_7  and  C_6 
REMARK    3  A    between atoms: C_10  and  O_14 
REMARK    4  A    between atoms: C_20  and  C_10 
REMARK    5  A    between atoms: O_14  and  C_12 
ROOT
ATOM      1  C   UNL d   1      59.841  -1.967  28.824  0.00  0.00     0.141 A 
ATOM      2  C   UNL d   1      59.344  -0.840  29.330  0.00  0.00     0.064 A 
ATOM      3  C   UNL d   1      59.990  -1.167  28.947  0.00  0.00     0.220 A 
ATOM      4  C   UNL d   1      58.787  -1.437  29.447  0.00  0.00     0.105 A 
ATOM      5  O   UNL d   1      59.093  -2.140  29.134  0.00  0.00    -0.304 OA
ATOM      6  C   UNL d   1      58.080  -1.268  29.821  0.00  0.00     0.050 A 
ATOM      7  C   UNL d   1      59.188  -0.074  29.589  0.00  0.00     0.007 A 
ATOM      8  C   UNL d   1      57.924  -0.503  30.080  0.00  0.00     0.105 A 
ATOM      9  O   UNL d   1      60.680  -0.766  28.720  0.00  0.00    -0.284 OA
ATOM     10  C   UNL d   1      58.478   0.092  29.963  0.00  0.00     0.025 A 
ENDROOT
BRANCH   1  11
ATOM     11  C   UNL d   1      60.344  -2.508  28.456  0.00  0.00     0.053 C 
BRANCH  11  12
ATOM     12  C   UNL d   1      60.538  -3.222  28.828  0.00  0.00     0.102 A 
ATOM     13  O   UNL d   1      60.932  -3.311  29.543  0.00  0.00    -0.305 OA
ATOM     14  C   UNL d   1      61.006  -4.116  29.700  0.00  0.00     0.123 A 
ATOM     15  C   UNL d   1      60.655  -4.534  29.079  0.00  0.00     0.029 A 
ATOM     16  C   UNL d   1      60.364  -3.983  28.536  0.00  0.00     0.027 A 
ENDBRANCH  11  12
ENDBRANCH   1  11
BRANCH   8  17
ATOM     17  O   UNL d   1      57.212  -0.334  30.455  0.00  0.00    -0.273 OA
BRANCH  17  18
ATOM     18  C   UNL d   1      57.103  -0.537  31.244  0.00  0.00     0.300 C 
ATOM     19  O   UNL d   1      56.911  -1.314  31.445  0.00  0.00    -0.259 OA
BRANCH  18  20
ATOM     20  C   UNL d   1      57.187   0.041  31.830  0.00  0.00     0.069 C 
ATOM     21  C   UNL d   1      56.685   0.029  32.488  0.00  0.00     0.006 C 
ENDBRANCH  18  20
ENDBRANCH  17  18
ENDBRANCH   8  17
TORSDOF 5
ENDMDL
MODEL 4
REMARK VINA RESULT:      -1.6      8.653     10.102
REMARK  5 active torsions:
REMARK  status: ('A' for Active; 'I' for Inactive)
REMARK    1  A    between atoms: C_6  and  C_1 
REMARK    2  A    between atoms: C_7  and  C_6 
REMARK    3  A    between atoms: C_10  and  O_14 
REMARK    4  A    between atoms: C_20  and  C_10 
REMARK    5  A    between atoms: O_14  and  C_12 
ROOT
ATOM      1  C   UNL d   1      59.363  -9.729  33.859  0.00  0.00     0.141 A 
ATOM      2  C   UNL d   1      59.333  -9.765  32.529  0.00  0.00     0.064 A 
ATOM      3  C   UNL d   1      58.867  -9.745  33.203  0.00  0.00     0.220 A 
ATOM      4  C   UNL d   1      60.124  -9.762  32.764  0.00  0.00     0.105 A 
ATOM      5  O   UNL d   1      60.147  -9.739  33.591  0.00  0.00    -0.304 OA
ATOM      6  C   UNL d   1      60.716  -9.779  32.202  0.00  0.00     0.050 A 
ATOM      7  C   UNL d   1      59.141  -9.786  31.728  0.00  0.00     0.007 A 
ATOM      8  C   UNL d   1      60.525  -9.800  31.401  0.00  0.00     0.105 A 
ATOM      9  O   UNL d   1      58.038  -9.741  33.225  0.00  0.00    -0.284 OA
ATOM     10  C   UNL d   1      59.738  -9.804  31.167  0.00  0.00     0.025 A 
ENDROOT
BRANCH   1  11
ATOM     11  C   UNL d   1      59.128  -9.706  34.649  0.00  0.00     0.053 C 
BRANCH  11  12
ATOM     12  C   UNL d   1      59.464  -9.160  35.173  0.00  0.00     0.102 A 
ATOM     13  O   UNL d   1      60.119  -9.281  35.652  0.00  0.00    -0.305 OA
ATOM     14  C   UNL d   1      60.257  -8.591  36.081  0.00  0.00     0.123 A 
ATOM     15  C   UNL d   1      59.684  -8.035  35.868  0.00  0.00     0.029 A 
ATOM     16  C   UNL d   1      59.190  -8.384  35.306  0.00  0.00     0.027 A 
ENDBRANCH  11  12
ENDBRANCH   1  11
BRANCH   8  17
ATOM     17  O   UNL d   1      61.123  -9.818  30.836  0.00  0.00    -0.273 OA
BRANCH  17  18
ATOM     18  C   UNL d   1      61.116  -9.285  30.212  0.00  0.00     0.300 C 
ATOM     19  O   UNL d   1      61.112  -8.474  30.365  0.00  0.00    -0.259 OA
BRANCH  18  20
ATOM     20  C   UNL d   1      61.114  -9.566  29.434  0.00  0.00     0.069 C 
ATOM     21  C   UNL d   1      61.086  -9.028  28.806  0.00  0.00     0.006 C 
ENDBRANCH  18  20
ENDBRANCH  17  18
ENDBRANCH   8  17
TORSDOF 5
ENDMDL
