MODEL 1
REMARK VINA RESULT:      -5.3      0.000      0.000
REMARK  2 active torsions:
REMARK  status: ('A' for Active; 'I' for Inactive)
REMARK       I    between atoms: N_2  and  C_1 
REMARK       I    between atoms: N_3  and  C_1 
REMARK    1  A    between atoms: C_6  and  N_2 
REMARK    2  A    between atoms: C_5  and  N_3 
ROOT
ATOM      1  C   UNL d   1     -41.388-121.819 -52.069  0.00  0.00     0.369 C 
ATOM      2  N   UNL d   1     -41.383-121.777 -51.259  0.00  0.00    -0.191 NA
ATOM      3  N   UNL d   1     -41.657-122.488 -52.438  0.00  0.00    -0.191 NA
ATOM      4  O   UNL d   1     -41.123-121.186 -52.582  0.00  0.00    -0.242 OA
ENDROOT
BRANCH   2   5
ATOM      5  C   UNL d   1     -41.648-122.413 -50.821  0.00  0.00     0.086 A 
ATOM      6  C   UNL d   1     -41.189-123.089 -50.759  0.00  0.00     0.019 A 
ATOM      7  C   UNL d   1     -41.442-123.746 -50.319  0.00  0.00     0.002 A 
ATOM      8  C   UNL d   1     -42.181-123.715 -49.932  0.00  0.00     0.000 A 
ATOM      9  C   UNL d   1     -42.645-123.027 -49.997  0.00  0.00     0.002 A 
ATOM     10  C   UNL d   1     -42.380-122.382 -50.438  0.00  0.00     0.019 A 
ENDBRANCH   2   5
BRANCH   3  11
ATOM     11  C   UNL d   1     -41.664-122.533 -53.251  0.00  0.00     0.086 A 
ATOM     12  C   UNL d   1     -42.210-122.099 -53.680  0.00  0.00     0.019 A 
ATOM     13  C   UNL d   1     -42.225-122.138 -54.504  0.00  0.00     0.002 A 
ATOM     14  C   UNL d   1     -41.677-122.626 -54.903  0.00  0.00     0.000 A 
ATOM     15  C   UNL d   1     -41.128-123.063 -54.468  0.00  0.00     0.002 A 
ATOM     16  C   UNL d   1     -41.123-123.015 -53.645  0.00  0.00     0.019 A 
ENDBRANCH   3  11
TORSDOF 2
ENDMDL
MODEL 2
REMARK VINA RESULT:      -5.0      0.567      3.460
REMARK  2 active torsions:
REMARK  status: ('A' for Active; 'I' for Inactive)
REMARK       I    between atoms: N_2  and  C_1 
REMARK       I    between atoms: N_3  and  C_1 
REMARK    1  A    between atoms: C_6  and  N_2 
REMARK    2  A    between atoms: C_5  and  N_3 
ROOT
ATOM      1  C   UNL d   1     -41.384-121.848 -52.168  0.00  0.00     0.369 C 
ATOM      2  N   UNL d   1     -41.251-121.622 -52.936  0.00  0.00    -0.191 NA
ATOM      3  N   UNL d   1     -41.786-122.534 -52.011  0.00  0.00    -0.191 NA
ATOM      4  O   UNL d   1     -41.123-121.400 -51.486  0.00  0.00    -0.242 OA
ENDROOT
BRANCH   2   5
ATOM      5  C   UNL d   1     -41.525-122.091 -53.546  0.00  0.00     0.086 A 
ATOM      6  C   UNL d   1     -42.200-121.875 -53.958  0.00  0.00     0.019 A 
ATOM      7  C   UNL d   1     -42.494-122.338 -54.581  0.00  0.00     0.002 A 
ATOM      8  C   UNL d   1     -42.092-123.039 -54.791  0.00  0.00     0.000 A 
ATOM      9  C   UNL d   1     -41.407-123.255 -54.371  0.00  0.00     0.002 A 
ATOM     10  C   UNL d   1     -41.126-122.785 -53.753  0.00  0.00     0.019 A 
ENDBRANCH   2   5
BRANCH   3  11
ATOM     11  C   UNL d   1     -41.922-122.763 -51.242  0.00  0.00     0.086 A 
ATOM     12  C   UNL d   1     -42.480-122.369 -50.790  0.00  0.00     0.019 A 
ATOM     13  C   UNL d   1     -42.624-122.594 -50.009  0.00  0.00     0.002 A 
ATOM     14  C   UNL d   1     -42.196-123.229 -49.678  0.00  0.00     0.000 A 
ATOM     15  C   UNL d   1     -41.634-123.624 -50.136  0.00  0.00     0.002 A 
ATOM     16  C   UNL d   1     -41.499-123.390 -50.915  0.00  0.00     0.019 A 
ENDBRANCH   3  11
TORSDOF 2
ENDMDL
MODEL 3
REMARK VINA RESULT:      -4.7      1.202      1.753
REMARK  2 active torsions:
REMARK  status: ('A' for Active; 'I' for Inactive)
REMARK       I    between atoms: N_2  and  C_1 
REMARK       I    between atoms: N_3  and  C_1 
REMARK    1  A    between atoms: C_6  and  N_2 
REMARK    2  A    between atoms: C_5  and  N_3 
ROOT
ATOM      1  C   UNL d   1     -41.508-123.295 -53.235  0.00  0.00     0.369 C 
ATOM      2  N   UNL d   1     -41.367-123.504 -52.463  0.00  0.00    -0.191 NA
ATOM      3  N   UNL d   1     -41.819-122.567 -53.407  0.00  0.00    -0.191 NA
ATOM      4  O   UNL d   1     -41.348-123.805 -53.905  0.00  0.00    -0.242 OA
ENDROOT
BRANCH   2   5
ATOM      5  C   UNL d   1     -41.540-122.976 -51.866  0.00  0.00     0.086 A 
ATOM      6  C   UNL d   1     -42.132-123.147 -51.325  0.00  0.00     0.019 A 
ATOM      7  C   UNL d   1     -42.323-122.623 -50.710  0.00  0.00     0.002 A 
ATOM      8  C   UNL d   1     -41.901-121.905 -50.644  0.00  0.00     0.000 A 
ATOM      9  C   UNL d   1     -41.302-121.734 -51.194  0.00  0.00     0.002 A 
ATOM     10  C   UNL d   1     -41.123-122.265 -51.800  0.00  0.00     0.019 A 
ENDBRANCH   2   5
BRANCH   3  11
ATOM     11  C   UNL d   1     -41.962-122.355 -54.180  0.00  0.00     0.086 A 
ATOM     12  C   UNL d   1     -41.338-122.280 -54.706  0.00  0.00     0.019 A 
ATOM     13  C   UNL d   1     -41.473-122.065 -55.491  0.00  0.00     0.002 A 
ATOM     14  C   UNL d   1     -42.254-121.922 -55.751  0.00  0.00     0.000 A 
ATOM     15  C   UNL d   1     -42.880-121.999 -55.219  0.00  0.00     0.002 A 
ATOM     16  C   UNL d   1     -42.732-122.214 -54.436  0.00  0.00     0.019 A 
ENDBRANCH   3  11
TORSDOF 2
ENDMDL
MODEL 4
REMARK VINA RESULT:      -4.1      2.271      3.237
REMARK  2 active torsions:
REMARK  status: ('A' for Active; 'I' for Inactive)
REMARK       I    between atoms: N_2  and  C_1 
REMARK       I    between atoms: N_3  and  C_1 
REMARK    1  A    between atoms: C_6  and  N_2 
REMARK    2  A    between atoms: C_5  and  N_3 
ROOT
ATOM      1  C   UNL d   1     -42.668-123.312 -49.321  0.00  0.00     0.369 C 
ATOM      2  N   UNL d   1     -42.869-123.533 -48.567  0.00  0.00    -0.191 NA
ATOM      3  N   UNL d   1     -41.968-122.929 -49.459  0.00  0.00    -0.191 NA
ATOM      4  O   UNL d   1     -43.158-123.460 -50.008  0.00  0.00    -0.242 OA
ENDROOT
BRANCH   2   5
ATOM      5  C   UNL d   1     -42.361-123.366 -47.950  0.00  0.00     0.086 A 
ATOM      6  C   UNL d   1     -41.686-123.817 -47.841  0.00  0.00     0.019 A 
ATOM      7  C   UNL d   1     -41.156-123.663 -47.220  0.00  0.00     0.002 A 
ATOM      8  C   UNL d   1     -41.318-123.033 -46.696  0.00  0.00     0.000 A 
ATOM      9  C   UNL d   1     -42.004-122.576 -46.810  0.00  0.00     0.002 A 
ATOM     10  C   UNL d   1     -42.522-122.742 -47.432  0.00  0.00     0.019 A 
ENDBRANCH   2   5
BRANCH   3  11
ATOM     11  C   UNL d   1     -41.763-122.706 -50.214  0.00  0.00     0.086 A 
ATOM     12  C   UNL d   1     -41.977-121.967 -50.495  0.00  0.00     0.019 A 
ATOM     13  C   UNL d   1     -41.774-121.732 -51.259  0.00  0.00     0.002 A 
ATOM     14  C   UNL d   1     -41.347-122.254 -51.751  0.00  0.00     0.000 A 
ATOM     15  C   UNL d   1     -41.134-122.999 -51.465  0.00  0.00     0.002 A 
ATOM     16  C   UNL d   1     -41.342-123.222 -50.699  0.00  0.00     0.019 A 
ENDBRANCH   3  11
TORSDOF 2
ENDMDL
MODEL 5
REMARK VINA RESULT:      -3.8      2.179      4.532
REMARK  2 active torsions:
REMARK  status: ('A' for Active; 'I' for Inactive)
REMARK       I    between atoms: N_2  and  C_1 
REMARK       I    between atoms: N_3  and  C_1 
REMARK    1  A    between atoms: C_6  and  N_2 
REMARK    2  A    between atoms: C_5  and  N_3 
ROOT
ATOM      1  C   UNL d   1     -42.738-123.186 -49.599  0.00  0.00     0.369 C 
ATOM      2  N   UNL d   1     -42.873-123.023 -50.383  0.00  0.00    -0.191 NA
ATOM      3  N   UNL d   1     -42.035-122.975 -49.257  0.00  0.00    -0.191 NA
ATOM      4  O   UNL d   1     -43.304-123.577 -49.089  0.00  0.00    -0.242 OA
ENDROOT
BRANCH   2   5
ATOM      5  C   UNL d   1     -42.296-122.647 -50.821  0.00  0.00     0.086 A 
ATOM      6  C   UNL d   1     -42.249-121.829 -50.822  0.00  0.00     0.019 A 
ATOM      7  C   UNL d   1     -41.670-121.428 -51.261  0.00  0.00     0.002 A 
ATOM      8  C   UNL d   1     -41.123-121.871 -51.710  0.00  0.00     0.000 A 
ATOM      9  C   UNL d   1     -41.172-122.701 -51.706  0.00  0.00     0.002 A 
ATOM     10  C   UNL d   1     -41.754-123.086 -51.265  0.00  0.00     0.019 A 
ENDBRANCH   2   5
BRANCH   3  11
ATOM     11  C   UNL d   1     -41.897-123.136 -48.471  0.00  0.00     0.086 A 
ATOM     12  C   UNL d   1     -42.386-122.818 -47.896  0.00  0.00     0.019 A 
ATOM     13  C   UNL d   1     -42.254-122.976 -47.097  0.00  0.00     0.002 A 
ATOM     14  C   UNL d   1     -41.614-123.465 -46.874  0.00  0.00     0.000 A 
ATOM     15  C   UNL d   1     -41.124-123.784 -47.456  0.00  0.00     0.002 A 
ATOM     16  C   UNL d   1     -41.266-123.619 -48.252  0.00  0.00     0.019 A 
ENDBRANCH   3  11
TORSDOF 2
ENDMDL
