MODEL 1
REMARK VINA RESULT:      21.0      0.000      0.000
REMARK  8 active torsions:
REMARK  status: ('A' for Active; 'I' for Inactive)
REMARK    1  A    between atoms: C_2  and  P_1 
REMARK    2  A    between atoms: O_5  and  P_1 
REMARK    3  A    between atoms: O_6  and  P_1 
REMARK    4  A    between atoms: N_3  and  C_2 
REMARK       I    between atoms: C_4  and  N_3 
REMARK    5  A    between atoms: C_9  and  C_4 
REMARK    6  A    between atoms: C_12  and  O_5 
REMARK    7  A    between atoms: C_11  and  O_6 
REMARK    8  A    between atoms: C_10  and  C_9 
ROOT
ATOM      1  C   UNL d   1      14.268  12.524  -1.928  0.00  0.00     0.165 C 
ATOM      2  C   UNL d   1      14.581  11.780  -2.098  0.00  0.00     0.029 C 
ENDROOT
BRANCH   1   3
ATOM      3  P   UNL d   1      14.493  12.928  -1.242  0.00  0.00     0.392 P 
ATOM      4  O   UNL d   1      15.209  13.169  -1.631  0.00  0.00    -0.251 OA
BRANCH   3   5
ATOM      5  O   UNL d   1      14.734  13.346  -0.544  0.00  0.00    -0.265 OA
BRANCH   5   6
ATOM      6  C   UNL d   1      15.242  13.993  -0.604  0.00  0.00     0.103 C 
ATOM      7  C   UNL d   1      16.051  13.888  -0.529  0.00  0.00     0.027 C 
ATOM      8  C   UNL d   1      14.954  14.753  -0.739  0.00  0.00     0.027 C 
ENDBRANCH   5   6
ENDBRANCH   3   5
BRANCH   3   9
ATOM      9  O   UNL d   1      13.794  12.688  -0.872  0.00  0.00    -0.265 OA
BRANCH   9  10
ATOM     10  C   UNL d   1      13.812  12.092  -0.305  0.00  0.00     0.103 C 
ATOM     11  C   UNL d   1      13.118  11.783  -0.017  0.00  0.00     0.027 C 
ATOM     12  C   UNL d   1      14.516  11.816  -0.035  0.00  0.00     0.027 C 
ENDBRANCH   9  10
ENDBRANCH   3   9
ENDBRANCH   1   3
BRANCH   1  13
ATOM     13  N   UNL d   1      13.728  12.865  -2.448  0.00  0.00    -0.200 NA
ATOM     14  C   UNL d   1      13.576  12.501  -3.182  0.00  0.00     0.280 C 
ATOM     15  O   UNL d   1      13.965  11.802  -3.391  0.00  0.00    -0.265 OA
BRANCH  14  16
ATOM     16  C   UNL d   1      13.020  12.861  -3.706  0.00  0.00     0.062 C 
BRANCH  16  17
ATOM     17  C   UNL d   1      13.104  12.709  -4.542  0.00  0.00     0.005 A 
ATOM     18  C   UNL d   1      12.893  11.956  -4.832  0.00  0.00     0.000 A 
ATOM     19  C   UNL d   1      12.965  11.780  -5.644  0.00  0.00     0.000 A 
ATOM     20  C   UNL d   1      13.250  12.361  -6.154  0.00  0.00     0.000 A 
ATOM     21  C   UNL d   1      13.461  13.118  -5.851  0.00  0.00     0.000 A 
ATOM     22  C   UNL d   1      13.389  13.290  -5.051  0.00  0.00     0.000 A 
ENDBRANCH  16  17
ENDBRANCH  14  16
ENDBRANCH   1  13
TORSDOF 8
ENDMDL
