MODEL 1
REMARK VINA RESULT:      -2.6      0.000      0.000
REMARK  5 active torsions:
REMARK  status: ('A' for Active; 'I' for Inactive)
REMARK    1  A    between atoms: C_3  and  N_1 
REMARK    2  A    between atoms: C_6  and  C_3 
REMARK    3  A    between atoms: C_9  and  C_3 
REMARK    4  A    between atoms: N_5  and  C_6 
REMARK    5  A    between atoms: O_18  and  C_14 
ROOT
ATOM      1  C   UNL d   1      32.309  17.398 -24.335  0.00  0.00     0.106 C 
ENDROOT
BRANCH   1   2
ATOM      2  N   UNL d   1      32.609  18.015 -23.859  0.00  0.00    -0.228 N 
ATOM      3  N   UNL d   1      32.602  18.132 -23.044  0.00  0.00    -0.165 NA
ATOM      4  C   UNL d   1      32.989  18.854 -22.904  0.00  0.00     0.103 A 
ATOM      5  C   UNL d   1      33.124  19.212 -22.173  0.00  0.00     0.022 C 
ATOM      6  C   UNL d   1      33.223  19.160 -23.639  0.00  0.00     0.040 A 
ATOM      7  C   UNL d   1      32.992  18.652 -24.214  0.00  0.00     0.085 A 
ATOM      8  C   UNL d   1      33.127  18.765 -25.036  0.00  0.00     0.021 C 
ENDBRANCH   1   2
BRANCH   1   9
ATOM      9  C   UNL d   1      32.847  16.926 -24.768  0.00  0.00     0.167 C 
BRANCH   9  10
ATOM     10  N   UNL d   1      33.009  16.158 -24.534  0.00  0.00    -0.111 N 
ATOM     11  O   UNL d   1      33.241  16.004 -23.759  0.00  0.00    -0.532 OA
ATOM     12  O   UNL d   1      32.939  15.547 -25.074  0.00  0.00    -0.532 OA
ENDBRANCH   9  10
ENDBRANCH   1   9
BRANCH   1  13
ATOM     13  C   UNL d   1      31.486  17.262 -24.372  0.00  0.00     0.019 A 
ATOM     14  C   UNL d   1      31.085  16.847 -23.772  0.00  0.00     0.004 A 
ATOM     15  C   UNL d   1      30.281  16.738 -23.850  0.00  0.00     0.024 A 
ATOM     16  C   UNL d   1      29.886  17.039 -24.518  0.00  0.00     0.094 A 
ATOM     17  C   UNL d   1      30.284  17.435 -25.084  0.00  0.00     0.024 A 
ATOM     18  C   UNL d   1      31.095  17.555 -25.023  0.00  0.00     0.004 A 
BRANCH  16  19
ATOM     19  O   UNL d   1      29.062  16.923 -24.590  0.00  0.00    -0.328 OA
ATOM     20  C   UNL d   1      28.567  16.981 -23.919  0.00  0.00     0.181 C 
ENDBRANCH  16  19
ENDBRANCH   1  13
TORSDOF 5
ENDMDL
MODEL 2
REMARK VINA RESULT:      -0.4      1.936      4.109
REMARK  5 active torsions:
REMARK  status: ('A' for Active; 'I' for Inactive)
REMARK    1  A    between atoms: C_3  and  N_1 
REMARK    2  A    between atoms: C_6  and  C_3 
REMARK    3  A    between atoms: C_9  and  C_3 
REMARK    4  A    between atoms: N_5  and  C_6 
REMARK    5  A    between atoms: O_18  and  C_14 
ROOT
ATOM      1  C   UNL d   1      29.443  17.046 -24.378  0.00  0.00     0.106 C 
ENDROOT
BRANCH   1   2
ATOM      2  N   UNL d   1      29.148  16.497 -23.822  0.00  0.00    -0.228 N 
ATOM      3  N   UNL d   1      29.264  16.422 -23.011  0.00  0.00    -0.165 NA
ATOM      4  C   UNL d   1      28.821  15.764 -22.767  0.00  0.00     0.103 A 
ATOM      5  C   UNL d   1      28.757  15.463 -22.001  0.00  0.00     0.022 C 
ATOM      6  C   UNL d   1      28.443  15.453 -23.438  0.00  0.00     0.040 A 
ATOM      7  C   UNL d   1      28.643  15.898 -24.074  0.00  0.00     0.085 A 
ATOM      8  C   UNL d   1      28.372  15.761 -24.858  0.00  0.00     0.021 C 
ENDBRANCH   1   2
BRANCH   1   9
ATOM      9  C   UNL d   1      28.902  17.526 -24.797  0.00  0.00     0.167 C 
BRANCH   9  10
ATOM     10  N   UNL d   1      28.766  18.300 -24.567  0.00  0.00    -0.111 N 
ATOM     11  O   UNL d   1      29.033  18.922 -25.038  0.00  0.00    -0.532 OA
ATOM     12  O   UNL d   1      28.365  18.452 -23.871  0.00  0.00    -0.532 OA
ENDBRANCH   9  10
ENDBRANCH   1   9
BRANCH   1  13
ATOM     13  C   UNL d   1      30.266  17.109 -24.506  0.00  0.00     0.019 A 
ATOM     14  C   UNL d   1      30.674  16.569 -24.990  0.00  0.00     0.004 A 
ATOM     15  C   UNL d   1      31.477  16.668 -25.087  0.00  0.00     0.024 A 
ATOM     16  C   UNL d   1      31.865  17.299 -24.705  0.00  0.00     0.094 A 
ATOM     17  C   UNL d   1      31.460  17.808 -24.244  0.00  0.00     0.024 A 
ATOM     18  C   UNL d   1      30.649  17.724 -24.135  0.00  0.00     0.004 A 
BRANCH  16  19
ATOM     19  O   UNL d   1      32.688  17.393 -24.810  0.00  0.00    -0.328 OA
ATOM     20  C   UNL d   1      33.056  18.121 -24.631  0.00  0.00     0.181 C 
ENDBRANCH  16  19
ENDBRANCH   1  13
TORSDOF 5
ENDMDL
MODEL 3
REMARK VINA RESULT:       0.1      1.203      1.681
REMARK  5 active torsions:
REMARK  status: ('A' for Active; 'I' for Inactive)
REMARK    1  A    between atoms: C_3  and  N_1 
REMARK    2  A    between atoms: C_6  and  C_3 
REMARK    3  A    between atoms: C_9  and  C_3 
REMARK    4  A    between atoms: N_5  and  C_6 
REMARK    5  A    between atoms: O_18  and  C_14 
ROOT
ATOM      1  C   UNL d   1      31.802  16.271 -23.733  0.00  0.00     0.106 C 
ENDROOT
BRANCH   1   2
ATOM      2  N   UNL d   1      32.250  16.968 -23.834  0.00  0.00    -0.228 N 
ATOM      3  N   UNL d   1      32.217  17.701 -23.461  0.00  0.00    -0.165 NA
ATOM      4  C   UNL d   1      32.809  18.171 -23.804  0.00  0.00     0.103 A 
ATOM      5  C   UNL d   1      32.996  18.952 -23.616  0.00  0.00     0.022 C 
ATOM      6  C   UNL d   1      33.191  17.712 -24.380  0.00  0.00     0.040 A 
ATOM      7  C   UNL d   1      32.852  16.985 -24.397  0.00  0.00     0.085 A 
ATOM      8  C   UNL d   1      33.083  16.360 -24.908  0.00  0.00     0.021 C 
ENDBRANCH   1   2
BRANCH   1   9
ATOM      9  C   UNL d   1      32.163  15.608 -23.374  0.00  0.00     0.167 C 
BRANCH   9  10
ATOM     10  N   UNL d   1      32.222  15.557 -22.558  0.00  0.00    -0.111 N 
ATOM     11  O   UNL d   1      31.541  15.482 -22.100  0.00  0.00    -0.532 OA
ATOM     12  O   UNL d   1      32.959  15.581 -22.203  0.00  0.00    -0.532 OA
ENDBRANCH   9  10
ENDBRANCH   1   9
BRANCH   1  13
ATOM     13  C   UNL d   1      31.008  16.246 -23.990  0.00  0.00     0.019 A 
ATOM     14  C   UNL d   1      30.773  15.777 -24.636  0.00  0.00     0.004 A 
ATOM     15  C   UNL d   1      29.987  15.783 -24.852  0.00  0.00     0.024 A 
ATOM     16  C   UNL d   1      29.445  16.251 -24.426  0.00  0.00     0.094 A 
ATOM     17  C   UNL d   1      29.685  16.695 -23.809  0.00  0.00     0.024 A 
ATOM     18  C   UNL d   1      30.474  16.702 -23.577  0.00  0.00     0.004 A 
BRANCH  16  19
ATOM     19  O   UNL d   1      28.641  16.251 -24.654  0.00  0.00    -0.328 OA
ATOM     20  C   UNL d   1      28.147  15.608 -24.457  0.00  0.00     0.181 C 
ENDBRANCH  16  19
ENDBRANCH   1  13
TORSDOF 5
ENDMDL
