MODEL 1
REMARK VINA RESULT:      -3.8      0.000      0.000
REMARK  6 active torsions:
REMARK  status: ('A' for Active; 'I' for Inactive)
REMARK    1  A    between atoms: C_11  and  C_3 
REMARK    2  A    between atoms: C_12  and  C_4 
REMARK    3  A    between atoms: C_13  and  C_7 
REMARK    4  A    between atoms: N_15  and  C_11 
REMARK    5  A    between atoms: N_14  and  C_12 
REMARK    6  A    between atoms: O_24  and  C_21 
ROOT
ATOM      1  C   UNL d   1     -39.503  14.487  19.033  0.00  0.00     0.101 A 
ATOM      2  C   UNL d   1     -38.870  14.586  19.553  0.00  0.00     0.111 A 
ATOM      3  C   UNL d   1     -39.009  14.782  20.343  0.00  0.00     0.080 A 
ATOM      4  C   UNL d   1     -40.412  14.779  20.083  0.00  0.00     0.096 A 
ATOM      5  C   UNL d   1     -39.355  14.289  18.239  0.00  0.00     0.203 A 
ATOM      6  C   UNL d   1     -40.275  14.585  19.303  0.00  0.00     0.205 A 
ATOM      7  C   UNL d   1     -38.580  14.192  17.972  0.00  0.00     0.064 A 
ATOM      8  C   UNL d   1     -39.778  14.878  20.604  0.00  0.00     0.203 A 
ATOM      9  O   UNL d   1     -38.086  14.490  19.293  0.00  0.00    -0.305 OA
ATOM     10  C   UNL d   1     -37.940  14.292  18.498  0.00  0.00     0.126 A 
ATOM     11  O   UNL d   1     -39.982  14.191  17.724  0.00  0.00    -0.286 OA
ATOM     12  O   UNL d   1     -40.908  14.486  18.782  0.00  0.00    -0.286 OA
ATOM     13  O   UNL d   1     -39.923  15.076  21.400  0.00  0.00    -0.286 OA
ENDROOT
BRANCH   7  14
ATOM     14  C   UNL d   1     -38.440  13.995  17.182  0.00  0.00     0.005 A 
ATOM     15  C   UNL d   1     -38.496  14.584  16.602  0.00  0.00     0.002 A 
ATOM     16  C   UNL d   1     -38.357  14.389  15.813  0.00  0.00     0.024 A 
ATOM     17  C   UNL d   1     -38.163  13.613  15.602  0.00  0.00     0.094 A 
ATOM     18  C   UNL d   1     -38.110  13.032  16.186  0.00  0.00     0.024 A 
ATOM     19  C   UNL d   1     -38.247  13.219  16.977  0.00  0.00     0.002 A 
BRANCH  17  20
ATOM     20  O   UNL d   1     -38.024  13.417  14.813  0.00  0.00    -0.328 OA
ATOM     21  C   UNL d   1     -37.942  14.018  14.251  0.00  0.00     0.181 C 
ENDBRANCH  17  20
ENDBRANCH   7  14
BRANCH   3  22
ATOM     22  C   UNL d   1     -38.370  14.879  20.857  0.00  0.00     0.085 C 
BRANCH  22  23
ATOM     23  N   UNL d   1     -38.233  14.308  21.448  0.00  0.00    -0.302 N 
ATOM     24  C   UNL d   1     -38.232  14.532  22.244  0.00  0.00     0.080 A 
ATOM     25  C   UNL d   1     -38.097  13.967  22.823  0.00  0.00     0.019 A 
ATOM     26  C   UNL d   1     -37.963  13.174  22.612  0.00  0.00     0.003 A 
ATOM     27  C   UNL d   1     -37.965  12.956  21.820  0.00  0.00     0.019 A 
ATOM     28  C   UNL d   1     -38.100  13.518  21.231  0.00  0.00     0.080 A 
ENDBRANCH  22  23
ENDBRANCH   3  22
BRANCH   4  29
ATOM     29  C   UNL d   1     -41.186  14.876  20.350  0.00  0.00     0.087 C 
BRANCH  29  30
ATOM     30  N   UNL d   1     -41.604  14.231  20.654  0.00  0.00    -0.302 N 
ATOM     31  C   UNL d   1     -41.603  14.083  21.466  0.00  0.00     0.080 A 
ATOM     32  C   UNL d   1     -42.020  13.438  21.770  0.00  0.00     0.019 A 
ATOM     33  C   UNL d   1     -42.441  12.939  21.259  0.00  0.00     0.003 A 
ATOM     34  C   UNL d   1     -42.442  13.088  20.447  0.00  0.00     0.019 A 
ATOM     35  C   UNL d   1     -42.024  13.732  20.143  0.00  0.00     0.080 A 
ENDBRANCH  29  30
ENDBRANCH   4  29
TORSDOF 6
ENDMDL
MODEL 2
REMARK VINA RESULT:      -3.5      5.985      8.963
REMARK  6 active torsions:
REMARK  status: ('A' for Active; 'I' for Inactive)
REMARK    1  A    between atoms: C_11  and  C_3 
REMARK    2  A    between atoms: C_12  and  C_4 
REMARK    3  A    between atoms: C_13  and  C_7 
REMARK    4  A    between atoms: N_15  and  C_11 
REMARK    5  A    between atoms: N_14  and  C_12 
REMARK    6  A    between atoms: O_24  and  C_21 
ROOT
ATOM      1  C   UNL d   1     -46.625  13.487  22.802  0.00  0.00     0.101 A 
ATOM      2  C   UNL d   1     -47.021  12.805  23.049  0.00  0.00     0.111 A 
ATOM      3  C   UNL d   1     -47.788  12.856  23.347  0.00  0.00     0.080 A 
ATOM      4  C   UNL d   1     -47.757  14.269  23.151  0.00  0.00     0.096 A 
ATOM      5  C   UNL d   1     -45.852  13.427  22.502  0.00  0.00     0.203 A 
ATOM      6  C   UNL d   1     -46.998  14.219  22.855  0.00  0.00     0.205 A 
ATOM      7  C   UNL d   1     -45.481  12.692  22.451  0.00  0.00     0.064 A 
ATOM      8  C   UNL d   1     -48.152  13.587  23.397  0.00  0.00     0.203 A 
ATOM      9  O   UNL d   1     -46.655  12.060  23.000  0.00  0.00    -0.305 OA
ATOM     10  C   UNL d   1     -45.881  12.002  22.700  0.00  0.00     0.126 A 
ATOM     11  O   UNL d   1     -45.461  14.103  22.258  0.00  0.00    -0.286 OA
ATOM     12  O   UNL d   1     -46.603  14.901  22.609  0.00  0.00    -0.286 OA
ATOM     13  O   UNL d   1     -48.927  13.643  23.698  0.00  0.00    -0.286 OA
ENDROOT
BRANCH   7  14
ATOM     14  C   UNL d   1     -44.713  12.640  22.152  0.00  0.00     0.005 A 
ATOM     15  C   UNL d   1     -44.513  13.070  21.472  0.00  0.00     0.002 A 
ATOM     16  C   UNL d   1     -43.746  13.019  21.173  0.00  0.00     0.024 A 
ATOM     17  C   UNL d   1     -43.182  12.544  21.547  0.00  0.00     0.094 A 
ATOM     18  C   UNL d   1     -43.389  12.119  22.223  0.00  0.00     0.024 A 
ATOM     19  C   UNL d   1     -44.153  12.164  22.529  0.00  0.00     0.002 A 
BRANCH  17  20
ATOM     20  O   UNL d   1     -42.415  12.493  21.248  0.00  0.00    -0.328 OA
ATOM     21  C   UNL d   1     -41.976  13.183  21.128  0.00  0.00     0.181 C 
ENDBRANCH  17  20
ENDBRANCH   7  14
BRANCH   3  22
ATOM     22  C   UNL d   1     -48.176  12.169  23.592  0.00  0.00     0.085 C 
BRANCH  22  23
ATOM     23  N   UNL d   1     -48.894  11.957  23.226  0.00  0.00    -0.302 N 
ATOM     24  C   UNL d   1     -48.903  11.754  22.424  0.00  0.00     0.080 A 
ATOM     25  C   UNL d   1     -49.612  11.545  22.067  0.00  0.00     0.019 A 
ATOM     26  C   UNL d   1     -50.316  11.537  22.507  0.00  0.00     0.003 A 
ATOM     27  C   UNL d   1     -50.303  11.739  23.304  0.00  0.00     0.019 A 
ATOM     28  C   UNL d   1     -49.595  11.950  23.670  0.00  0.00     0.080 A 
ENDBRANCH  22  23
ENDBRANCH   3  22
BRANCH   4  29
ATOM     29  C   UNL d   1     -48.128  15.004  23.202  0.00  0.00     0.087 C 
BRANCH  29  30
ATOM     30  N   UNL d   1     -48.802  15.161  22.751  0.00  0.00    -0.302 N 
ATOM     31  C   UNL d   1     -49.509  15.371  23.122  0.00  0.00     0.080 A 
ATOM     32  C   UNL d   1     -50.183  15.528  22.671  0.00  0.00     0.019 A 
ATOM     33  C   UNL d   1     -50.150  15.474  21.845  0.00  0.00     0.003 A 
ATOM     34  C   UNL d   1     -49.443  15.263  21.474  0.00  0.00     0.019 A 
ATOM     35  C   UNL d   1     -48.769  15.107  21.925  0.00  0.00     0.080 A 
ENDBRANCH  29  30
ENDBRANCH   4  29
TORSDOF 6
ENDMDL
MODEL 3
REMARK VINA RESULT:      -3.1      0.725      2.815
REMARK  6 active torsions:
REMARK  status: ('A' for Active; 'I' for Inactive)
REMARK    1  A    between atoms: C_11  and  C_3 
REMARK    2  A    between atoms: C_12  and  C_4 
REMARK    3  A    between atoms: C_13  and  C_7 
REMARK    4  A    between atoms: N_15  and  C_11 
REMARK    5  A    between atoms: N_14  and  C_12 
REMARK    6  A    between atoms: O_24  and  C_21 
ROOT
ATOM      1  C   UNL d   1     -39.230  15.091  19.347  0.00  0.00     0.101 A 
ATOM      2  C   UNL d   1     -40.053  15.121  19.412  0.00  0.00     0.111 A 
ATOM      3  C   UNL d   1     -40.406  15.221  20.151  0.00  0.00     0.080 A 
ATOM      4  C   UNL d   1     -39.113  15.261  20.751  0.00  0.00     0.096 A 
ATOM      5  C   UNL d   1     -38.881  14.990  18.599  0.00  0.00     0.203 A 
ATOM      6  C   UNL d   1     -38.762  15.162  20.021  0.00  0.00     0.205 A 
ATOM      7  C   UNL d   1     -39.352  14.919  17.926  0.00  0.00     0.064 A 
ATOM      8  C   UNL d   1     -39.936  15.291  20.816  0.00  0.00     0.203 A 
ATOM      9  O   UNL d   1     -40.536  15.050  18.739  0.00  0.00    -0.305 OA
ATOM     10  C   UNL d   1     -40.184  14.949  17.991  0.00  0.00     0.126 A 
ATOM     11  O   UNL d   1     -38.066  14.960  18.535  0.00  0.00    -0.286 OA
ATOM     12  O   UNL d   1     -37.939  15.132  19.956  0.00  0.00    -0.286 OA
ATOM     13  O   UNL d   1     -40.288  15.392  21.564  0.00  0.00    -0.286 OA
ENDROOT
BRANCH   7  14
ATOM     14  C   UNL d   1     -38.999  14.819  17.187  0.00  0.00     0.005 A 
ATOM     15  C   UNL d   1     -38.848  14.052  16.910  0.00  0.00     0.002 A 
ATOM     16  C   UNL d   1     -38.495  13.951  16.172  0.00  0.00     0.024 A 
ATOM     17  C   UNL d   1     -38.293  14.607  15.711  0.00  0.00     0.094 A 
ATOM     18  C   UNL d   1     -38.446  15.367  15.993  0.00  0.00     0.024 A 
ATOM     19  C   UNL d   1     -38.799  15.477  16.730  0.00  0.00     0.002 A 
BRANCH  17  20
ATOM     20  O   UNL d   1     -37.940  14.506  14.973  0.00  0.00    -0.328 OA
ATOM     21  C   UNL d   1     -37.968  13.767  14.603  0.00  0.00     0.181 C 
ENDBRANCH  17  20
ENDBRANCH   7  14
BRANCH   3  22
ATOM     22  C   UNL d   1     -41.230  15.250  20.207  0.00  0.00     0.085 C 
BRANCH  22  23
ATOM     23  N   UNL d   1     -41.638  14.597  20.527  0.00  0.00    -0.302 N 
ATOM     24  C   UNL d   1     -42.164  14.709  21.155  0.00  0.00     0.080 A 
ATOM     25  C   UNL d   1     -42.564  14.065  21.468  0.00  0.00     0.019 A 
ATOM     26  C   UNL d   1     -42.443  13.305  21.155  0.00  0.00     0.003 A 
ATOM     27  C   UNL d   1     -41.919  13.197  20.530  0.00  0.00     0.019 A 
ATOM     28  C   UNL d   1     -41.513  13.841  20.211  0.00  0.00     0.080 A 
ENDBRANCH  22  23
ENDBRANCH   3  22
BRANCH   4  29
ATOM     29  C   UNL d   1     -38.641  15.332  21.425  0.00  0.00     0.087 C 
BRANCH  29  30
ATOM     30  N   UNL d   1     -38.507  14.675  21.907  0.00  0.00    -0.302 N 
ATOM     31  C   UNL d   1     -38.238  13.967  21.577  0.00  0.00     0.080 A 
ATOM     32  C   UNL d   1     -38.103  13.310  22.059  0.00  0.00     0.019 A 
ATOM     33  C   UNL d   1     -38.238  13.361  22.875  0.00  0.00     0.003 A 
ATOM     34  C   UNL d   1     -38.506  14.069  23.205  0.00  0.00     0.019 A 
ATOM     35  C   UNL d   1     -38.641  14.726  22.723  0.00  0.00     0.080 A 
ENDBRANCH  29  30
ENDBRANCH   4  29
TORSDOF 6
ENDMDL
MODEL 4
REMARK VINA RESULT:      -2.6      1.532      4.761
REMARK  6 active torsions:
REMARK  status: ('A' for Active; 'I' for Inactive)
REMARK    1  A    between atoms: C_11  and  C_3 
REMARK    2  A    between atoms: C_12  and  C_4 
REMARK    3  A    between atoms: C_13  and  C_7 
REMARK    4  A    between atoms: N_15  and  C_11 
REMARK    5  A    between atoms: N_14  and  C_12 
REMARK    6  A    between atoms: O_24  and  C_21 
ROOT
ATOM      1  C   UNL d   1     -41.082  14.324  19.788  0.00  0.00     0.101 A 
ATOM      2  C   UNL d   1     -40.715  14.883  20.274  0.00  0.00     0.111 A 
ATOM      3  C   UNL d   1     -40.118  15.366  19.971  0.00  0.00     0.080 A 
ATOM      4  C   UNL d   1     -40.261  14.729  18.703  0.00  0.00     0.096 A 
ATOM      5  C   UNL d   1     -41.682  13.841  20.099  0.00  0.00     0.203 A 
ATOM      6  C   UNL d   1     -40.851  14.251  19.001  0.00  0.00     0.205 A 
ATOM      7  C   UNL d   1     -41.911  13.918  20.889  0.00  0.00     0.064 A 
ATOM      8  C   UNL d   1     -39.894  15.287  19.189  0.00  0.00     0.203 A 
ATOM      9  O   UNL d   1     -40.939  14.967  21.070  0.00  0.00    -0.305 OA
ATOM     10  C   UNL d   1     -41.540  14.482  21.380  0.00  0.00     0.126 A 
ATOM     11  O   UNL d   1     -42.046  13.288  19.618  0.00  0.00    -0.286 OA
ATOM     12  O   UNL d   1     -41.218  13.693  18.515  0.00  0.00    -0.286 OA
ATOM     13  O   UNL d   1     -39.292  15.773  18.880  0.00  0.00    -0.286 OA
ENDROOT
BRANCH   7  14
ATOM     14  C   UNL d   1     -42.508  13.434  21.191  0.00  0.00     0.005 A 
ATOM     15  C   UNL d   1     -43.295  13.691  21.155  0.00  0.00     0.002 A 
ATOM     16  C   UNL d   1     -43.892  13.209  21.457  0.00  0.00     0.024 A 
ATOM     17  C   UNL d   1     -43.708  12.476  21.792  0.00  0.00     0.094 A 
ATOM     18  C   UNL d   1     -42.922  12.227  21.824  0.00  0.00     0.024 A 
ATOM     19  C   UNL d   1     -42.320  12.703  21.525  0.00  0.00     0.002 A 
BRANCH  17  20
ATOM     20  O   UNL d   1     -44.305  11.993  22.094  0.00  0.00    -0.328 OA
ATOM     21  C   UNL d   1     -44.154  11.521  22.756  0.00  0.00     0.181 C 
ENDBRANCH  17  20
ENDBRANCH   7  14
BRANCH   3  22
ATOM     22  C   UNL d   1     -39.757  15.922  20.464  0.00  0.00     0.085 C 
BRANCH  22  23
ATOM     23  N   UNL d   1     -39.146  15.676  20.974  0.00  0.00    -0.302 N 
ATOM     24  C   UNL d   1     -38.541  15.190  20.686  0.00  0.00     0.080 A 
ATOM     25  C   UNL d   1     -37.940  14.950  21.191  0.00  0.00     0.019 A 
ATOM     26  C   UNL d   1     -37.940  15.192  21.986  0.00  0.00     0.003 A 
ATOM     27  C   UNL d   1     -38.542  15.674  22.268  0.00  0.00     0.019 A 
ATOM     28  C   UNL d   1     -39.150  15.920  21.766  0.00  0.00     0.080 A 
ENDBRANCH  22  23
ENDBRANCH   3  22
BRANCH   4  29
ATOM     29  C   UNL d   1     -40.032  14.653  17.914  0.00  0.00     0.087 C 
BRANCH  29  30
ATOM     30  N   UNL d   1     -39.380  14.187  17.715  0.00  0.00    -0.302 N 
ATOM     31  C   UNL d   1     -39.430  13.364  17.755  0.00  0.00     0.080 A 
ATOM     32  C   UNL d   1     -38.778  12.899  17.556  0.00  0.00     0.019 A 
ATOM     33  C   UNL d   1     -38.071  13.258  17.316  0.00  0.00     0.003 A 
ATOM     34  C   UNL d   1     -38.020  14.081  17.276  0.00  0.00     0.019 A 
ATOM     35  C   UNL d   1     -38.672  14.546  17.475  0.00  0.00     0.080 A 
ENDBRANCH  29  30
ENDBRANCH   4  29
TORSDOF 6
ENDMDL
