MODEL 1
REMARK VINA RESULT:      11.7      0.000      0.000
REMARK  3 active torsions:
REMARK  status: ('A' for Active; 'I' for Inactive)
REMARK    1  A    between atoms: N_2  and  C_1 
REMARK       I    between atoms: C_4  and  N_2 
REMARK    2  A    between atoms: C_8  and  C_4 
REMARK    3  A    between atoms: C_10  and  C_5 
ROOT
ATOM      1  C   UNL d   1      45.755 -15.928  44.041  0.00  0.00     0.197 A 
ATOM      2  N   UNL d   1      45.853 -15.197  43.700  0.00  0.00    -0.221 NA
ATOM      3  C   UNL d   1      45.563 -14.641  44.288  0.00  0.00     0.090 A 
ATOM      4  S   UNL d   1      45.425 -15.868  44.800  0.00  0.00    -0.046 SA
ATOM      5  C   UNL d   1      45.306 -15.082  44.954  0.00  0.00     0.058 A 
ENDROOT
BRANCH   1   6
ATOM      6  N   UNL d   1      45.963 -16.660  43.667  0.00  0.00    -0.183 NA
ATOM      7  C   UNL d   1      45.888 -17.372  44.113  0.00  0.00     0.281 C 
ATOM      8  O   UNL d   1      45.616 -17.353  44.897  0.00  0.00    -0.265 OA
BRANCH   7   9
ATOM      9  C   UNL d   1      46.082 -18.102  43.782  0.00  0.00     0.058 A 
ATOM     10  C   UNL d   1      46.002 -18.771  44.244  0.00  0.00     0.005 A 
ATOM     11  C   UNL d   1      46.197 -19.517  43.915  0.00  0.00     0.000 A 
ATOM     12  C   UNL d   1      46.465 -19.590  43.143  0.00  0.00     0.000 A 
ATOM     13  C   UNL d   1      46.544 -18.894  42.676  0.00  0.00     0.000 A 
ATOM     14  C   UNL d   1      46.647 -20.255  42.827  0.00  0.00     0.000 C 
ATOM     15  C   UNL d   1      46.350 -18.152  43.003  0.00  0.00     0.005 A 
ENDBRANCH   7   9
ENDBRANCH   1   6
BRANCH   3  16
ATOM     16  C   UNL d   1      45.535 -13.824  44.228  0.00  0.00     0.018 A 
ATOM     17  C   UNL d   1      45.902 -13.372  44.795  0.00  0.00     0.002 A 
ATOM     18  C   UNL d   1      45.882 -12.537  44.749  0.00  0.00     0.000 A 
ATOM     19  C   UNL d   1      45.491 -12.165  44.131  0.00  0.00     0.000 A 
ATOM     20  C   UNL d   1      45.112 -12.621  43.545  0.00  0.00     0.000 A 
ATOM     21  C   UNL d   1      45.141 -13.454  43.605  0.00  0.00     0.002 A 
ENDBRANCH   3  16
TORSDOF 3
ENDMDL
