MODEL 1
REMARK VINA RESULT:      10.8      0.000      0.000
REMARK  1 active torsions:
REMARK  status: ('A' for Active; 'I' for Inactive)
REMARK    1  A    between atoms: C_6  and  C_1 
ROOT
ATOM      1  C   UNL d   1      13.760  12.429  -2.340  0.00  0.00     0.162 A 
ATOM      2  N   UNL d   1      13.658  13.128  -2.747  0.00  0.00    -0.225 NA
ATOM      3  N   UNL d   1      13.532  11.809  -2.831  0.00  0.00    -0.225 NA
ATOM      4  C   UNL d   1      13.363  12.941  -3.502  0.00  0.00     0.101 A 
ATOM      5  C   UNL d   1      13.285  12.127  -3.554  0.00  0.00     0.101 A 
ATOM      6  C   UNL d   1      13.161  13.425  -4.136  0.00  0.00     0.021 A 
ATOM      7  C   UNL d   1      13.004  11.779  -4.242  0.00  0.00     0.021 A 
ATOM      8  C   UNL d   1      12.799  12.258  -4.881  0.00  0.00     0.002 A 
ATOM      9  C   UNL d   1      12.879  13.087  -4.828  0.00  0.00     0.002 A 
ENDROOT
BRANCH   1  10
ATOM     10  C   UNL d   1      14.043  12.352  -1.566  0.00  0.00     0.037 A 
ATOM     11  C   UNL d   1      14.718  12.764  -1.321  0.00  0.00     0.024 A 
ATOM     12  C   UNL d   1      15.000  12.688  -0.551  0.00  0.00     0.103 A 
ATOM     13  N   UNL d   1      15.682  13.110  -0.318  0.00  0.00    -0.148 N 
ATOM     14  C   UNL d   1      14.614  12.202  -0.017  0.00  0.00     0.021 A 
ATOM     15  C   UNL d   1      13.932  11.780  -0.250  0.00  0.00     0.002 A 
ATOM     16  C   UNL d   1      13.645  11.857  -1.033  0.00  0.00     0.003 A 
ENDBRANCH   1  10
TORSDOF 1
ENDMDL
