MODEL 1
REMARK VINA RESULT:      -5.1      0.000      0.000
REMARK  5 active torsions:
REMARK  status: ('A' for Active; 'I' for Inactive)
REMARK    1  A    between atoms: C_6  and  C_3 
REMARK    2  A    between atoms: C_7  and  C_6 
REMARK    3  A    between atoms: C_8  and  C_7 
REMARK    4  A    between atoms: O_16  and  C_10 
REMARK    5  A    between atoms: O_17  and  C_12 
ROOT
ATOM      1  C   UNL d   1      57.047  -0.681  31.664  0.00  0.00     0.198 C 
ATOM      2  O   UNL d   1      56.995  -1.495  31.521  0.00  0.00    -0.286 OA
ENDROOT
BRANCH   1   3
ATOM      3  C   UNL d   1      57.509  -0.204  31.165  0.00  0.00     0.067 C 
BRANCH   3   4
ATOM      4  C   UNL d   1      57.922  -0.546  30.541  0.00  0.00     0.107 A 
ATOM      5  O   UNL d   1      57.763  -1.282  30.183  0.00  0.00    -0.273 OA
ATOM      6  C   UNL d   1      58.311  -1.401  29.586  0.00  0.00     0.300 A 
ATOM      7  C   UNL d   1      58.815  -0.743  29.566  0.00  0.00     0.065 A 
ATOM      8  O   UNL d   1      58.358  -2.060  29.088  0.00  0.00    -0.259 OA
ATOM      9  C   UNL d   1      58.573  -0.218  30.156  0.00  0.00     0.028 A 
ATOM     10  C   UNL d   1      59.461  -0.560  29.087  0.00  0.00     0.005 A 
ATOM     11  C   UNL d   1      58.978   0.499  30.269  0.00  0.00     0.002 A 
ATOM     12  C   UNL d   1      59.624   0.682  29.790  0.00  0.00     0.000 A 
ATOM     13  C   UNL d   1      59.864   0.149  29.196  0.00  0.00     0.000 A 
ENDBRANCH   3   4
ENDBRANCH   1   3
BRANCH   1  14
ATOM     14  C   UNL d   1      56.645  -0.342  32.296  0.00  0.00     0.041 A 
ATOM     15  C   UNL d   1      57.072  -0.010  32.916  0.00  0.00     0.029 A 
ATOM     16  C   UNL d   1      56.679   0.333  33.555  0.00  0.00     0.116 A 
ATOM     17  C   UNL d   1      55.853   0.342  33.571  0.00  0.00     0.116 A 
ATOM     18  C   UNL d   1      55.426   0.007  32.945  0.00  0.00     0.026 A 
ATOM     19  C   UNL d   1      55.827  -0.333  32.312  0.00  0.00     0.005 A 
BRANCH  16  20
ATOM     20  O   UNL d   1      57.106   0.665  34.175  0.00  0.00    -0.326 OA
ATOM     21  C   UNL d   1      57.934   0.679  34.145  0.00  0.00     0.181 C 
ENDBRANCH  16  20
BRANCH  17  22
ATOM     22  O   UNL d   1      55.451   0.682  34.204  0.00  0.00    -0.326 OA
ATOM     23  C   UNL d   1      54.644   0.537  34.315  0.00  0.00     0.181 C 
ENDBRANCH  17  22
ENDBRANCH   1  14
TORSDOF 5
ENDMDL
MODEL 2
REMARK VINA RESULT:      -5.1      1.252      4.585
REMARK  5 active torsions:
REMARK  status: ('A' for Active; 'I' for Inactive)
REMARK    1  A    between atoms: C_6  and  C_3 
REMARK    2  A    between atoms: C_7  and  C_6 
REMARK    3  A    between atoms: C_8  and  C_7 
REMARK    4  A    between atoms: O_16  and  C_10 
REMARK    5  A    between atoms: O_17  and  C_12 
ROOT
ATOM      1  C   UNL d   1      57.506   0.436  30.813  0.00  0.00     0.198 C 
ATOM      2  O   UNL d   1      56.838   0.634  30.365  0.00  0.00    -0.286 OA
ENDROOT
BRANCH   1   3
ATOM      3  C   UNL d   1      57.448   0.391  31.640  0.00  0.00     0.067 C 
BRANCH   3   4
ATOM      4  C   UNL d   1      56.917  -0.134  31.985  0.00  0.00     0.107 A 
ATOM      5  O   UNL d   1      56.747  -0.909  31.727  0.00  0.00    -0.273 OA
ATOM      6  C   UNL d   1      56.187  -1.230  32.233  0.00  0.00     0.300 A 
ATOM      7  C   UNL d   1      56.005  -0.661  32.808  0.00  0.00     0.065 A 
ATOM      8  O   UNL d   1      55.859  -1.988  32.183  0.00  0.00    -0.259 OA
ATOM      9  C   UNL d   1      56.456   0.012  32.652  0.00  0.00     0.028 A 
ATOM     10  C   UNL d   1      55.487  -0.675  33.449  0.00  0.00     0.005 A 
ATOM     11  C   UNL d   1      56.390   0.681  33.142  0.00  0.00     0.002 A 
ATOM     12  C   UNL d   1      55.872   0.667  33.783  0.00  0.00     0.000 A 
ATOM     13  C   UNL d   1      55.419  -0.014  33.936  0.00  0.00     0.000 A 
ENDBRANCH   3   4
ENDBRANCH   1   3
BRANCH   1  14
ATOM     14  C   UNL d   1      58.225   0.283  30.445  0.00  0.00     0.041 A 
ATOM     15  C   UNL d   1      58.245  -0.199  29.779  0.00  0.00     0.029 A 
ATOM     16  C   UNL d   1      58.961  -0.359  29.402  0.00  0.00     0.116 A 
ATOM     17  C   UNL d   1      59.661  -0.032  29.696  0.00  0.00     0.116 A 
ATOM     18  C   UNL d   1      59.637   0.454  30.368  0.00  0.00     0.026 A 
ATOM     19  C   UNL d   1      58.918   0.607  30.737  0.00  0.00     0.005 A 
BRANCH  16  20
ATOM     20  O   UNL d   1      58.981  -0.841  28.736  0.00  0.00    -0.326 OA
ATOM     21  C   UNL d   1      58.519  -1.529  28.710  0.00  0.00     0.181 C 
ENDBRANCH  16  20
BRANCH  17  22
ATOM     22  O   UNL d   1      60.380  -0.185  29.328  0.00  0.00    -0.326 OA
ATOM     23  C   UNL d   1      61.087  -0.152  29.757  0.00  0.00     0.181 C 
ENDBRANCH  17  22
ENDBRANCH   1  14
TORSDOF 5
ENDMDL
MODEL 3
REMARK VINA RESULT:      -4.5      1.226      1.868
REMARK  5 active torsions:
REMARK  status: ('A' for Active; 'I' for Inactive)
REMARK    1  A    between atoms: C_6  and  C_3 
REMARK    2  A    between atoms: C_7  and  C_6 
REMARK    3  A    between atoms: C_8  and  C_7 
REMARK    4  A    between atoms: O_16  and  C_10 
REMARK    5  A    between atoms: O_17  and  C_12 
ROOT
ATOM      1  C   UNL d   1      57.702  -0.372  30.647  0.00  0.00     0.198 C 
ATOM      2  O   UNL d   1      57.896   0.367  30.327  0.00  0.00    -0.286 OA
ENDROOT
BRANCH   1   3
ATOM      3  C   UNL d   1      57.917  -1.064  30.241  0.00  0.00     0.067 C 
BRANCH   3   4
ATOM      4  C   UNL d   1      58.567  -1.059  29.738  0.00  0.00     0.107 A 
ATOM      5  O   UNL d   1      59.024  -0.394  29.524  0.00  0.00    -0.273 OA
ATOM      6  C   UNL d   1      59.615  -0.643  29.014  0.00  0.00     0.300 A 
ATOM      7  C   UNL d   1      59.532  -1.461  28.906  0.00  0.00     0.065 A 
ATOM      8  O   UNL d   1      60.194  -0.165  28.665  0.00  0.00    -0.259 OA
ATOM      9  C   UNL d   1      58.886  -1.713  29.353  0.00  0.00     0.028 A 
ATOM     10  C   UNL d   1      59.964  -2.002  28.457  0.00  0.00     0.005 A 
ATOM     11  C   UNL d   1      58.667  -2.516  29.354  0.00  0.00     0.002 A 
ATOM     12  C   UNL d   1      59.099  -3.056  28.906  0.00  0.00     0.000 A 
ATOM     13  C   UNL d   1      59.750  -2.796  28.456  0.00  0.00     0.000 A 
ENDBRANCH   3   4
ENDBRANCH   1   3
BRANCH   1  14
ATOM     14  C   UNL d   1      57.299  -0.425  31.361  0.00  0.00     0.041 A 
ATOM     15  C   UNL d   1      57.448   0.126  31.953  0.00  0.00     0.029 A 
ATOM     16  C   UNL d   1      57.050   0.082  32.673  0.00  0.00     0.116 A 
ATOM     17  C   UNL d   1      56.497  -0.520  32.800  0.00  0.00     0.116 A 
ATOM     18  C   UNL d   1      56.349  -1.074  32.201  0.00  0.00     0.026 A 
ATOM     19  C   UNL d   1      56.752  -1.022  31.486  0.00  0.00     0.005 A 
BRANCH  16  20
ATOM     20  O   UNL d   1      57.199   0.634  33.265  0.00  0.00    -0.326 OA
ATOM     21  C   UNL d   1      57.954   0.681  33.605  0.00  0.00     0.181 C 
ENDBRANCH  16  20
BRANCH  17  22
ATOM     22  O   UNL d   1      56.094  -0.573  33.515  0.00  0.00    -0.326 OA
ATOM     23  C   UNL d   1      55.277  -0.704  33.528  0.00  0.00     0.181 C 
ENDBRANCH  17  22
ENDBRANCH   1  14
TORSDOF 5
ENDMDL
MODEL 4
REMARK VINA RESULT:      -4.2      1.009      4.759
REMARK  5 active torsions:
REMARK  status: ('A' for Active; 'I' for Inactive)
REMARK    1  A    between atoms: C_6  and  C_3 
REMARK    2  A    between atoms: C_7  and  C_6 
REMARK    3  A    between atoms: C_8  and  C_7 
REMARK    4  A    between atoms: O_16  and  C_10 
REMARK    5  A    between atoms: O_17  and  C_12 
ROOT
ATOM      1  C   UNL d   1      57.869   0.099  31.287  0.00  0.00     0.198 C 
ATOM      2  O   UNL d   1      58.367   0.682  31.598  0.00  0.00    -0.286 OA
ENDROOT
BRANCH   1   3
ATOM      3  C   UNL d   1      57.154  -0.078  31.670  0.00  0.00     0.067 C 
BRANCH   3   4
ATOM      4  C   UNL d   1      57.064   0.095  32.469  0.00  0.00     0.107 A 
ATOM      5  O   UNL d   1      57.667   0.320  32.999  0.00  0.00    -0.273 OA
ATOM      6  C   UNL d   1      57.330   0.437  33.737  0.00  0.00     0.300 A 
ATOM      7  C   UNL d   1      56.517   0.286  33.673  0.00  0.00     0.065 A 
ATOM      8  O   UNL d   1      57.726   0.665  34.427  0.00  0.00    -0.259 OA
ATOM      9  C   UNL d   1      56.357   0.076  32.891  0.00  0.00     0.028 A 
ATOM     10  C   UNL d   1      55.908   0.315  34.228  0.00  0.00     0.005 A 
ATOM     11  C   UNL d   1      55.580  -0.108  32.659  0.00  0.00     0.002 A 
ATOM     12  C   UNL d   1      54.971  -0.079  33.214  0.00  0.00     0.000 A 
ATOM     13  C   UNL d   1      55.137   0.134  34.002  0.00  0.00     0.000 A 
ENDBRANCH   3   4
ENDBRANCH   1   3
BRANCH   1  14
ATOM     14  C   UNL d   1      58.077  -0.306  30.602  0.00  0.00     0.041 A 
ATOM     15  C   UNL d   1      58.343   0.114  29.948  0.00  0.00     0.029 A 
ATOM     16  C   UNL d   1      58.554  -0.282  29.256  0.00  0.00     0.116 A 
ATOM     17  C   UNL d   1      58.498  -1.107  29.222  0.00  0.00     0.116 A 
ATOM     18  C   UNL d   1      58.230  -1.528  29.884  0.00  0.00     0.026 A 
ATOM     19  C   UNL d   1      58.021  -1.123  30.569  0.00  0.00     0.005 A 
BRANCH  16  20
ATOM     20  O   UNL d   1      58.820   0.138  28.601  0.00  0.00    -0.326 OA
ATOM     21  C   UNL d   1      59.563   0.506  28.620  0.00  0.00     0.181 C 
ENDBRANCH  16  20
BRANCH  17  22
ATOM     22  O   UNL d   1      58.706  -1.512  28.537  0.00  0.00    -0.326 OA
ATOM     23  C   UNL d   1      58.608  -2.332  28.488  0.00  0.00     0.181 C 
ENDBRANCH  17  22
ENDBRANCH   1  14
TORSDOF 5
ENDMDL
MODEL 5
REMARK VINA RESULT:      -3.9      0.985      4.703
REMARK  5 active torsions:
REMARK  status: ('A' for Active; 'I' for Inactive)
REMARK    1  A    between atoms: C_6  and  C_3 
REMARK    2  A    between atoms: C_7  and  C_6 
REMARK    3  A    between atoms: C_8  and  C_7 
REMARK    4  A    between atoms: O_16  and  C_10 
REMARK    5  A    between atoms: O_17  and  C_12 
ROOT
ATOM      1  C   UNL d   1      57.115  -0.196  31.624  0.00  0.00     0.198 C 
ATOM      2  O   UNL d   1      56.536  -0.785  31.561  0.00  0.00    -0.286 OA
ENDROOT
BRANCH   1   3
ATOM      3  C   UNL d   1      57.127   0.297  32.292  0.00  0.00     0.067 C 
BRANCH   3   4
ATOM      4  C   UNL d   1      56.488   0.302  32.810  0.00  0.00     0.107 A 
ATOM      5  O   UNL d   1      55.687   0.180  32.611  0.00  0.00    -0.273 OA
ATOM      6  C   UNL d   1      55.242   0.232  33.297  0.00  0.00     0.300 A 
ATOM      7  C   UNL d   1      55.759   0.385  33.927  0.00  0.00     0.065 A 
ATOM      8  O   UNL d   1      54.421   0.147  33.356  0.00  0.00    -0.259 OA
ATOM      9  C   UNL d   1      56.525   0.427  33.623  0.00  0.00     0.028 A 
ATOM     10  C   UNL d   1      55.625   0.490  34.734  0.00  0.00     0.005 A 
ATOM     11  C   UNL d   1      57.168   0.577  34.130  0.00  0.00     0.002 A 
ATOM     12  C   UNL d   1      57.034   0.682  34.937  0.00  0.00     0.000 A 
ATOM     13  C   UNL d   1      56.259   0.638  35.238  0.00  0.00     0.000 A 
ENDBRANCH   3   4
ENDBRANCH   1   3
BRANCH   1  14
ATOM     14  C   UNL d   1      57.676  -0.096  31.032  0.00  0.00     0.041 A 
ATOM     15  C   UNL d   1      57.775  -0.683  30.465  0.00  0.00     0.029 A 
ATOM     16  C   UNL d   1      58.335  -0.593  29.866  0.00  0.00     0.116 A 
ATOM     17  C   UNL d   1      58.798   0.092  29.837  0.00  0.00     0.116 A 
ATOM     18  C   UNL d   1      58.695   0.682  30.410  0.00  0.00     0.026 A 
ATOM     19  C   UNL d   1      58.134   0.582  31.003  0.00  0.00     0.005 A 
BRANCH  16  20
ATOM     20  O   UNL d   1      58.435  -1.180  29.298  0.00  0.00    -0.326 OA
ATOM     21  C   UNL d   1      58.537  -1.969  29.534  0.00  0.00     0.181 C 
ENDBRANCH  16  20
BRANCH  17  22
ATOM     22  O   UNL d   1      59.359   0.191  29.243  0.00  0.00    -0.326 OA
ATOM     23  C   UNL d   1      60.039   0.644  29.381  0.00  0.00     0.181 C 
ENDBRANCH  17  22
ENDBRANCH   1  14
TORSDOF 5
ENDMDL
MODEL 6
REMARK VINA RESULT:      -2.2      1.465      1.849
REMARK  5 active torsions:
REMARK  status: ('A' for Active; 'I' for Inactive)
REMARK    1  A    between atoms: C_6  and  C_3 
REMARK    2  A    between atoms: C_7  and  C_6 
REMARK    3  A    between atoms: C_8  and  C_7 
REMARK    4  A    between atoms: O_16  and  C_10 
REMARK    5  A    between atoms: O_17  and  C_12 
ROOT
ATOM      1  C   UNL d   1      56.470  -0.298  32.522  0.00  0.00     0.198 C 
ATOM      2  O   UNL d   1      56.833  -1.038  32.600  0.00  0.00    -0.286 OA
ENDROOT
BRANCH   1   3
ATOM      3  C   UNL d   1      56.682   0.200  31.893  0.00  0.00     0.067 C 
BRANCH   3   4
ATOM      4  C   UNL d   1      57.477   0.344  31.735  0.00  0.00     0.107 A 
ATOM      5  O   UNL d   1      58.088   0.428  32.297  0.00  0.00    -0.273 OA
ATOM      6  C   UNL d   1      58.789   0.565  31.896  0.00  0.00     0.300 A 
ATOM      7  C   UNL d   1      58.622   0.567  31.083  0.00  0.00     0.065 A 
ATOM      8  O   UNL d   1      59.534   0.681  32.236  0.00  0.00    -0.259 OA
ATOM      9  C   UNL d   1      57.813   0.431  30.988  0.00  0.00     0.028 A 
ATOM     10  C   UNL d   1      59.105   0.677  30.424  0.00  0.00     0.005 A 
ATOM     11  C   UNL d   1      57.482   0.403  30.226  0.00  0.00     0.002 A 
ATOM     12  C   UNL d   1      57.965   0.513  29.567  0.00  0.00     0.000 A 
ATOM     13  C   UNL d   1      58.780   0.650  29.668  0.00  0.00     0.000 A 
ENDBRANCH   3   4
ENDBRANCH   1   3
BRANCH   1  14
ATOM     14  C   UNL d   1      55.901  -0.053  33.063  0.00  0.00     0.041 A 
ATOM     15  C   UNL d   1      56.062  -0.097  33.868  0.00  0.00     0.029 A 
ATOM     16  C   UNL d   1      55.499   0.146  34.419  0.00  0.00     0.116 A 
ATOM     17  C   UNL d   1      54.769   0.436  34.160  0.00  0.00     0.116 A 
ATOM     18  C   UNL d   1      54.610   0.479  33.346  0.00  0.00     0.026 A 
ATOM     19  C   UNL d   1      55.179   0.234  32.805  0.00  0.00     0.005 A 
BRANCH  16  20
ATOM     20  O   UNL d   1      55.659   0.102  35.225  0.00  0.00    -0.326 OA
ATOM     21  C   UNL d   1      56.270   0.559  35.550  0.00  0.00     0.181 C 
ENDBRANCH  16  20
BRANCH  17  22
ATOM     22  O   UNL d   1      54.200   0.682  34.701  0.00  0.00    -0.326 OA
ATOM     23  C   UNL d   1      53.402   0.495  34.585  0.00  0.00     0.181 C 
ENDBRANCH  17  22
ENDBRANCH   1  14
TORSDOF 5
ENDMDL
