MODEL 1
REMARK VINA RESULT:      -4.5      0.000      0.000
REMARK  6 active torsions:
REMARK  status: ('A' for Active; 'I' for Inactive)
REMARK    1  A    between atoms: C_2  and  S_1 
REMARK    2  A    between atoms: N_5  and  S_1 
REMARK    3  A    between atoms: C_15  and  N_5 
REMARK    4  A    between atoms: C_7  and  C_6 
REMARK    5  A    between atoms: C_20  and  C_15 
REMARK    6  A    between atoms: O_19  and  C_20 
ROOT
ATOM      1  C   UNL d   1      58.422   0.002  29.970  0.00  0.00     0.105 A 
ATOM      2  C   UNL d   1      57.369  -0.072  31.248  0.00  0.00     0.000 A 
ATOM      3  C   UNL d   1      57.933  -0.660  30.065  0.00  0.00     0.013 A 
ATOM      4  C   UNL d   1      58.385   0.623  30.511  0.00  0.00     0.013 A 
ATOM      5  C   UNL d   1      57.857   0.586  31.152  0.00  0.00     0.001 A 
ATOM      6  C   UNL d   1      57.405  -0.697  30.705  0.00  0.00     0.001 A 
ENDROOT
BRANCH   1   7
ATOM      7  S   UNL d   1      58.950   0.046  29.336  0.00  0.00     0.285 S 
ATOM      8  O   UNL d   1      59.479   0.083  28.708  0.00  0.00    -0.198 OA
ATOM      9  O   UNL d   1      58.537   0.682  29.027  0.00  0.00    -0.198 OA
BRANCH   7  10
ATOM     10  N   UNL d   1      59.371  -0.595  29.642  0.00  0.00    -0.155 NA
BRANCH  10  11
ATOM     11  C   UNL d   1      59.934  -0.983  29.178  0.00  0.00     0.138 C 
BRANCH  11  12
ATOM     12  C   UNL d   1      60.449  -1.525  29.527  0.00  0.00     0.138 C 
BRANCH  12  13
ATOM     13  O   UNL d   1      60.873  -2.061  29.048  0.00  0.00    -0.325 OA
ATOM     14  C   UNL d   1      61.133  -2.762  29.367  0.00  0.00     0.182 C 
ENDBRANCH  12  13
ENDBRANCH  11  12
ENDBRANCH  10  11
ENDBRANCH   7  10
ENDBRANCH   1   7
BRANCH   2  15
ATOM     15  C   UNL d   1      56.849  -0.101  31.884  0.00  0.00     0.000 A 
ATOM     16  C   UNL d   1      56.541   0.599  32.190  0.00  0.00     0.001 A 
ATOM     17  C   UNL d   1      56.023   0.587  32.823  0.00  0.00     0.011 A 
ATOM     18  C   UNL d   1      55.803  -0.145  33.162  0.00  0.00     0.058 A 
ATOM     19  C   UNL d   1      56.110  -0.846  32.856  0.00  0.00     0.011 A 
ATOM     20 CL   UNL d   1      55.285  -0.166  33.795  0.00  0.00    -0.082 Cl
ATOM     21  C   UNL d   1      56.633  -0.825  32.217  0.00  0.00     0.001 A 
ENDBRANCH   2  15
TORSDOF 6
ENDMDL
MODEL 2
REMARK VINA RESULT:      -2.9      3.148      4.957
REMARK  6 active torsions:
REMARK  status: ('A' for Active; 'I' for Inactive)
REMARK    1  A    between atoms: C_2  and  S_1 
REMARK    2  A    between atoms: N_5  and  S_1 
REMARK    3  A    between atoms: C_15  and  N_5 
REMARK    4  A    between atoms: C_7  and  C_6 
REMARK    5  A    between atoms: C_20  and  C_15 
REMARK    6  A    between atoms: O_19  and  C_20 
ROOT
ATOM      1  C   UNL d   1      56.482  -0.694  32.150  0.00  0.00     0.105 A 
ATOM      2  C   UNL d   1      57.558  -0.221  30.982  0.00  0.00     0.000 A 
ATOM      3  C   UNL d   1      56.614   0.112  32.012  0.00  0.00     0.013 A 
ATOM      4  C   UNL d   1      56.886  -1.260  31.705  0.00  0.00     0.013 A 
ATOM      5  C   UNL d   1      57.425  -1.023  31.120  0.00  0.00     0.001 A 
ATOM      6  C   UNL d   1      57.154   0.349  31.427  0.00  0.00     0.001 A 
ENDROOT
BRANCH   1   7
ATOM      7  S   UNL d   1      55.947  -0.938  32.730  0.00  0.00     0.285 S 
ATOM      8  O   UNL d   1      55.416  -1.174  33.311  0.00  0.00    -0.198 OA
ATOM      9  O   UNL d   1      55.841  -1.652  32.344  0.00  0.00    -0.198 OA
BRANCH   7  10
ATOM     10  N   UNL d   1      56.049  -0.220  33.125  0.00  0.00    -0.155 NA
BRANCH  10  11
ATOM     11  C   UNL d   1      55.594  -0.044  33.792  0.00  0.00     0.138 C 
BRANCH  11  12
ATOM     12  C   UNL d   1      55.957   0.274  34.462  0.00  0.00     0.138 C 
BRANCH  12  13
ATOM     13  O   UNL d   1      55.497   0.682  35.027  0.00  0.00    -0.325 OA
ATOM     14  C   UNL d   1      55.638   0.562  35.819  0.00  0.00     0.182 C 
ENDBRANCH  12  13
ENDBRANCH  11  12
ENDBRANCH  10  11
ENDBRANCH   7  10
ENDBRANCH   1   7
BRANCH   2  15
ATOM     15  C   UNL d   1      58.094   0.007  30.400  0.00  0.00     0.000 A 
ATOM     16  C   UNL d   1      58.884  -0.219  30.465  0.00  0.00     0.001 A 
ATOM     17  C   UNL d   1      59.429  -0.001  29.895  0.00  0.00     0.011 A 
ATOM     18  C   UNL d   1      59.181   0.456  29.240  0.00  0.00     0.058 A 
ATOM     19  C   UNL d   1      58.391   0.682  29.175  0.00  0.00     0.011 A 
ATOM     20 CL   UNL d   1      59.720   0.678  28.666  0.00  0.00    -0.082 Cl
ATOM     21  C   UNL d   1      57.847   0.457  29.755  0.00  0.00     0.001 A 
ENDBRANCH   2  15
TORSDOF 6
ENDMDL
MODEL 3
REMARK VINA RESULT:      -2.4      8.635     10.100
REMARK  6 active torsions:
REMARK  status: ('A' for Active; 'I' for Inactive)
REMARK    1  A    between atoms: C_2  and  S_1 
REMARK    2  A    between atoms: N_5  and  S_1 
REMARK    3  A    between atoms: C_15  and  N_5 
REMARK    4  A    between atoms: C_7  and  C_6 
REMARK    5  A    between atoms: C_20  and  C_15 
REMARK    6  A    between atoms: O_19  and  C_20 
ROOT
ATOM      1  C   UNL d   1      60.227  -9.206  34.714  0.00  0.00     0.105 A 
ATOM      2  C   UNL d   1      59.544  -9.414  33.219  0.00  0.00     0.000 A 
ATOM      3  C   UNL d   1      59.411  -9.336  34.647  0.00  0.00     0.013 A 
ATOM      4  C   UNL d   1      60.698  -9.179  34.038  0.00  0.00     0.013 A 
ATOM      5  C   UNL d   1      60.356  -9.284  33.288  0.00  0.00     0.001 A 
ATOM      6  C   UNL d   1      59.069  -9.440  33.897  0.00  0.00     0.001 A 
ENDROOT
BRANCH   1   7
ATOM      7  S   UNL d   1      60.574  -9.101  35.456  0.00  0.00     0.285 S 
ATOM      8  O   UNL d   1      60.916  -8.991  36.196  0.00  0.00    -0.198 OA
ATOM      9  O   UNL d   1      60.964  -9.818  35.383  0.00  0.00    -0.198 OA
BRANCH   7  10
ATOM     10  N   UNL d   1      60.184  -8.378  35.537  0.00  0.00    -0.155 NA
BRANCH  10  11
ATOM     11  C   UNL d   1      60.428  -7.836  36.111  0.00  0.00     0.138 C 
BRANCH  11  12
ATOM     12  C   UNL d   1      59.957  -7.179  36.279  0.00  0.00     0.138 C 
BRANCH  12  13
ATOM     13  O   UNL d   1      60.295  -6.415  36.273  0.00  0.00    -0.325 OA
ATOM     14  C   UNL d   1      59.810  -5.765  36.225  0.00  0.00     0.182 C 
ENDBRANCH  12  13
ENDBRANCH  11  12
ENDBRANCH  10  11
ENDBRANCH   7  10
ENDBRANCH   1   7
BRANCH   2  15
ATOM     15  C   UNL d   1      59.212  -9.516  32.473  0.00  0.00     0.000 A 
ATOM     16  C   UNL d   1      58.400  -9.417  32.372  0.00  0.00     0.001 A 
ATOM     17  C   UNL d   1      58.055  -9.516  31.637  0.00  0.00     0.011 A 
ATOM     18  C   UNL d   1      58.532  -9.718  30.981  0.00  0.00     0.058 A 
ATOM     19  C   UNL d   1      59.344  -9.816  31.081  0.00  0.00     0.011 A 
ATOM     20 CL   UNL d   1      58.194  -9.818  30.242  0.00  0.00    -0.082 Cl
ATOM     21  C   UNL d   1      59.685  -9.715  31.827  0.00  0.00     0.001 A 
ENDBRANCH   2  15
TORSDOF 6
ENDMDL
MODEL 4
REMARK VINA RESULT:      -1.9      9.088     10.011
REMARK  6 active torsions:
REMARK  status: ('A' for Active; 'I' for Inactive)
REMARK    1  A    between atoms: C_2  and  S_1 
REMARK    2  A    between atoms: N_5  and  S_1 
REMARK    3  A    between atoms: C_15  and  N_5 
REMARK    4  A    between atoms: C_7  and  C_6 
REMARK    5  A    between atoms: C_20  and  C_15 
REMARK    6  A    between atoms: O_19  and  C_20 
ROOT
ATOM      1  C   UNL d   1      59.809  -9.496  33.580  0.00  0.00     0.105 A 
ATOM      2  C   UNL d   1      58.774  -9.608  32.291  0.00  0.00     0.000 A 
ATOM      3  C   UNL d   1      59.031  -9.755  33.696  0.00  0.00     0.013 A 
ATOM      4  C   UNL d   1      60.068  -9.294  32.823  0.00  0.00     0.013 A 
ATOM      5  C   UNL d   1      59.549  -9.350  32.177  0.00  0.00     0.001 A 
ATOM      6  C   UNL d   1      58.512  -9.811  33.050  0.00  0.00     0.001 A 
ENDROOT
BRANCH   1   7
ATOM      7  S   UNL d   1      60.331  -9.438  34.217  0.00  0.00     0.285 S 
ATOM      8  O   UNL d   1      60.845  -9.376  34.856  0.00  0.00    -0.198 OA
ATOM      9  O   UNL d   1      60.914  -9.818  33.785  0.00  0.00    -0.198 OA
BRANCH   7  10
ATOM     10  N   UNL d   1      59.748  -9.054  34.659  0.00  0.00    -0.155 NA
BRANCH  10  11
ATOM     11  C   UNL d   1      59.960  -8.554  35.282  0.00  0.00     0.138 C 
BRANCH  11  12
ATOM     12  C   UNL d   1      59.372  -8.186  35.729  0.00  0.00     0.138 C 
BRANCH  12  13
ATOM     13  O   UNL d   1      59.556  -7.504  36.174  0.00  0.00    -0.325 OA
ATOM     14  C   UNL d   1      59.002  -6.914  36.247  0.00  0.00     0.182 C 
ENDBRANCH  12  13
ENDBRANCH  11  12
ENDBRANCH  10  11
ENDBRANCH   7  10
ENDBRANCH   1   7
BRANCH   2  15
ATOM     15  C   UNL d   1      58.265  -9.661  31.646  0.00  0.00     0.000 A 
ATOM     16  C   UNL d   1      58.574  -9.639  30.882  0.00  0.00     0.001 A 
ATOM     17  C   UNL d   1      58.082  -9.690  30.231  0.00  0.00     0.011 A 
ATOM     18  C   UNL d   1      57.257  -9.766  30.341  0.00  0.00     0.058 A 
ATOM     19  C   UNL d   1      56.947  -9.788  31.105  0.00  0.00     0.011 A 
ATOM     20 CL   UNL d   1      56.758  -9.818  29.695  0.00  0.00    -0.082 Cl
ATOM     21  C   UNL d   1      57.451  -9.735  31.758  0.00  0.00     0.001 A 
ENDBRANCH   2  15
TORSDOF 6
ENDMDL
