MODEL 1
REMARK VINA RESULT:      62.6      0.000      0.000
REMARK  9 active torsions:
REMARK  status: ('A' for Active; 'I' for Inactive)
REMARK    1  A    between atoms: C_3  and  C_1 
REMARK    2  A    between atoms: N_5  and  C_2 
REMARK    3  A    between atoms: N_4  and  C_3 
REMARK    4  A    between atoms: C_14  and  C_3 
REMARK    5  A    between atoms: C_12  and  N_4 
REMARK       I    between atoms: C_6  and  N_5 
REMARK    6  A    between atoms: C_9  and  C_6 
REMARK    7  A    between atoms: C_7  and  C_12 
REMARK       I    between atoms: N_16  and  C_7 
REMARK    8  A    between atoms: N_8  and  C_17 
REMARK    9  A    between atoms: C_17  and  C_9 
ROOT
ATOM      1  C   UNL d   1      14.109  13.619  -2.356  0.00  0.00     0.036 A 
ATOM      2  C   UNL d   1      13.925  14.261  -2.840  0.00  0.00     0.086 A 
ATOM      3  C   UNL d   1      13.968  12.839  -2.637  0.00  0.00     0.010 A 
ATOM      4  C   UNL d   1      13.606  14.155  -3.594  0.00  0.00     0.020 A 
ATOM      5  C   UNL d   1      13.649  12.733  -3.390  0.00  0.00     0.035 A 
ATOM      6  C   UNL d   1      13.474  13.385  -3.855  0.00  0.00     0.008 A 
ATOM      7 BR   UNL d   1      13.514  11.984  -3.660  0.00  0.00    -0.049 Br
ENDROOT
BRANCH   1   8
ATOM      8  C   UNL d   1      14.439  13.717  -1.575  0.00  0.00     0.083 C 
BRANCH   8   9
ATOM      9  N   UNL d   1      14.644  14.483  -1.345  0.00  0.00    -0.239 NA
BRANCH   9  10
ATOM     10  C   UNL d   1      15.077  14.631  -0.669  0.00  0.00     0.163 C 
BRANCH  10  11
ATOM     11  C   UNL d   1      15.200  15.407  -0.420  0.00  0.00     0.317 C 
ATOM     12  O   UNL d   1      14.585  15.805  -0.069  0.00  0.00    -0.262 OA
ATOM     13  N   UNL d   1      15.936  15.763  -0.530  0.00  0.00    -0.083 NA
ATOM     14  N   UNL d   1      16.033  16.539  -0.272  0.00  0.00    -0.019 N 
ENDBRANCH  10  11
ENDBRANCH   9  10
ENDBRANCH   8   9
BRANCH   8  15
ATOM     15  C   UNL d   1      14.544  13.088  -1.089  0.00  0.00     0.018 A 
ATOM     16  C   UNL d   1      15.224  12.628  -1.163  0.00  0.00     0.002 A 
ATOM     17  C   UNL d   1      15.329  11.982  -0.662  0.00  0.00     0.000 A 
ATOM     18  C   UNL d   1      14.782  11.781  -0.095  0.00  0.00     0.000 A 
ATOM     19  C   UNL d   1      14.084  12.247  -0.014  0.00  0.00     0.000 A 
ATOM     20  C   UNL d   1      13.974  12.903  -0.521  0.00  0.00     0.002 A 
ENDBRANCH   8  15
ENDBRANCH   1   8
BRANCH   2  21
ATOM     21  N   UNL d   1      14.068  15.027  -2.554  0.00  0.00    -0.208 NA
ATOM     22  C   UNL d   1      14.261  15.616  -3.093  0.00  0.00     0.281 C 
ATOM     23  O   UNL d   1      14.403  16.378  -2.806  0.00  0.00    -0.265 OA
BRANCH  22  24
ATOM     24  C   UNL d   1      14.315  15.465  -3.903  0.00  0.00     0.082 C 
BRANCH  24  25
ATOM     25  C   UNL d   1      14.402  16.078  -4.430  0.00  0.00     0.085 C 
BRANCH  25  26
ATOM     26  N   UNL d   1      15.064  16.108  -4.896  0.00  0.00    -0.299 N 
ATOM     27  C   UNL d   1      15.109  15.641  -5.575  0.00  0.00     0.107 A 
ATOM     28  C   UNL d   1      15.780  15.666  -6.055  0.00  0.00     0.142 A 
ATOM     29  O   UNL d   1      16.409  16.165  -5.845  0.00  0.00    -0.300 OA
ATOM     30  C   UNL d   1      16.361  16.624  -5.173  0.00  0.00     0.142 A 
ATOM     31  C   UNL d   1      15.690  16.597  -4.697  0.00  0.00     0.107 A 
ENDBRANCH  25  26
ENDBRANCH  24  25
ENDBRANCH  22  24
ENDBRANCH   2  21
TORSDOF 9
ENDMDL
MODEL 2
REMARK VINA RESULT:      62.8      1.829      2.768
REMARK  9 active torsions:
REMARK  status: ('A' for Active; 'I' for Inactive)
REMARK    1  A    between atoms: C_3  and  C_1 
REMARK    2  A    between atoms: N_5  and  C_2 
REMARK    3  A    between atoms: N_4  and  C_3 
REMARK    4  A    between atoms: C_14  and  C_3 
REMARK    5  A    between atoms: C_12  and  N_4 
REMARK       I    between atoms: C_6  and  N_5 
REMARK    6  A    between atoms: C_9  and  C_6 
REMARK    7  A    between atoms: C_7  and  C_12 
REMARK       I    between atoms: N_16  and  C_7 
REMARK    8  A    between atoms: N_8  and  C_17 
REMARK    9  A    between atoms: C_17  and  C_9 
ROOT
ATOM      1  C   UNL d   1      14.343  14.064  -1.896  0.00  0.00     0.036 A 
ATOM      2  C   UNL d   1      14.138  14.559  -2.523  0.00  0.00     0.086 A 
ATOM      3  C   UNL d   1      14.763  14.384  -1.241  0.00  0.00     0.010 A 
ATOM      4  C   UNL d   1      14.336  15.361  -2.523  0.00  0.00     0.020 A 
ATOM      5  C   UNL d   1      14.961  15.185  -1.240  0.00  0.00     0.035 A 
ATOM      6  C   UNL d   1      14.748  15.659  -1.874  0.00  0.00     0.008 A 
ATOM      7 BR   UNL d   1      15.364  15.491  -0.611  0.00  0.00    -0.049 Br
ENDROOT
BRANCH   1   8
ATOM      8  C   UNL d   1      14.143  13.235  -1.886  0.00  0.00     0.083 C 
BRANCH   8   9
ATOM      9  N   UNL d   1      13.719  12.941  -2.531  0.00  0.00    -0.239 NA
BRANCH   9  10
ATOM     10  C   UNL d   1      13.815  12.176  -2.799  0.00  0.00     0.163 C 
BRANCH  10  11
ATOM     11  C   UNL d   1      13.681  11.997  -3.592  0.00  0.00     0.317 C 
ATOM     12  O   UNL d   1      14.313  11.782  -4.054  0.00  0.00    -0.262 OA
ATOM     13  N   UNL d   1      12.917  12.040  -3.901  0.00  0.00    -0.083 NA
ATOM     14  N   UNL d   1      12.811  11.856  -4.697  0.00  0.00    -0.019 N 
ENDBRANCH  10  11
ENDBRANCH   9  10
ENDBRANCH   8   9
BRANCH   8  15
ATOM     15  C   UNL d   1      14.360  12.766  -1.274  0.00  0.00     0.018 A 
ATOM     16  C   UNL d   1      15.137  12.495  -1.227  0.00  0.00     0.002 A 
ATOM     17  C   UNL d   1      15.358  12.012  -0.596  0.00  0.00     0.000 A 
ATOM     18  C   UNL d   1      14.833  11.793  -0.015  0.00  0.00     0.000 A 
ATOM     19  C   UNL d   1      14.036  12.067  -0.056  0.00  0.00     0.000 A 
ATOM     20  C   UNL d   1      13.809  12.556  -0.695  0.00  0.00     0.002 A 
ENDBRANCH   8  15
ENDBRANCH   1   8
BRANCH   2  21
ATOM     21  N   UNL d   1      13.724  14.235  -3.165  0.00  0.00    -0.208 NA
ATOM     22  C   UNL d   1      13.733  14.638  -3.881  0.00  0.00     0.281 C 
ATOM     23  O   UNL d   1      13.319  14.313  -4.519  0.00  0.00    -0.265 OA
BRANCH  22  24
ATOM     24  C   UNL d   1      14.140  15.350  -3.974  0.00  0.00     0.082 C 
BRANCH  24  25
ATOM     25  C   UNL d   1      14.190  15.702  -4.706  0.00  0.00     0.085 C 
BRANCH  25  26
ATOM     26  N   UNL d   1      14.885  16.054  -4.929  0.00  0.00    -0.299 N 
ATOM     27  C   UNL d   1      15.191  16.677  -4.481  0.00  0.00     0.107 A 
ATOM     28  C   UNL d   1      15.897  17.041  -4.701  0.00  0.00     0.142 A 
ATOM     29  O   UNL d   1      16.296  16.773  -5.378  0.00  0.00    -0.300 OA
ATOM     30  C   UNL d   1      15.991  16.158  -5.818  0.00  0.00     0.142 A 
ATOM     31  C   UNL d   1      15.286  15.798  -5.595  0.00  0.00     0.107 A 
ENDBRANCH  25  26
ENDBRANCH  24  25
ENDBRANCH  22  24
ENDBRANCH   2  21
TORSDOF 9
ENDMDL
