MODEL 1
REMARK VINA RESULT:      -3.2      0.000      0.000
REMARK  5 active torsions:
REMARK  status: ('A' for Active; 'I' for Inactive)
REMARK    1  A    between atoms: C_2  and  C_1 
REMARK    2  A    between atoms: C_3  and  C_1 
REMARK    3  A    between atoms: C_4  and  C_2 
REMARK    4  A    between atoms: O_9  and  C_6 
REMARK    5  A    between atoms: O_10  and  C_7 
ROOT
ATOM      1  C   UNL d   1     -42.236-122.893 -50.466  0.00  0.00     0.236 C 
ATOM      2  O   UNL d   1     -42.909-122.467 -50.650  0.00  0.00    -0.283 OA
ENDROOT
BRANCH   1   3
ATOM      3  C   UNL d   1     -41.676-123.095 -51.038  0.00  0.00     0.236 C 
ATOM      4  O   UNL d   1     -41.302-123.818 -51.022  0.00  0.00    -0.283 OA
BRANCH   3   5
ATOM      5  C   UNL d   1     -41.491-122.546 -51.645  0.00  0.00     0.065 A 
ATOM      6  C   UNL d   1     -41.396-122.776 -52.408  0.00  0.00     0.097 A 
ATOM      7  C   UNL d   1     -41.213-122.222 -53.000  0.00  0.00     0.024 A 
ATOM      8  C   UNL d   1     -41.130-121.432 -52.789  0.00  0.00     0.002 A 
ATOM      9  C   UNL d   1     -41.225-121.197 -52.022  0.00  0.00     0.000 A 
ATOM     10  C   UNL d   1     -41.408-121.756 -51.434  0.00  0.00     0.005 A 
BRANCH   6  11
ATOM     11  O   UNL d   1     -41.481-123.580 -52.619  0.00  0.00    -0.328 OA
ATOM     12  C   UNL d   1     -41.462-123.803 -53.320  0.00  0.00     0.181 C 
ENDBRANCH   6  11
ENDBRANCH   3   5
ENDBRANCH   1   3
BRANCH   1  13
ATOM     13  C   UNL d   1     -42.110-123.133 -49.683  0.00  0.00     0.065 A 
ATOM     14  C   UNL d   1     -42.721-123.485 -49.261  0.00  0.00     0.097 A 
ATOM     15  C   UNL d   1     -42.587-123.720 -48.482  0.00  0.00     0.024 A 
ATOM     16  C   UNL d   1     -41.857-123.607 -48.133  0.00  0.00     0.002 A 
ATOM     17  C   UNL d   1     -41.257-123.263 -48.543  0.00  0.00     0.000 A 
ATOM     18  C   UNL d   1     -41.364-123.017 -49.326  0.00  0.00     0.005 A 
BRANCH  14  19
ATOM     19  O   UNL d   1     -43.493-123.610 -49.616  0.00  0.00    -0.328 OA
ATOM     20  C   UNL d   1     -44.158-123.817 -49.171  0.00  0.00     0.181 C 
ENDBRANCH  14  19
ENDBRANCH   1  13
TORSDOF 5
ENDMDL
MODEL 2
REMARK VINA RESULT:      -2.1      1.326      2.549
REMARK  5 active torsions:
REMARK  status: ('A' for Active; 'I' for Inactive)
REMARK    1  A    between atoms: C_2  and  C_1 
REMARK    2  A    between atoms: C_3  and  C_1 
REMARK    3  A    between atoms: C_4  and  C_2 
REMARK    4  A    between atoms: O_9  and  C_6 
REMARK    5  A    between atoms: O_10  and  C_7 
ROOT
ATOM      1  C   UNL d   1     -41.529-122.870 -52.264  0.00  0.00     0.236 C 
ATOM      2  O   UNL d   1     -41.124-123.580 -52.292  0.00  0.00    -0.283 OA
ENDROOT
BRANCH   1   3
ATOM      3  C   UNL d   1     -41.963-122.590 -52.908  0.00  0.00     0.236 C 
ATOM      4  O   UNL d   1     -42.599-122.093 -52.801  0.00  0.00    -0.283 OA
BRANCH   3   5
ATOM      5  C   UNL d   1     -41.745-122.821 -53.685  0.00  0.00     0.065 A 
ATOM      6  C   UNL d   1     -41.845-122.333 -54.314  0.00  0.00     0.097 A 
ATOM      7  C   UNL d   1     -41.625-122.574 -55.079  0.00  0.00     0.024 A 
ATOM      8  C   UNL d   1     -41.302-123.323 -55.178  0.00  0.00     0.002 A 
ATOM      9  C   UNL d   1     -41.200-123.816 -54.547  0.00  0.00     0.000 A 
ATOM     10  C   UNL d   1     -41.422-123.569 -53.784  0.00  0.00     0.005 A 
BRANCH   6  11
ATOM     11  O   UNL d   1     -42.174-121.572 -54.209  0.00  0.00    -0.328 OA
ATOM     12  C   UNL d   1     -42.209-121.084 -54.758  0.00  0.00     0.181 C 
ENDBRANCH   6  11
ENDBRANCH   3   5
ENDBRANCH   1   3
BRANCH   1  13
ATOM     13  C   UNL d   1     -41.505-122.415 -51.572  0.00  0.00     0.065 A 
ATOM     14  C   UNL d   1     -41.842-122.708 -50.881  0.00  0.00     0.097 A 
ATOM     15  C   UNL d   1     -41.814-122.249 -50.197  0.00  0.00     0.024 A 
ATOM     16  C   UNL d   1     -41.458-121.515 -50.202  0.00  0.00     0.002 A 
ATOM     17  C   UNL d   1     -41.127-121.225 -50.875  0.00  0.00     0.000 A 
ATOM     18  C   UNL d   1     -41.141-121.664 -51.577  0.00  0.00     0.005 A 
BRANCH  14  19
ATOM     19  O   UNL d   1     -42.220-123.479 -50.862  0.00  0.00    -0.328 OA
ATOM     20  C   UNL d   1     -42.644-123.749 -50.205  0.00  0.00     0.181 C 
ENDBRANCH  14  19
ENDBRANCH   1  13
TORSDOF 5
ENDMDL
MODEL 3
REMARK VINA RESULT:      -2.0      0.947      1.473
REMARK  5 active torsions:
REMARK  status: ('A' for Active; 'I' for Inactive)
REMARK    1  A    between atoms: C_2  and  C_1 
REMARK    2  A    between atoms: C_3  and  C_1 
REMARK    3  A    between atoms: C_4  and  C_2 
REMARK    4  A    between atoms: O_9  and  C_6 
REMARK    5  A    between atoms: O_10  and  C_7 
ROOT
ATOM      1  C   UNL d   1     -42.097-123.075 -51.012  0.00  0.00     0.236 C 
ATOM      2  O   UNL d   1     -42.755-123.417 -51.357  0.00  0.00    -0.283 OA
ENDROOT
BRANCH   1   3
ATOM      3  C   UNL d   1     -41.561-122.622 -51.447  0.00  0.00     0.236 C 
ATOM      4  O   UNL d   1     -41.173-121.991 -51.108  0.00  0.00    -0.283 OA
BRANCH   3   5
ATOM      5  C   UNL d   1     -41.415-122.816 -52.250  0.00  0.00     0.065 A 
ATOM      6  C   UNL d   1     -41.405-122.255 -52.824  0.00  0.00     0.097 A 
ATOM      7  C   UNL d   1     -41.258-122.460 -53.616  0.00  0.00     0.024 A 
ATOM      8  C   UNL d   1     -41.123-123.249 -53.801  0.00  0.00     0.002 A 
ATOM      9  C   UNL d   1     -41.132-123.815 -53.225  0.00  0.00     0.000 A 
ATOM     10  C   UNL d   1     -41.279-123.604 -52.434  0.00  0.00     0.005 A 
BRANCH   6  11
ATOM     11  O   UNL d   1     -41.543-121.454 -52.633  0.00  0.00    -0.328 OA
ATOM     12  C   UNL d   1     -41.703-120.952 -53.147  0.00  0.00     0.181 C 
ENDBRANCH   6  11
ENDBRANCH   3   5
ENDBRANCH   1   3
BRANCH   1  13
ATOM     13  C   UNL d   1     -41.962-123.183 -50.202  0.00  0.00     0.065 A 
ATOM     14  C   UNL d   1     -42.542-122.967 -49.659  0.00  0.00     0.097 A 
ATOM     15  C   UNL d   1     -42.399-123.078 -48.855  0.00  0.00     0.024 A 
ATOM     16  C   UNL d   1     -41.693-123.398 -48.598  0.00  0.00     0.002 A 
ATOM     17  C   UNL d   1     -41.123-123.609 -49.125  0.00  0.00     0.000 A 
ATOM     18  C   UNL d   1     -41.240-123.509 -49.938  0.00  0.00     0.005 A 
BRANCH  14  19
ATOM     19  O   UNL d   1     -43.288-122.631 -49.916  0.00  0.00    -0.328 OA
ATOM     20  C   UNL d   1     -43.770-122.183 -49.415  0.00  0.00     0.181 C 
ENDBRANCH  14  19
ENDBRANCH   1  13
TORSDOF 5
ENDMDL
MODEL 4
REMARK VINA RESULT:      -1.8      0.810      3.671
REMARK  5 active torsions:
REMARK  status: ('A' for Active; 'I' for Inactive)
REMARK    1  A    between atoms: C_2  and  C_1 
REMARK    2  A    between atoms: C_3  and  C_1 
REMARK    3  A    between atoms: C_4  and  C_2 
REMARK    4  A    between atoms: O_9  and  C_6 
REMARK    5  A    between atoms: O_10  and  C_7 
ROOT
ATOM      1  C   UNL d   1     -41.624-122.674 -51.082  0.00  0.00     0.236 C 
ATOM      2  O   UNL d   1     -41.389-121.952 -50.779  0.00  0.00    -0.283 OA
ENDROOT
BRANCH   1   3
ATOM      3  C   UNL d   1     -42.027-123.230 -50.623  0.00  0.00     0.236 C 
ATOM      4  O   UNL d   1     -42.472-123.817 -50.970  0.00  0.00    -0.283 OA
BRANCH   3   5
ATOM      5  C   UNL d   1     -41.977-123.188 -49.787  0.00  0.00     0.065 A 
ATOM      6  C   UNL d   1     -42.629-123.248 -49.322  0.00  0.00     0.097 A 
ATOM      7  C   UNL d   1     -42.565-123.205 -48.493  0.00  0.00     0.024 A 
ATOM      8  C   UNL d   1     -41.823-123.099 -48.160  0.00  0.00     0.002 A 
ATOM      9  C   UNL d   1     -41.165-123.037 -48.625  0.00  0.00     0.000 A 
ATOM     10  C   UNL d   1     -41.234-123.081 -49.453  0.00  0.00     0.005 A 
BRANCH   6  11
ATOM     11  O   UNL d   1     -43.382-123.356 -49.664  0.00  0.00    -0.328 OA
ATOM     12  C   UNL d   1     -43.996-123.113 -49.341  0.00  0.00     0.181 C 
ENDBRANCH   6  11
ENDBRANCH   3   5
ENDBRANCH   1   3
BRANCH   1  13
ATOM     13  C   UNL d   1     -41.456-122.857 -51.872  0.00  0.00     0.065 A 
ATOM     14  C   UNL d   1     -41.329-122.250 -52.413  0.00  0.00     0.097 A 
ATOM     15  C   UNL d   1     -41.162-122.442 -53.197  0.00  0.00     0.024 A 
ATOM     16  C   UNL d   1     -41.123-123.221 -53.437  0.00  0.00     0.002 A 
ATOM     17  C   UNL d   1     -41.246-123.817 -52.911  0.00  0.00     0.000 A 
ATOM     18  C   UNL d   1     -41.416-123.654 -52.118  0.00  0.00     0.005 A 
BRANCH  14  19
ATOM     19  O   UNL d   1     -41.367-121.427 -52.175  0.00  0.00    -0.328 OA
ATOM     20  C   UNL d   1     -41.490-120.813 -52.715  0.00  0.00     0.181 C 
ENDBRANCH  14  19
ENDBRANCH   1  13
TORSDOF 5
ENDMDL
MODEL 5
REMARK VINA RESULT:      -0.4      1.605      2.617
REMARK  5 active torsions:
REMARK  status: ('A' for Active; 'I' for Inactive)
REMARK    1  A    between atoms: C_2  and  C_1 
REMARK    2  A    between atoms: C_3  and  C_1 
REMARK    3  A    between atoms: C_4  and  C_2 
REMARK    4  A    between atoms: O_9  and  C_6 
REMARK    5  A    between atoms: O_10  and  C_7 
ROOT
ATOM      1  C   UNL d   1     -41.635-122.385 -52.754  0.00  0.00     0.236 C 
ATOM      2  O   UNL d   1     -41.531-121.574 -52.782  0.00  0.00    -0.283 OA
ENDROOT
BRANCH   1   3
ATOM      3  C   UNL d   1     -41.744-122.835 -53.437  0.00  0.00     0.236 C 
ATOM      4  O   UNL d   1     -41.800-123.647 -53.400  0.00  0.00    -0.283 OA
BRANCH   3   5
ATOM      5  C   UNL d   1     -41.796-122.450 -54.181  0.00  0.00     0.065 A 
ATOM      6  C   UNL d   1     -42.172-122.788 -54.805  0.00  0.00     0.097 A 
ATOM      7  C   UNL d   1     -42.216-122.395 -55.537  0.00  0.00     0.024 A 
ATOM      8  C   UNL d   1     -41.869-121.655 -55.609  0.00  0.00     0.002 A 
ATOM      9  C   UNL d   1     -41.490-121.313 -54.983  0.00  0.00     0.000 A 
ATOM     10  C   UNL d   1     -41.448-121.710 -54.253  0.00  0.00     0.005 A 
BRANCH   6  11
ATOM     11  O   UNL d   1     -42.524-123.541 -54.728  0.00  0.00    -0.328 OA
ATOM     12  C   UNL d   1     -42.970-123.817 -55.244  0.00  0.00     0.181 C 
ENDBRANCH   6  11
ENDBRANCH   3   5
ENDBRANCH   1   3
BRANCH   1  13
ATOM     13  C   UNL d   1     -41.632-122.770 -52.020  0.00  0.00     0.065 A 
ATOM     14  C   UNL d   1     -42.098-122.481 -51.407  0.00  0.00     0.097 A 
ATOM     15  C   UNL d   1     -42.089-122.870 -50.680  0.00  0.00     0.024 A 
ATOM     16  C   UNL d   1     -41.624-123.532 -50.567  0.00  0.00     0.002 A 
ATOM     17  C   UNL d   1     -41.167-123.817 -51.164  0.00  0.00     0.000 A 
ATOM     18  C   UNL d   1     -41.157-123.446 -51.904  0.00  0.00     0.005 A 
BRANCH  14  19
ATOM     19  O   UNL d   1     -42.592-121.787 -51.512  0.00  0.00    -0.328 OA
ATOM     20  C   UNL d   1     -43.105-121.514 -50.924  0.00  0.00     0.181 C 
ENDBRANCH  14  19
ENDBRANCH   1  13
TORSDOF 5
ENDMDL
