MODEL 1
REMARK VINA RESULT:      33.0      0.000      0.000
REMARK  3 active torsions:
REMARK  status: ('A' for Active; 'I' for Inactive)
REMARK    1  A    between atoms: N_2  and  S_1 
REMARK    2  A    between atoms: C_3  and  S_1 
REMARK    3  A    between atoms: C_4  and  N_2 
ROOT
ATOM      1  S   UNL d   1     -56.018 -99.112 -44.683  0.00  0.00     0.287 S 
ATOM      2  O   UNL d   1     -55.240 -99.198 -44.957  0.00  0.00    -0.198 OA
ATOM      3  O   UNL d   1     -56.228 -98.760 -45.399  0.00  0.00    -0.198 OA
ENDROOT
BRANCH   1   4
ATOM      4  N   UNL d   1     -55.803 -99.465 -43.970  0.00  0.00    -0.139 NA
BRANCH   4   5
ATOM      5  C   UNL d   1     -55.436-100.201 -43.959  0.00  0.00     0.175 A 
ATOM      6  N   UNL d   1     -55.284-100.605 -44.658  0.00  0.00    -0.226 NA
ATOM      7  C   UNL d   1     -54.937-101.298 -44.621  0.00  0.00     0.083 A 
ATOM      8  C   UNL d   1     -54.769-101.731 -45.312  0.00  0.00     0.021 C 
ATOM      9  C   UNL d   1     -54.721-101.635 -43.900  0.00  0.00     0.019 A 
ATOM     10  C   UNL d   1     -54.866-101.256 -43.266  0.00  0.00     0.005 A 
ATOM     11  C   UNL d   1     -55.220-100.539 -43.237  0.00  0.00     0.040 A 
ENDBRANCH   4   5
ENDBRANCH   1   4
BRANCH   1  12
ATOM     12  C   UNL d   1     -56.785 -99.026 -44.418  0.00  0.00     0.105 A 
ATOM     13  C   UNL d   1     -57.412 -99.033 -44.954  0.00  0.00     0.013 A 
ATOM     14  C   UNL d   1     -58.186 -98.945 -44.683  0.00  0.00     0.001 A 
ATOM     15  C   UNL d   1     -58.810 -98.953 -45.216  0.00  0.00     0.000 A 
ATOM     16  C   UNL d   1     -58.334 -98.850 -43.877  0.00  0.00     0.000 A 
ATOM     17  C   UNL d   1     -59.589 -98.865 -44.948  0.00  0.00     0.000 A 
ATOM     18  C   UNL d   1     -59.734 -98.769 -44.135  0.00  0.00     0.000 A 
ATOM     19  C   UNL d   1     -59.111 -98.761 -43.603  0.00  0.00     0.000 A 
ATOM     20  C   UNL d   1     -57.706 -98.842 -43.341  0.00  0.00     0.001 A 
ATOM     21  C   UNL d   1     -56.933 -98.930 -43.614  0.00  0.00     0.013 A 
ENDBRANCH   1  12
TORSDOF 3
ENDMDL
