MODEL 1
REMARK VINA RESULT:      -8.0      0.000      0.000
REMARK  10 active torsions:
REMARK  status: ('A' for Active; 'I' for Inactive)
REMARK    1  A    between atoms: N_3  and  C_1 
REMARK    2  A    between atoms: C_8  and  N_2 
REMARK       I    between atoms: C_7  and  N_3 
REMARK    3  A    between atoms: C_21  and  C_7 
REMARK    4  A    between atoms: C_11  and  C_8 
REMARK    5  A    between atoms: O_20  and  C_11 
REMARK    6  A    between atoms: C_12  and  C_23 
REMARK       I    between atoms: N_13  and  C_12 
REMARK    7  A    between atoms: C_22  and  N_13 
REMARK    8  A    between atoms: S_17  and  C_21 
REMARK    9  A    between atoms: C_23  and  S_17 
REMARK   10  A    between atoms: O_24  and  C_18 
ROOT
ATOM      1  C   UNL d   1      52.323  33.235  52.997  0.00  0.00     0.183 A 
ATOM      2  N   UNL d   1      52.593  32.606  53.464  0.00  0.00    -0.280 N 
ATOM      3  S   UNL d   1      52.754  33.914  53.210  0.00  0.00    -0.048 SA
ATOM      4  C   UNL d   1      53.290  33.698  53.810  0.00  0.00     0.050 A 
ATOM      5  C   UNL d   1      53.191  32.891  53.966  0.00  0.00     0.072 A 
ATOM      6  C   UNL d   1      53.853  34.142  54.227  0.00  0.00     0.032 A 
ATOM      7  C   UNL d   1      53.654  32.529  54.540  0.00  0.00     0.020 A 
ATOM      8  C   UNL d   1      54.309  33.764  54.799  0.00  0.00     0.095 A 
ATOM      9  C   UNL d   1      54.210  32.957  54.955  0.00  0.00     0.026 A 
ENDROOT
BRANCH   1  10
ATOM     10  N   UNL d   1      51.730  33.197  52.421  0.00  0.00    -0.183 NA
ATOM     11  C   UNL d   1      51.367  33.944  52.439  0.00  0.00     0.287 C 
ATOM     12  O   UNL d   1      51.636  34.523  52.969  0.00  0.00    -0.265 OA
BRANCH  11  13
ATOM     13  C   UNL d   1      50.742  34.117  51.934  0.00  0.00     0.098 C 
BRANCH  13  14
ATOM     14  S   UNL d   1      50.048  34.465  52.226  0.00  0.00    -0.076 SA
BRANCH  14  15
ATOM     15  C   UNL d   1      49.409  34.608  51.719  0.00  0.00     0.098 C 
BRANCH  15  16
ATOM     16  C   UNL d   1      48.741  35.007  51.993  0.00  0.00     0.286 C 
ATOM     17  N   UNL d   1      48.152  35.238  51.463  0.00  0.00    -0.208 NA
ATOM     18  O   UNL d   1      48.668  35.175  52.803  0.00  0.00    -0.265 OA
BRANCH  17  19
ATOM     19  C   UNL d   1      47.481  35.640  51.744  0.00  0.00     0.085 A 
ATOM     20  C   UNL d   1      46.735  35.364  51.550  0.00  0.00     0.019 A 
ATOM     21  C   UNL d   1      46.072  35.764  51.829  0.00  0.00     0.002 A 
ATOM     22  C   UNL d   1      46.163  36.442  52.304  0.00  0.00     0.000 A 
ATOM     23  C   UNL d   1      46.924  36.708  52.491  0.00  0.00     0.002 A 
ATOM     24  C   UNL d   1      47.587  36.309  52.212  0.00  0.00     0.019 A 
ENDBRANCH  17  19
ENDBRANCH  15  16
ENDBRANCH  14  15
ENDBRANCH  13  14
ENDBRANCH  11  13
ENDBRANCH   1  10
BRANCH   2  25
ATOM     25  C   UNL d   1      52.314  31.836  53.430  0.00  0.00     0.151 C 
BRANCH  25  26
ATOM     26  C   UNL d   1      52.716  31.260  53.003  0.00  0.00     0.314 C 
ATOM     27  O   UNL d   1      52.954  31.408  52.225  0.00  0.00    -0.257 OA
BRANCH  26  28
ATOM     28  O   UNL d   1      52.882  30.523  53.366  0.00  0.00    -0.295 OA
ATOM     29  C   UNL d   1      52.930  29.841  52.896  0.00  0.00     0.185 C 
ENDBRANCH  26  28
ENDBRANCH  25  26
ENDBRANCH   2  25
BRANCH   8  30
ATOM     30  O   UNL d   1      54.877  34.197  55.225  0.00  0.00    -0.328 OA
ATOM     31  C   UNL d   1      55.483  33.808  55.614  0.00  0.00     0.181 C 
ENDBRANCH   8  30
TORSDOF 10
ENDMDL
MODEL 2
REMARK VINA RESULT:      -7.8      1.057      2.545
REMARK  10 active torsions:
REMARK  status: ('A' for Active; 'I' for Inactive)
REMARK    1  A    between atoms: N_3  and  C_1 
REMARK    2  A    between atoms: C_8  and  N_2 
REMARK       I    between atoms: C_7  and  N_3 
REMARK    3  A    between atoms: C_21  and  C_7 
REMARK    4  A    between atoms: C_11  and  C_8 
REMARK    5  A    between atoms: O_20  and  C_11 
REMARK    6  A    between atoms: C_12  and  C_23 
REMARK       I    between atoms: N_13  and  C_12 
REMARK    7  A    between atoms: C_22  and  N_13 
REMARK    8  A    between atoms: S_17  and  C_21 
REMARK    9  A    between atoms: C_23  and  S_17 
REMARK   10  A    between atoms: O_24  and  C_18 
ROOT
ATOM      1  C   UNL d   1      52.598  32.951  53.133  0.00  0.00     0.183 A 
ATOM      2  N   UNL d   1      53.341  32.702  53.404  0.00  0.00    -0.280 N 
ATOM      3  S   UNL d   1      52.136  32.272  52.999  0.00  0.00    -0.048 SA
ATOM      4  C   UNL d   1      52.597  31.606  53.190  0.00  0.00     0.050 A 
ATOM      5  C   UNL d   1      53.341  31.872  53.440  0.00  0.00     0.072 A 
ATOM      6  C   UNL d   1      52.425  30.795  53.165  0.00  0.00     0.032 A 
ATOM      7  C   UNL d   1      53.912  31.325  53.665  0.00  0.00     0.020 A 
ATOM      8  C   UNL d   1      53.009  30.261  53.393  0.00  0.00     0.095 A 
ATOM      9  C   UNL d   1      53.753  30.526  53.643  0.00  0.00     0.026 A 
ENDROOT
BRANCH   1  10
ATOM     10  N   UNL d   1      52.358  33.734  53.014  0.00  0.00    -0.183 NA
ATOM     11  C   UNL d   1      51.539  33.689  52.887  0.00  0.00     0.287 C 
ATOM     12  O   UNL d   1      51.157  32.952  52.900  0.00  0.00    -0.265 OA
BRANCH  11  13
ATOM     13  C   UNL d   1      51.100  34.370  52.747  0.00  0.00     0.098 C 
BRANCH  13  14
ATOM     14  S   UNL d   1      50.278  34.372  52.860  0.00  0.00    -0.076 SA
BRANCH  14  15
ATOM     15  C   UNL d   1      49.898  35.055  53.134  0.00  0.00     0.098 C 
BRANCH  15  16
ATOM     16  C   UNL d   1      49.122  35.218  52.909  0.00  0.00     0.286 C 
ATOM     17  N   UNL d   1      48.711  35.840  53.263  0.00  0.00    -0.208 NA
ATOM     18  O   UNL d   1      48.758  34.753  52.325  0.00  0.00    -0.265 OA
BRANCH  17  19
ATOM     19  C   UNL d   1      47.929  36.000  53.033  0.00  0.00     0.085 A 
ATOM     20  C   UNL d   1      47.775  36.253  52.270  0.00  0.00     0.019 A 
ATOM     21  C   UNL d   1      47.000  36.411  52.045  0.00  0.00     0.002 A 
ATOM     22  C   UNL d   1      46.379  36.314  52.592  0.00  0.00     0.000 A 
ATOM     23  C   UNL d   1      46.551  36.058  53.360  0.00  0.00     0.002 A 
ATOM     24  C   UNL d   1      47.325  35.899  53.585  0.00  0.00     0.019 A 
ENDBRANCH  17  19
ENDBRANCH  15  16
ENDBRANCH  14  15
ENDBRANCH  13  14
ENDBRANCH  11  13
ENDBRANCH   1  10
BRANCH   2  25
ATOM     25  C   UNL d   1      53.964  33.196  53.602  0.00  0.00     0.151 C 
BRANCH  25  26
ATOM     26  C   UNL d   1      54.148  33.347  54.389  0.00  0.00     0.314 C 
ATOM     27  O   UNL d   1      53.551  33.535  54.929  0.00  0.00    -0.257 OA
BRANCH  26  28
ATOM     28  O   UNL d   1      54.949  33.307  54.636  0.00  0.00    -0.295 OA
ATOM     29  C   UNL d   1      55.226  33.845  55.204  0.00  0.00     0.185 C 
ENDBRANCH  26  28
ENDBRANCH  25  26
ENDBRANCH   2  25
BRANCH   8  30
ATOM     30  O   UNL d   1      52.850  29.445  53.373  0.00  0.00    -0.328 OA
ATOM     31  C   UNL d   1      53.011  28.979  54.027  0.00  0.00     0.181 C 
ENDBRANCH   8  30
TORSDOF 10
ENDMDL
MODEL 3
REMARK VINA RESULT:      -5.7      1.565      7.002
REMARK  10 active torsions:
REMARK  status: ('A' for Active; 'I' for Inactive)
REMARK    1  A    between atoms: N_3  and  C_1 
REMARK    2  A    between atoms: C_8  and  N_2 
REMARK       I    between atoms: C_7  and  N_3 
REMARK    3  A    between atoms: C_21  and  C_7 
REMARK    4  A    between atoms: C_11  and  C_8 
REMARK    5  A    between atoms: O_20  and  C_11 
REMARK    6  A    between atoms: C_12  and  C_23 
REMARK       I    between atoms: N_13  and  C_12 
REMARK    7  A    between atoms: C_22  and  N_13 
REMARK    8  A    between atoms: S_17  and  C_21 
REMARK    9  A    between atoms: C_23  and  S_17 
REMARK   10  A    between atoms: O_24  and  C_18 
ROOT
ATOM      1  C   UNL d   1      48.025  35.601  52.431  0.00  0.00     0.183 A 
ATOM      2  N   UNL d   1      47.476  36.092  52.811  0.00  0.00    -0.280 N 
ATOM      3  S   UNL d   1      47.655  35.274  51.762  0.00  0.00    -0.048 SA
ATOM      4  C   UNL d   1      46.876  35.566  51.733  0.00  0.00     0.050 A 
ATOM      5  C   UNL d   1      46.766  36.071  52.380  0.00  0.00     0.072 A 
ATOM      6  C   UNL d   1      46.259  35.431  51.194  0.00  0.00     0.032 A 
ATOM      7  C   UNL d   1      46.039  36.440  52.489  0.00  0.00     0.020 A 
ATOM      8  C   UNL d   1      45.538  35.808  51.317  0.00  0.00     0.095 A 
ATOM      9  C   UNL d   1      45.428  36.313  51.964  0.00  0.00     0.026 A 
ENDROOT
BRANCH   1  10
ATOM     10  N   UNL d   1      48.805  35.461  52.673  0.00  0.00    -0.183 NA
ATOM     11  C   UNL d   1      49.153  35.049  52.041  0.00  0.00     0.287 C 
ATOM     12  O   UNL d   1      48.707  34.876  51.363  0.00  0.00    -0.265 OA
BRANCH  11  13
ATOM     13  C   UNL d   1      49.938  34.811  52.081  0.00  0.00     0.098 C 
BRANCH  13  14
ATOM     14  S   UNL d   1      50.174  34.222  52.616  0.00  0.00    -0.076 SA
BRANCH  14  15
ATOM     15  C   UNL d   1      50.804  33.718  52.429  0.00  0.00     0.098 C 
BRANCH  15  16
ATOM     16  C   UNL d   1      51.345  33.494  53.009  0.00  0.00     0.286 C 
ATOM     17  N   UNL d   1      52.142  33.695  52.932  0.00  0.00    -0.208 NA
ATOM     18  O   UNL d   1      51.082  33.066  53.671  0.00  0.00    -0.265 OA
BRANCH  17  19
ATOM     19  C   UNL d   1      52.683  33.467  53.520  0.00  0.00     0.085 A 
ATOM     20  C   UNL d   1      52.970  32.701  53.529  0.00  0.00     0.019 A 
ATOM     21  C   UNL d   1      53.506  32.477  54.112  0.00  0.00     0.002 A 
ATOM     22  C   UNL d   1      53.751  33.028  54.687  0.00  0.00     0.000 A 
ATOM     23  C   UNL d   1      53.451  33.799  54.664  0.00  0.00     0.002 A 
ATOM     24  C   UNL d   1      52.916  34.023  54.081  0.00  0.00     0.019 A 
ENDBRANCH  17  19
ENDBRANCH  15  16
ENDBRANCH  14  15
ENDBRANCH  13  14
ENDBRANCH  11  13
ENDBRANCH   1  10
BRANCH   2  25
ATOM     25  C   UNL d   1      47.617  36.522  53.495  0.00  0.00     0.151 C 
BRANCH  25  26
ATOM     26  C   UNL d   1      47.349  36.252  54.224  0.00  0.00     0.314 C 
ATOM     27  O   UNL d   1      47.629  35.539  54.534  0.00  0.00    -0.257 OA
BRANCH  26  28
ATOM     28  O   UNL d   1      46.788  36.709  54.648  0.00  0.00    -0.295 OA
ATOM     29  C   UNL d   1      46.805  36.706  55.477  0.00  0.00     0.185 C 
ENDBRANCH  26  28
ENDBRANCH  25  26
ENDBRANCH   2  25
BRANCH   8  30
ATOM     30  O   UNL d   1      44.912  35.681  50.785  0.00  0.00    -0.328 OA
ATOM     31  C   UNL d   1      44.421  35.032  50.876  0.00  0.00     0.181 C 
ENDBRANCH   8  30
TORSDOF 10
ENDMDL
