MODEL 1
REMARK VINA RESULT:      -3.5      0.000      0.000
REMARK  3 active torsions:
REMARK  status: ('A' for Active; 'I' for Inactive)
REMARK    1  A    between atoms: C_9  and  C_5 
REMARK    2  A    between atoms: C_10  and  C_6 
REMARK    3  A    between atoms: O_16  and  C_13 
ROOT
ATOM      1  N   UNL d   1     -41.641-122.157 -52.075  0.00  0.00    -0.205 N 
ATOM      2  C   UNL d   1     -41.440-121.481 -51.645  0.00  0.00     0.197 A 
ATOM      3  N   UNL d   1     -41.629-121.618 -50.849  0.00  0.00    -0.200 NA
ATOM      4  N   UNL d   1     -41.953-122.710 -51.547  0.00  0.00    -0.144 NA
ATOM      5  C   UNL d   1     -41.946-122.379 -50.794  0.00  0.00     0.184 A 
ATOM      6  C   UNL d   1     -41.455-122.026 -52.872  0.00  0.00     0.092 A 
ATOM      7  S   UNL d   1     -41.125-120.926 -52.181  0.00  0.00    -0.046 SA
ATOM      8  C   UNL d   1     -41.137-121.269 -52.939  0.00  0.00     0.058 A 
ENDROOT
BRANCH   5   9
ATOM      9  C   UNL d   1     -42.206-122.736 -50.105  0.00  0.00     0.038 A 
ATOM     10  C   UNL d   1     -41.664-123.015 -49.556  0.00  0.00     0.005 A 
ATOM     11  C   UNL d   1     -41.924-123.375 -48.860  0.00  0.00     0.024 A 
ATOM     12  C   UNL d   1     -42.726-123.456 -48.716  0.00  0.00     0.094 A 
ATOM     13  C   UNL d   1     -43.280-123.177 -49.269  0.00  0.00     0.024 A 
ATOM     14  C   UNL d   1     -43.016-122.818 -49.961  0.00  0.00     0.005 A 
BRANCH  12  15
ATOM     15  O   UNL d   1     -42.986-123.817 -48.020  0.00  0.00    -0.328 OA
ATOM     16  C   UNL d   1     -42.670-123.580 -47.289  0.00  0.00     0.181 C 
ENDBRANCH  12  15
ENDBRANCH   5   9
BRANCH   6  17
ATOM     17  C   UNL d   1     -41.571-122.568 -53.489  0.00  0.00     0.018 A 
ATOM     18  C   UNL d   1     -42.124-122.418 -54.081  0.00  0.00     0.002 A 
ATOM     19  C   UNL d   1     -42.236-122.959 -54.692  0.00  0.00     0.000 A 
ATOM     20  C   UNL d   1     -41.791-123.661 -54.716  0.00  0.00     0.000 A 
ATOM     21  C   UNL d   1     -41.239-123.811 -54.124  0.00  0.00     0.000 A 
ATOM     22  C   UNL d   1     -41.123-123.273 -53.510  0.00  0.00     0.002 A 
ENDBRANCH   6  17
TORSDOF 3
ENDMDL
MODEL 2
REMARK VINA RESULT:      -2.7      1.820      4.574
REMARK  3 active torsions:
REMARK  status: ('A' for Active; 'I' for Inactive)
REMARK    1  A    between atoms: C_9  and  C_5 
REMARK    2  A    between atoms: C_10  and  C_6 
REMARK    3  A    between atoms: O_16  and  C_13 
ROOT
ATOM      1  N   UNL d   1     -41.750-122.009 -51.180  0.00  0.00    -0.205 N 
ATOM      2  C   UNL d   1     -41.331-121.329 -51.392  0.00  0.00     0.197 A 
ATOM      3  N   UNL d   1     -41.282-121.306 -52.220  0.00  0.00    -0.200 NA
ATOM      4  N   UNL d   1     -41.959-122.405 -51.873  0.00  0.00    -0.144 NA
ATOM      5  C   UNL d   1     -41.672-121.974 -52.513  0.00  0.00     0.184 A 
ATOM      6  C   UNL d   1     -41.802-122.037 -50.353  0.00  0.00     0.092 A 
ATOM      7  S   UNL d   1     -41.123-120.933 -50.690  0.00  0.00    -0.046 SA
ATOM      8  C   UNL d   1     -41.417-121.376 -50.050  0.00  0.00     0.058 A 
ENDROOT
BRANCH   5   9
ATOM      9  C   UNL d   1     -41.754-122.166 -53.304  0.00  0.00     0.038 A 
ATOM     10  C   UNL d   1     -42.233-121.711 -53.791  0.00  0.00     0.005 A 
ATOM     11  C   UNL d   1     -42.317-121.904 -54.589  0.00  0.00     0.024 A 
ATOM     12  C   UNL d   1     -41.923-122.551 -54.898  0.00  0.00     0.094 A 
ATOM     13  C   UNL d   1     -41.437-123.016 -54.410  0.00  0.00     0.024 A 
ATOM     14  C   UNL d   1     -41.355-122.820 -53.615  0.00  0.00     0.005 A 
BRANCH  12  15
ATOM     15  O   UNL d   1     -42.007-122.744 -55.697  0.00  0.00    -0.328 OA
ATOM     16  C   UNL d   1     -42.626-122.408 -56.139  0.00  0.00     0.181 C 
ENDBRANCH  12  15
ENDBRANCH   5   9
BRANCH   6  17
ATOM     17  C   UNL d   1     -42.179-122.632 -49.915  0.00  0.00     0.018 A 
ATOM     18  C   UNL d   1     -41.741-123.228 -49.553  0.00  0.00     0.002 A 
ATOM     19  C   UNL d   1     -42.119-123.817 -49.118  0.00  0.00     0.000 A 
ATOM     20  C   UNL d   1     -42.947-123.814 -49.042  0.00  0.00     0.000 A 
ATOM     21  C   UNL d   1     -43.384-123.218 -49.403  0.00  0.00     0.000 A 
ATOM     22  C   UNL d   1     -43.010-122.626 -49.839  0.00  0.00     0.002 A 
ENDBRANCH   6  17
TORSDOF 3
ENDMDL
