MODEL 1
REMARK VINA RESULT:      -3.3      0.000      0.000
REMARK  6 active torsions:
REMARK  status: ('A' for Active; 'I' for Inactive)
REMARK    1  A    between atoms: N_9  and  C_1 
REMARK    2  A    between atoms: C_15  and  N_4 
REMARK    3  A    between atoms: C_7  and  N_9 
REMARK    4  A    between atoms: C_12  and  C_11 
REMARK    5  A    between atoms: C_13  and  C_12 
REMARK       I    between atoms: N_16  and  C_13 
REMARK    6  A    between atoms: C_20  and  N_16 
ROOT
ATOM      1  N   UNL d   1      58.538   0.301  31.326  0.00  0.00    -0.182 NA
ATOM      2  C   UNL d   1      57.773   0.175  31.040  0.00  0.00     0.197 A 
ATOM      3  C   UNL d   1      58.485   0.497  32.124  0.00  0.00     0.287 A 
ATOM      4  S   UNL d   1      57.244   0.295  31.666  0.00  0.00    -0.043 SA
ATOM      5  C   UNL d   1      57.686   0.492  32.330  0.00  0.00     0.095 A 
ATOM      6  O   UNL d   1      59.120   0.667  32.627  0.00  0.00    -0.265 OA
ENDROOT
BRANCH   2   7
ATOM      7  N   UNL d   1      57.575  -0.032  30.265  0.00  0.00    -0.215 NA
BRANCH   7   8
ATOM      8  C   UNL d   1      58.074  -0.510  29.831  0.00  0.00     0.159 A 
ATOM      9  C   UNL d   1      58.070  -1.340  29.835  0.00  0.00     0.298 A 
ATOM     10  N   UNL d   1      58.664  -1.596  29.316  0.00  0.00    -0.209 N 
ATOM     11  O   UNL d   1      57.568  -1.819  30.272  0.00  0.00    -0.263 OA
ATOM     12  N   UNL d   1      59.030  -0.930  28.997  0.00  0.00    -0.238 N 
ATOM     13  C   UNL d   1      58.664  -0.258  29.315  0.00  0.00     0.104 A 
ATOM     14  C   UNL d   1      59.648  -0.929  28.458  0.00  0.00     0.120 C 
ATOM     15  C   UNL d   1      58.853   0.521  29.151  0.00  0.00     0.022 C 
BRANCH  10  16
ATOM     16  C   UNL d   1      58.854  -2.372  29.152  0.00  0.00     0.085 A 
ATOM     17  C   UNL d   1      59.583  -2.680  29.395  0.00  0.00     0.019 A 
ATOM     18  C   UNL d   1      59.772  -3.457  29.230  0.00  0.00     0.002 A 
ATOM     19  C   UNL d   1      59.238  -3.946  28.819  0.00  0.00     0.000 A 
ATOM     20  C   UNL d   1      58.513  -3.637  28.579  0.00  0.00     0.002 A 
ATOM     21  C   UNL d   1      58.321  -2.853  28.745  0.00  0.00     0.019 A 
ENDBRANCH  10  16
ENDBRANCH   7   8
ENDBRANCH   2   7
BRANCH   5  22
ATOM     22  C   UNL d   1      57.386   0.658  33.080  0.00  0.00     0.074 C 
BRANCH  22  23
ATOM     23  C   UNL d   1      56.575   0.649  33.208  0.00  0.00     0.280 C 
ATOM     24  N   UNL d   1      56.274   0.608  33.969  0.00  0.00    -0.208 NA
ATOM     25  O   UNL d   1      56.053   0.680  32.566  0.00  0.00    -0.265 OA
BRANCH  24  26
ATOM     26  C   UNL d   1      55.462   0.599  34.094  0.00  0.00     0.085 A 
ATOM     27  C   UNL d   1      54.952   0.508  33.452  0.00  0.00     0.020 A 
ATOM     28  C   UNL d   1      54.135   0.499  33.575  0.00  0.00     0.013 A 
ATOM     29  C   UNL d   1      53.835   0.581  34.346  0.00  0.00     0.058 A 
ATOM     30  C   UNL d   1      54.346   0.670  34.978  0.00  0.00     0.013 A 
ATOM     31 CL   UNL d   1      53.018   0.571  34.468  0.00  0.00    -0.082 Cl
ATOM     32  C   UNL d   1      55.163   0.680  34.856  0.00  0.00     0.020 A 
ENDBRANCH  24  26
ENDBRANCH  22  23
ENDBRANCH   5  22
TORSDOF 6
ENDMDL
