MODEL 1
REMARK VINA RESULT:      -3.3      0.000      0.000
REMARK  3 active torsions:
REMARK  status: ('A' for Active; 'I' for Inactive)
REMARK    1  A    between atoms: O_7  and  C_1 
REMARK    2  A    between atoms: C_12  and  O_7 
REMARK    3  A    between atoms: O_20  and  C_14 
ROOT
ATOM      1  C   UNL d   1      30.925  16.781 -24.150  0.00  0.00     0.163 A 
ATOM      2  C   UNL d   1      30.596  16.164 -23.736  0.00  0.00     0.222 A 
ATOM      3  C   UNL d   1      29.781  16.111 -23.675  0.00  0.00     0.064 A 
ATOM      4  C   UNL d   1      29.306  16.690 -24.040  0.00  0.00     0.106 A 
ATOM      5  C   UNL d   1      30.477  17.327 -24.494  0.00  0.00     0.150 A 
ATOM      6  O   UNL d   1      29.664  17.301 -24.451  0.00  0.00    -0.303 OA
ATOM      7  C   UNL d   1      29.418  15.497 -23.262  0.00  0.00     0.009 A 
ATOM      8  C   UNL d   1      28.487  16.634 -23.977  0.00  0.00     0.067 A 
ATOM      9  O   UNL d   1      31.070  15.585 -23.371  0.00  0.00    -0.284 OA
ATOM     10  C   UNL d   1      28.147  16.008 -23.556  0.00  0.00     0.198 A 
ATOM     11  C   UNL d   1      28.595  15.461 -23.212  0.00  0.00     0.042 A 
ATOM     12  O   UNL d   1      27.314  15.938 -23.485  0.00  0.00    -0.286 OA
ENDROOT
BRANCH   1  13
ATOM     13  O   UNL d   1      31.795  16.843 -24.218  0.00  0.00    -0.302 OA
BRANCH  13  14
ATOM     14  C   UNL d   1      32.147  17.577 -24.285  0.00  0.00     0.100 A 
ATOM     15  C   UNL d   1      32.227  17.954 -25.034  0.00  0.00     0.027 A 
ATOM     16  C   UNL d   1      32.582  18.689 -25.094  0.00  0.00     0.026 A 
ATOM     17  C   UNL d   1      32.873  19.078 -24.398  0.00  0.00     0.094 A 
ATOM     18  C   UNL d   1      32.793  18.701 -23.650  0.00  0.00     0.026 A 
ATOM     19  C   UNL d   1      32.430  17.954 -23.607  0.00  0.00     0.027 A 
BRANCH  17  20
ATOM     20  O   UNL d   1      33.241  19.830 -24.420  0.00  0.00    -0.328 OA
ATOM     21  C   UNL d   1      33.227  20.412 -25.029  0.00  0.00     0.181 C 
ENDBRANCH  17  20
ENDBRANCH  13  14
ENDBRANCH   1  13
TORSDOF 3
ENDMDL
MODEL 2
REMARK VINA RESULT:      -3.3      2.283      5.161
REMARK  3 active torsions:
REMARK  status: ('A' for Active; 'I' for Inactive)
REMARK    1  A    between atoms: O_7  and  C_1 
REMARK    2  A    between atoms: C_12  and  O_7 
REMARK    3  A    between atoms: O_20  and  C_14 
ROOT
ATOM      1  C   UNL d   1      33.241  19.319 -22.862  0.00  0.00     0.163 A 
ATOM      2  C   UNL d   1      33.241  20.130 -22.919  0.00  0.00     0.222 A 
ATOM      3  C   UNL d   1      33.241  20.581 -22.236  0.00  0.00     0.064 A 
ATOM      4  C   UNL d   1      33.241  20.200 -21.496  0.00  0.00     0.106 A 
ATOM      5  C   UNL d   1      33.241  18.959 -22.163  0.00  0.00     0.150 A 
ATOM      6  O   UNL d   1      33.241  19.381 -21.466  0.00  0.00    -0.303 OA
ATOM      7  C   UNL d   1      33.241  21.404 -22.262  0.00  0.00     0.009 A 
ATOM      8  C   UNL d   1      33.241  20.656 -20.810  0.00  0.00     0.067 A 
ATOM      9  O   UNL d   1      33.240  20.511 -23.660  0.00  0.00    -0.284 OA
ATOM     10  C   UNL d   1      33.241  21.481 -20.864  0.00  0.00     0.198 A 
ATOM     11  C   UNL d   1      33.241  21.841 -21.563  0.00  0.00     0.042 A 
ATOM     12  O   UNL d   1      33.241  21.958 -20.174  0.00  0.00    -0.286 OA
ENDROOT
BRANCH   1  13
ATOM     13  O   UNL d   1      33.241  18.832 -23.588  0.00  0.00    -0.302 OA
BRANCH  13  14
ATOM     14  C   UNL d   1      32.813  18.136 -23.613  0.00  0.00     0.100 A 
ATOM     15  C   UNL d   1      32.012  18.128 -23.870  0.00  0.00     0.027 A 
ATOM     16  C   UNL d   1      31.590  17.427 -23.893  0.00  0.00     0.026 A 
ATOM     17  C   UNL d   1      31.958  16.701 -23.656  0.00  0.00     0.094 A 
ATOM     18  C   UNL d   1      32.760  16.709 -23.398  0.00  0.00     0.026 A 
ATOM     19  C   UNL d   1      33.174  17.430 -23.381  0.00  0.00     0.027 A 
BRANCH  17  20
ATOM     20  O   UNL d   1      31.559  15.965 -23.665  0.00  0.00    -0.328 OA
ATOM     21  C   UNL d   1      30.784  15.777 -23.392  0.00  0.00     0.181 C 
ENDBRANCH  17  20
ENDBRANCH  13  14
ENDBRANCH   1  13
TORSDOF 3
ENDMDL
MODEL 3
REMARK VINA RESULT:      -3.0      1.400      1.986
REMARK  3 active torsions:
REMARK  status: ('A' for Active; 'I' for Inactive)
REMARK    1  A    between atoms: O_7  and  C_1 
REMARK    2  A    between atoms: C_12  and  O_7 
REMARK    3  A    between atoms: O_20  and  C_14 
ROOT
ATOM      1  C   UNL d   1      32.279  17.613 -23.937  0.00  0.00     0.163 A 
ATOM      2  C   UNL d   1      32.076  16.851 -23.740  0.00  0.00     0.222 A 
ATOM      3  C   UNL d   1      31.347  16.558 -23.968  0.00  0.00     0.064 A 
ATOM      4  C   UNL d   1      30.827  17.047 -24.397  0.00  0.00     0.106 A 
ATOM      5  C   UNL d   1      31.789  18.075 -24.342  0.00  0.00     0.150 A 
ATOM      6  O   UNL d   1      31.057  17.811 -24.582  0.00  0.00    -0.303 OA
ATOM      7  C   UNL d   1      31.113  15.790 -23.784  0.00  0.00     0.009 A 
ATOM      8  C   UNL d   1      30.094  16.749 -24.626  0.00  0.00     0.067 A 
ATOM      9  O   UNL d   1      32.596  16.362 -23.311  0.00  0.00    -0.284 OA
ATOM     10  C   UNL d   1      29.883  15.974 -24.428  0.00  0.00     0.198 A 
ATOM     11  C   UNL d   1      30.374  15.513 -24.023  0.00  0.00     0.042 A 
ATOM     12  O   UNL d   1      29.140  15.658 -24.654  0.00  0.00    -0.286 OA
ENDROOT
BRANCH   1  13
ATOM     13  O   UNL d   1      33.057  17.932 -23.696  0.00  0.00    -0.302 OA
BRANCH  13  14
ATOM     14  C   UNL d   1      33.104  18.659 -23.327  0.00  0.00     0.100 A 
ATOM     15  C   UNL d   1      33.193  19.368 -23.773  0.00  0.00     0.027 A 
ATOM     16  C   UNL d   1      33.240  20.093 -23.396  0.00  0.00     0.026 A 
ATOM     17  C   UNL d   1      33.197  20.136 -22.550  0.00  0.00     0.094 A 
ATOM     18  C   UNL d   1      33.108  19.427 -22.104  0.00  0.00     0.026 A 
ATOM     19  C   UNL d   1      33.062  18.699 -22.503  0.00  0.00     0.027 A 
BRANCH  17  20
ATOM     20  O   UNL d   1      33.241  20.859 -22.130  0.00  0.00    -0.328 OA
ATOM     21  C   UNL d   1      33.089  21.011 -21.315  0.00  0.00     0.181 C 
ENDBRANCH  17  20
ENDBRANCH  13  14
ENDBRANCH   1  13
TORSDOF 3
ENDMDL
MODEL 4
REMARK VINA RESULT:      -2.7      1.884      2.858
REMARK  3 active torsions:
REMARK  status: ('A' for Active; 'I' for Inactive)
REMARK    1  A    between atoms: O_7  and  C_1 
REMARK    2  A    between atoms: C_12  and  O_7 
REMARK    3  A    between atoms: O_20  and  C_14 
ROOT
ATOM      1  C   UNL d   1      32.572  18.418 -23.444  0.00  0.00     0.163 A 
ATOM      2  C   UNL d   1      32.420  17.625 -23.356  0.00  0.00     0.222 A 
ATOM      3  C   UNL d   1      31.792  17.289 -23.761  0.00  0.00     0.064 A 
ATOM      4  C   UNL d   1      31.324  17.768 -24.255  0.00  0.00     0.106 A 
ATOM      5  C   UNL d   1      32.130  18.870 -23.910  0.00  0.00     0.150 A 
ATOM      6  O   UNL d   1      31.500  18.564 -24.326  0.00  0.00    -0.303 OA
ATOM      7  C   UNL d   1      31.613  16.488 -23.692  0.00  0.00     0.009 A 
ATOM      8  C   UNL d   1      30.693  17.427 -24.662  0.00  0.00     0.067 A 
ATOM      9  O   UNL d   1      32.889  17.146 -22.861  0.00  0.00    -0.284 OA
ATOM     10  C   UNL d   1      30.534  16.620 -24.575  0.00  0.00     0.198 A 
ATOM     11  C   UNL d   1      30.977  16.168 -24.108  0.00  0.00     0.042 A 
ATOM     12  O   UNL d   1      29.895  16.260 -24.983  0.00  0.00    -0.286 OA
ENDROOT
BRANCH   1  13
ATOM     13  O   UNL d   1      33.241  18.783 -23.014  0.00  0.00    -0.302 OA
BRANCH  13  14
ATOM     14  C   UNL d   1      33.143  19.503 -22.642  0.00  0.00     0.100 A 
ATOM     15  C   UNL d   1      32.945  19.547 -21.825  0.00  0.00     0.027 A 
ATOM     16  C   UNL d   1      32.848  20.272 -21.459  0.00  0.00     0.026 A 
ATOM     17  C   UNL d   1      32.948  20.989 -21.902  0.00  0.00     0.094 A 
ATOM     18  C   UNL d   1      33.147  20.945 -22.719  0.00  0.00     0.026 A 
ATOM     19  C   UNL d   1      33.241  20.199 -23.075  0.00  0.00     0.027 A 
BRANCH  17  20
ATOM     20  O   UNL d   1      32.858  21.749 -21.562  0.00  0.00    -0.328 OA
ATOM     21  C   UNL d   1      32.379  21.987 -20.911  0.00  0.00     0.181 C 
ENDBRANCH  17  20
ENDBRANCH  13  14
ENDBRANCH   1  13
TORSDOF 3
ENDMDL
MODEL 5
REMARK VINA RESULT:      -2.1      1.896      4.773
REMARK  3 active torsions:
REMARK  status: ('A' for Active; 'I' for Inactive)
REMARK    1  A    between atoms: O_7  and  C_1 
REMARK    2  A    between atoms: C_12  and  O_7 
REMARK    3  A    between atoms: O_20  and  C_14 
ROOT
ATOM      1  C   UNL d   1      33.211  18.580 -23.251  0.00  0.00     0.163 A 
ATOM      2  C   UNL d   1      33.201  19.097 -22.625  0.00  0.00     0.222 A 
ATOM      3  C   UNL d   1      33.211  19.903 -22.770  0.00  0.00     0.064 A 
ATOM      4  C   UNL d   1      33.231  20.176 -23.556  0.00  0.00     0.106 A 
ATOM      5  C   UNL d   1      33.230  18.838 -23.994  0.00  0.00     0.150 A 
ATOM      6  O   UNL d   1      33.240  19.633 -24.169  0.00  0.00    -0.303 OA
ATOM      7  C   UNL d   1      33.202  20.452 -22.155  0.00  0.00     0.009 A 
ATOM      8  C   UNL d   1      33.241  20.988 -23.699  0.00  0.00     0.067 A 
ATOM      9  O   UNL d   1      33.181  18.825 -21.838  0.00  0.00    -0.284 OA
ATOM     10  C   UNL d   1      33.231  21.518 -23.064  0.00  0.00     0.198 A 
ATOM     11  C   UNL d   1      33.212  21.260 -22.322  0.00  0.00     0.042 A 
ATOM     12  O   UNL d   1      33.241  22.346 -23.195  0.00  0.00    -0.286 OA
ENDROOT
BRANCH   1  13
ATOM     13  O   UNL d   1      33.200  17.718 -23.104  0.00  0.00    -0.302 OA
BRANCH  13  14
ATOM     14  C   UNL d   1      32.774  17.225 -23.595  0.00  0.00     0.100 A 
ATOM     15  C   UNL d   1      33.160  16.740 -24.166  0.00  0.00     0.027 A 
ATOM     16  C   UNL d   1      32.726  16.248 -24.655  0.00  0.00     0.026 A 
ATOM     17  C   UNL d   1      31.880  16.222 -24.590  0.00  0.00     0.094 A 
ATOM     18  C   UNL d   1      31.495  16.706 -24.019  0.00  0.00     0.026 A 
ATOM     19  C   UNL d   1      31.951  17.200 -23.530  0.00  0.00     0.027 A 
BRANCH  17  20
ATOM     20  O   UNL d   1      31.404  15.732 -25.073  0.00  0.00    -0.328 OA
ATOM     21  C   UNL d   1      30.613  15.467 -24.947  0.00  0.00     0.181 C 
ENDBRANCH  17  20
ENDBRANCH  13  14
ENDBRANCH   1  13
TORSDOF 3
ENDMDL
MODEL 6
REMARK VINA RESULT:      -1.8      5.880      7.825
REMARK  3 active torsions:
REMARK  status: ('A' for Active; 'I' for Inactive)
REMARK    1  A    between atoms: O_7  and  C_1 
REMARK    2  A    between atoms: C_12  and  O_7 
REMARK    3  A    between atoms: O_20  and  C_14 
ROOT
ATOM      1  C   UNL d   1      32.678  22.845 -20.098  0.00  0.00     0.163 A 
ATOM      2  C   UNL d   1      32.941  22.893 -20.865  0.00  0.00     0.222 A 
ATOM      3  C   UNL d   1      32.949  22.219 -21.330  0.00  0.00     0.064 A 
ATOM      4  C   UNL d   1      32.686  21.498 -21.007  0.00  0.00     0.106 A 
ATOM      5  C   UNL d   1      32.430  22.165 -19.793  0.00  0.00     0.150 A 
ATOM      6  O   UNL d   1      32.426  21.478 -20.230  0.00  0.00    -0.303 OA
ATOM      7  C   UNL d   1      33.210  22.236 -22.111  0.00  0.00     0.009 A 
ATOM      8  C   UNL d   1      32.695  20.821 -21.476  0.00  0.00     0.067 A 
ATOM      9  O   UNL d   1      33.203  23.614 -21.189  0.00  0.00    -0.284 OA
ATOM     10  C   UNL d   1      32.962  20.865 -22.258  0.00  0.00     0.198 A 
ATOM     11  C   UNL d   1      33.210  21.546 -22.563  0.00  0.00     0.042 A 
ATOM     12  O   UNL d   1      32.977  20.184 -22.747  0.00  0.00    -0.286 OA
ENDROOT
BRANCH   1  13
ATOM     13  O   UNL d   1      32.667  23.562 -19.597  0.00  0.00    -0.302 OA
BRANCH  13  14
ATOM     14  C   UNL d   1      32.591  23.492 -18.787  0.00  0.00     0.100 A 
ATOM     15  C   UNL d   1      31.868  23.680 -18.399  0.00  0.00     0.027 A 
ATOM     16  C   UNL d   1      31.799  23.608 -17.588  0.00  0.00     0.026 A 
ATOM     17  C   UNL d   1      32.461  23.342 -17.127  0.00  0.00     0.094 A 
ATOM     18  C   UNL d   1      33.185  23.155 -17.514  0.00  0.00     0.026 A 
ATOM     19  C   UNL d   1      33.237  23.234 -18.340  0.00  0.00     0.027 A 
BRANCH  17  20
ATOM     20  O   UNL d   1      32.429  23.256 -16.295  0.00  0.00    -0.328 OA
ATOM     21  C   UNL d   1      33.054  23.103 -15.751  0.00  0.00     0.181 C 
ENDBRANCH  17  20
ENDBRANCH  13  14
ENDBRANCH   1  13
TORSDOF 3
ENDMDL
MODEL 7
REMARK VINA RESULT:      -1.8      3.373      5.283
REMARK  3 active torsions:
REMARK  status: ('A' for Active; 'I' for Inactive)
REMARK    1  A    between atoms: O_7  and  C_1 
REMARK    2  A    between atoms: C_12  and  O_7 
REMARK    3  A    between atoms: O_20  and  C_14 
ROOT
ATOM      1  C   UNL d   1      33.152  20.753 -22.422  0.00  0.00     0.163 A 
ATOM      2  C   UNL d   1      32.981  20.390 -23.128  0.00  0.00     0.222 A 
ATOM      3  C   UNL d   1      32.899  19.576 -23.151  0.00  0.00     0.064 A 
ATOM      4  C   UNL d   1      32.992  19.136 -22.451  0.00  0.00     0.106 A 
ATOM      5  C   UNL d   1      33.240  20.338 -21.760  0.00  0.00     0.150 A 
ATOM      6  O   UNL d   1      33.164  19.528 -21.752  0.00  0.00    -0.303 OA
ATOM      7  C   UNL d   1      32.726  19.179 -23.853  0.00  0.00     0.009 A 
ATOM      8  C   UNL d   1      32.909  18.317 -22.477  0.00  0.00     0.067 A 
ATOM      9  O   UNL d   1      32.888  20.830 -23.829  0.00  0.00    -0.284 OA
ATOM     10  C   UNL d   1      32.735  17.943 -23.194  0.00  0.00     0.198 A 
ATOM     11  C   UNL d   1      32.647  18.358 -23.856  0.00  0.00     0.042 A 
ATOM     12  O   UNL d   1      32.648  17.110 -23.236  0.00  0.00    -0.286 OA
ENDROOT
BRANCH   1  13
ATOM     13  O   UNL d   1      33.241  21.623 -22.390  0.00  0.00    -0.302 OA
BRANCH  13  14
ATOM     14  C   UNL d   1      32.940  22.041 -21.756  0.00  0.00     0.100 A 
ATOM     15  C   UNL d   1      33.237  21.924 -20.977  0.00  0.00     0.027 A 
ATOM     16  C   UNL d   1      32.931  22.347 -20.347  0.00  0.00     0.026 A 
ATOM     17  C   UNL d   1      32.309  22.910 -20.475  0.00  0.00     0.094 A 
ATOM     18  C   UNL d   1      32.012  23.027 -21.254  0.00  0.00     0.026 A 
ATOM     19  C   UNL d   1      32.335  22.588 -21.883  0.00  0.00     0.027 A 
BRANCH  17  20
ATOM     20  O   UNL d   1      31.971  23.361 -19.856  0.00  0.00    -0.328 OA
ATOM     21  C   UNL d   1      32.299  23.566 -19.108  0.00  0.00     0.181 C 
ENDBRANCH  17  20
ENDBRANCH  13  14
ENDBRANCH   1  13
TORSDOF 3
ENDMDL
MODEL 8
REMARK VINA RESULT:      -1.7      0.854      4.376
REMARK  3 active torsions:
REMARK  status: ('A' for Active; 'I' for Inactive)
REMARK    1  A    between atoms: O_7  and  C_1 
REMARK    2  A    between atoms: C_12  and  O_7 
REMARK    3  A    between atoms: O_20  and  C_14 
ROOT
ATOM      1  C   UNL d   1      31.506  16.988 -24.427  0.00  0.00     0.163 A 
ATOM      2  C   UNL d   1      32.143  17.287 -24.022  0.00  0.00     0.222 A 
ATOM      3  C   UNL d   1      32.376  18.061 -24.155  0.00  0.00     0.064 A 
ATOM      4  C   UNL d   1      31.954  18.525 -24.701  0.00  0.00     0.106 A 
ATOM      5  C   UNL d   1      31.107  17.426 -24.943  0.00  0.00     0.150 A 
ATOM      6  O   UNL d   1      31.315  18.199 -25.096  0.00  0.00    -0.303 OA
ATOM      7  C   UNL d   1      33.018  18.392 -23.759  0.00  0.00     0.009 A 
ATOM      8  C   UNL d   1      32.190  19.304 -24.833  0.00  0.00     0.067 A 
ATOM      9  O   UNL d   1      32.566  16.822 -23.475  0.00  0.00    -0.284 OA
ATOM     10  C   UNL d   1      32.839  19.612 -24.423  0.00  0.00     0.198 A 
ATOM     11  C   UNL d   1      33.237  19.174 -23.907  0.00  0.00     0.042 A 
ATOM     12  O   UNL d   1      33.090  20.403 -24.547  0.00  0.00    -0.286 OA
ENDROOT
BRANCH   1  13
ATOM     13  O   UNL d   1      31.252  16.162 -24.290  0.00  0.00    -0.302 OA
BRANCH  13  14
ATOM     14  C   UNL d   1      30.467  15.995 -24.137  0.00  0.00     0.100 A 
ATOM     15  C   UNL d   1      29.905  15.941 -24.762  0.00  0.00     0.027 A 
ATOM     16  C   UNL d   1      29.121  15.774 -24.602  0.00  0.00     0.026 A 
ATOM     17  C   UNL d   1      28.866  15.653 -23.801  0.00  0.00     0.094 A 
ATOM     18  C   UNL d   1      29.429  15.708 -23.176  0.00  0.00     0.026 A 
ATOM     19  C   UNL d   1      30.222  15.878 -23.357  0.00  0.00     0.027 A 
BRANCH  17  20
ATOM     20  O   UNL d   1      28.073  15.480 -23.598  0.00  0.00    -0.328 OA
ATOM     21  C   UNL d   1      27.369  15.615 -24.042  0.00  0.00     0.181 C 
ENDBRANCH  17  20
ENDBRANCH  13  14
ENDBRANCH   1  13
TORSDOF 3
ENDMDL
