MODEL 1
REMARK VINA RESULT:      41.1      0.000      0.000
REMARK  4 active torsions:
REMARK  status: ('A' for Active; 'I' for Inactive)
REMARK    1  A    between atoms: C_11  and  C_4 
REMARK    2  A    between atoms: N_10  and  C_5 
REMARK    3  A    between atoms: C_15  and  N_10 
REMARK    4  A    between atoms: C_16  and  C_15 
ROOT
ATOM      1  N   UNL d   1      45.929 -16.313  44.164  0.00  0.00    -0.195 N 
ATOM      2  C   UNL d   1      46.091 -16.758  43.495  0.00  0.00     0.167 A 
ATOM      3  N   UNL d   1      45.844 -16.831  44.790  0.00  0.00    -0.163 NA
ATOM      4  C   UNL d   1      46.106 -17.549  43.712  0.00  0.00     0.055 A 
ATOM      5  C   UNL d   1      45.881 -15.495  44.106  0.00  0.00     0.167 A 
ATOM      6  C   UNL d   1      45.955 -17.593  44.501  0.00  0.00     0.104 A 
ATOM      7  N   UNL d   1      46.206 -16.388  42.766  0.00  0.00    -0.227 NA
ATOM      8  C   UNL d   1      45.996 -15.118  43.373  0.00  0.00     0.058 A 
ATOM      9  C   UNL d   1      46.157 -15.559  42.712  0.00  0.00     0.086 A 
ATOM     10  C   UNL d   1      45.920 -18.293  44.942  0.00  0.00     0.023 C 
ATOM     11  C   UNL d   1      46.273 -15.174  41.974  0.00  0.00     0.021 C 
ENDROOT
BRANCH   5  12
ATOM     12  N   UNL d   1      45.716 -15.045  44.783  0.00  0.00    -0.224 NA
BRANCH  12  13
ATOM     13  C   UNL d   1      46.145 -14.361  44.932  0.00  0.00     0.120 C 
BRANCH  13  14
ATOM     14  C   UNL d   1      45.829 -13.624  44.728  0.00  0.00     0.101 A 
ATOM     15  N   UNL d   1      46.335 -12.980  44.576  0.00  0.00    -0.242 NA
ATOM     16  C   UNL d   1      46.020 -12.246  44.373  0.00  0.00     0.099 A 
ATOM     17  C   UNL d   1      45.197 -12.152  44.320  0.00  0.00     0.021 A 
ATOM     18  C   UNL d   1      44.697 -12.788  44.470  0.00  0.00     0.003 A 
ATOM     19  C   UNL d   1      45.012 -13.521  44.673  0.00  0.00     0.021 A 
ENDBRANCH  13  14
ENDBRANCH  12  13
ENDBRANCH   5  12
BRANCH   4  20
ATOM     20  C   UNL d   1      46.242 -18.243  43.275  0.00  0.00     0.004 A 
ATOM     21  C   UNL d   1      46.317 -18.969  43.658  0.00  0.00     0.001 A 
ATOM     22  C   UNL d   1      46.451 -19.659  43.227  0.00  0.00     0.011 A 
ATOM     23  C   UNL d   1      46.510 -19.618  42.405  0.00  0.00     0.058 A 
ATOM     24  C   UNL d   1      46.434 -18.887  42.018  0.00  0.00     0.011 A 
ATOM     25 CL   UNL d   1      46.647 -20.322  41.968  0.00  0.00    -0.082 Cl
ATOM     26  C   UNL d   1      46.300 -18.201  42.452  0.00  0.00     0.001 A 
ENDBRANCH   4  20
TORSDOF 4
ENDMDL
MODEL 2
REMARK VINA RESULT:      43.9      3.074      4.802
REMARK  4 active torsions:
REMARK  status: ('A' for Active; 'I' for Inactive)
REMARK    1  A    between atoms: C_11  and  C_4 
REMARK    2  A    between atoms: N_10  and  C_5 
REMARK    3  A    between atoms: C_15  and  N_10 
REMARK    4  A    between atoms: C_16  and  C_15 
ROOT
ATOM      1  N   UNL d   1      45.939 -18.179  40.919  0.00  0.00    -0.195 N 
ATOM      2  C   UNL d   1      46.155 -18.829  41.370  0.00  0.00     0.167 A 
ATOM      3  N   UNL d   1      45.737 -17.578  41.433  0.00  0.00    -0.163 NA
ATOM      4  C   UNL d   1      46.084 -18.625  42.161  0.00  0.00     0.055 A 
ATOM      5  C   UNL d   1      45.958 -18.229  40.100  0.00  0.00     0.167 A 
ATOM      6  C   UNL d   1      45.829 -17.863  42.200  0.00  0.00     0.104 A 
ATOM      7  N   UNL d   1      46.390 -19.530  41.005  0.00  0.00    -0.227 NA
ATOM      8  C   UNL d   1      46.195 -18.935  39.727  0.00  0.00     0.058 A 
ATOM      9  C   UNL d   1      46.408 -19.577  40.174  0.00  0.00     0.086 A 
ATOM     10  C   UNL d   1      45.687 -17.441  42.898  0.00  0.00     0.023 C 
ATOM     11  C   UNL d   1      46.647 -20.287  39.794  0.00  0.00     0.021 C 
ENDROOT
BRANCH   5  12
ATOM     12  N   UNL d   1      45.740 -17.572  39.643  0.00  0.00    -0.224 NA
BRANCH  12  13
ATOM     13  C   UNL d   1      45.387 -17.684  38.911  0.00  0.00     0.120 C 
BRANCH  13  14
ATOM     14  C   UNL d   1      45.164 -17.028  38.457  0.00  0.00     0.101 A 
ATOM     15  N   UNL d   1      45.744 -16.502  38.172  0.00  0.00    -0.242 NA
ATOM     16  C   UNL d   1      45.522 -15.849  37.721  0.00  0.00     0.099 A 
ATOM     17  C   UNL d   1      44.720 -15.719  37.551  0.00  0.00     0.021 A 
ATOM     18  C   UNL d   1      44.148 -16.238  37.832  0.00  0.00     0.003 A 
ATOM     19  C   UNL d   1      44.369 -16.891  38.284  0.00  0.00     0.021 A 
ENDBRANCH  13  14
ENDBRANCH  12  13
ENDBRANCH   5  12
BRANCH   4  20
ATOM     20  C   UNL d   1      46.225 -19.052  42.861  0.00  0.00     0.004 A 
ATOM     21  C   UNL d   1      46.358 -18.656  43.572  0.00  0.00     0.001 A 
ATOM     22  C   UNL d   1      46.497 -19.077  44.267  0.00  0.00     0.011 A 
ATOM     23  C   UNL d   1      46.503 -19.902  44.246  0.00  0.00     0.058 A 
ATOM     24  C   UNL d   1      46.370 -20.302  43.530  0.00  0.00     0.011 A 
ATOM     25 CL   UNL d   1      46.646 -20.329  44.955  0.00  0.00    -0.082 Cl
ATOM     26  C   UNL d   1      46.231 -19.878  42.839  0.00  0.00     0.001 A 
ENDBRANCH   4  20
TORSDOF 4
ENDMDL
