MODEL 1
REMARK VINA RESULT:      67.3      0.000      0.000
REMARK  7 active torsions:
REMARK  status: ('A' for Active; 'I' for Inactive)
REMARK    1  A    between atoms: C_16  and  N_3 
REMARK    2  A    between atoms: C_15  and  N_8 
REMARK    3  A    between atoms: C_12  and  C_10 
REMARK    4  A    between atoms: C_11  and  N_14 
REMARK    5  A    between atoms: O_22  and  C_12 
REMARK    6  A    between atoms: C_13  and  C_15 
REMARK       I    between atoms: N_14  and  C_13 
REMARK    7  A    between atoms: C_28  and  O_22 
ROOT
ATOM      1  C   UNL d   1     -50.475  25.622  33.542  0.00  0.00     0.191 A 
ATOM      2  C   UNL d   1     -49.644  25.648  33.492  0.00  0.00     0.196 A 
ATOM      3  N   UNL d   1     -50.706  24.833  33.425  0.00  0.00    -0.193 N 
ATOM      4  N   UNL d   1     -50.028  24.390  33.306  0.00  0.00    -0.058 NA
ATOM      5  N   UNL d   1     -49.381  24.875  33.345  0.00  0.00    -0.122 NA
ATOM      6  N   UNL d   1     -50.894  26.308  33.685  0.00  0.00    -0.204 NA
ATOM      7  C   UNL d   1     -49.256  26.360  33.587  0.00  0.00     0.289 A 
ATOM      8  N   UNL d   1     -49.674  27.055  33.731  0.00  0.00    -0.249 N 
ATOM      9  C   UNL d   1     -50.505  27.028  33.781  0.00  0.00     0.187 A 
ATOM     10  O   UNL d   1     -48.425  26.386  33.537  0.00  0.00    -0.265 OA
ENDROOT
BRANCH   8  11
ATOM     11  C   UNL d   1     -49.286  27.783  33.828  0.00  0.00     0.147 C 
BRANCH  11  12
ATOM     12  C   UNL d   1     -48.983  28.004  34.570  0.00  0.00     0.297 C 
ATOM     13  N   UNL d   1     -48.612  28.732  34.654  0.00  0.00    -0.207 NA
ATOM     14  O   UNL d   1     -49.057  27.492  35.213  0.00  0.00    -0.264 OA
BRANCH  13  15
ATOM     15  C   UNL d   1     -48.308  28.957  35.390  0.00  0.00     0.090 A 
ATOM     16  C   UNL d   1     -47.843  29.624  35.446  0.00  0.00     0.081 A 
ATOM     17  C   UNL d   1     -47.539  29.849  36.182  0.00  0.00     0.007 A 
ATOM     18  C   UNL d   1     -47.709  29.400  36.852  0.00  0.00     0.000 A 
ATOM     19  C   UNL d   1     -48.173  28.735  36.796  0.00  0.00     0.002 A 
ATOM     20  C   UNL d   1     -48.473  28.514  36.066  0.00  0.00     0.019 A 
BRANCH  16  21
ATOM     21  C   UNL d   1     -47.674  30.073  34.775  0.00  0.00     0.302 C 
ATOM     22  O   UNL d   1     -47.617  29.705  34.036  0.00  0.00    -0.259 OA
BRANCH  21  23
ATOM     23  O   UNL d   1     -47.562  30.890  34.844  0.00  0.00    -0.271 OA
BRANCH  23  24
ATOM     24  C   UNL d   1     -47.548  31.367  34.168  0.00  0.00     0.126 C 
ATOM     25  C   UNL d   1     -47.588  32.183  34.241  0.00  0.00     0.029 C 
ENDBRANCH  23  24
ENDBRANCH  21  23
ENDBRANCH  16  21
ENDBRANCH  13  15
ENDBRANCH  11  12
ENDBRANCH   8  11
BRANCH   3  26
ATOM     26  C   UNL d   1     -51.449  24.517  33.420  0.00  0.00     0.086 A 
ATOM     27  C   UNL d   1     -52.120  25.017  33.359  0.00  0.00     0.019 A 
ATOM     28  C   UNL d   1     -52.863  24.692  33.354  0.00  0.00     0.002 A 
ATOM     29  C   UNL d   1     -52.966  23.859  33.411  0.00  0.00     0.000 A 
ATOM     30  C   UNL d   1     -52.311  23.382  33.470  0.00  0.00     0.002 A 
ATOM     31  C   UNL d   1     -53.742  23.516  33.407  0.00  0.00     0.000 C 
ATOM     32  C   UNL d   1     -51.552  23.699  33.476  0.00  0.00     0.019 A 
ENDBRANCH   3  26
TORSDOF 7
ENDMDL
MODEL 2
REMARK VINA RESULT:      69.5      1.452      6.360
REMARK  7 active torsions:
REMARK  status: ('A' for Active; 'I' for Inactive)
REMARK    1  A    between atoms: C_16  and  N_3 
REMARK    2  A    between atoms: C_15  and  N_8 
REMARK    3  A    between atoms: C_12  and  C_10 
REMARK    4  A    between atoms: C_11  and  N_14 
REMARK    5  A    between atoms: O_22  and  C_12 
REMARK    6  A    between atoms: C_13  and  C_15 
REMARK       I    between atoms: N_14  and  C_13 
REMARK    7  A    between atoms: C_28  and  O_22 
ROOT
ATOM      1  C   UNL d   1     -48.002  29.816  34.818  0.00  0.00     0.191 A 
ATOM      2  C   UNL d   1     -47.843  29.234  35.392  0.00  0.00     0.196 A 
ATOM      3  N   UNL d   1     -47.659  30.524  35.082  0.00  0.00    -0.193 N 
ATOM      4  N   UNL d   1     -47.299  30.375  35.801  0.00  0.00    -0.058 NA
ATOM      5  N   UNL d   1     -47.405  29.596  35.997  0.00  0.00    -0.122 NA
ATOM      6  N   UNL d   1     -48.429  29.620  34.150  0.00  0.00    -0.204 NA
ATOM      7  C   UNL d   1     -48.115  28.473  35.282  0.00  0.00     0.289 A 
ATOM      8  N   UNL d   1     -48.547  28.270  34.610  0.00  0.00    -0.249 N 
ATOM      9  C   UNL d   1     -48.705  28.852  34.036  0.00  0.00     0.187 A 
ATOM     10  O   UNL d   1     -47.956  27.891  35.856  0.00  0.00    -0.265 OA
ENDROOT
BRANCH   8  11
ATOM     11  C   UNL d   1     -48.827  27.497  34.490  0.00  0.00     0.147 C 
BRANCH  11  12
ATOM     12  C   UNL d   1     -49.638  27.357  34.371  0.00  0.00     0.297 C 
ATOM     13  N   UNL d   1     -49.880  26.920  33.719  0.00  0.00    -0.207 NA
ATOM     14  O   UNL d   1     -50.190  27.657  34.906  0.00  0.00    -0.264 OA
BRANCH  13  15
ATOM     15  C   UNL d   1     -50.686  26.777  33.595  0.00  0.00     0.090 A 
ATOM     16  C   UNL d   1     -50.952  26.010  33.527  0.00  0.00     0.081 A 
ATOM     17  C   UNL d   1     -51.757  25.866  33.403  0.00  0.00     0.007 A 
ATOM     18  C   UNL d   1     -52.284  26.499  33.349  0.00  0.00     0.000 A 
ATOM     19  C   UNL d   1     -52.018  27.264  33.416  0.00  0.00     0.002 A 
ATOM     20  C   UNL d   1     -51.219  27.403  33.539  0.00  0.00     0.019 A 
BRANCH  16  21
ATOM     21  C   UNL d   1     -50.425  25.377  33.582  0.00  0.00     0.302 C 
ATOM     22  O   UNL d   1     -49.629  25.485  33.379  0.00  0.00    -0.259 OA
BRANCH  21  23
ATOM     23  O   UNL d   1     -50.693  24.639  33.839  0.00  0.00    -0.271 OA
BRANCH  23  24
ATOM     24  C   UNL d   1     -50.630  23.977  33.345  0.00  0.00     0.126 C 
ATOM     25  C   UNL d   1     -51.050  23.295  33.519  0.00  0.00     0.029 C 
ENDBRANCH  23  24
ENDBRANCH  21  23
ENDBRANCH  16  21
ENDBRANCH  13  15
ENDBRANCH  11  12
ENDBRANCH   8  11
BRANCH   3  26
ATOM     26  C   UNL d   1     -47.656  31.250  34.727  0.00  0.00     0.086 A 
ATOM     27  C   UNL d   1     -46.996  31.493  34.270  0.00  0.00     0.019 A 
ATOM     28  C   UNL d   1     -46.999  32.223  33.916  0.00  0.00     0.002 A 
ATOM     29  C   UNL d   1     -47.660  32.738  34.005  0.00  0.00     0.000 A 
ATOM     30  C   UNL d   1     -48.294  32.494  34.449  0.00  0.00     0.002 A 
ATOM     31  C   UNL d   1     -47.667  33.502  33.636  0.00  0.00     0.000 C 
ATOM     32  C   UNL d   1     -48.303  31.756  34.813  0.00  0.00     0.019 A 
ENDBRANCH   3  26
TORSDOF 7
ENDMDL
