MODEL 1
REMARK VINA RESULT:      -4.3      0.000      0.000
REMARK  2 active torsions:
REMARK  status: ('A' for Active; 'I' for Inactive)
REMARK    1  A    between atoms: C_6  and  C_1 
REMARK    2  A    between atoms: C_10  and  C_6 
ROOT
ATOM      1  C   UNL d   1      58.152  -0.747  29.934  0.00  0.00     0.139 A 
ATOM      2  C   UNL d   1      57.608  -0.119  30.983  0.00  0.00     0.064 A 
ATOM      3  C   UNL d   1      58.093  -0.021  30.321  0.00  0.00     0.220 A 
ATOM      4  C   UNL d   1      57.366  -0.906  31.005  0.00  0.00     0.106 A 
ATOM      5  O   UNL d   1      57.703  -1.290  30.357  0.00  0.00    -0.304 OA
ATOM      6  C   UNL d   1      56.875  -1.178  31.603  0.00  0.00     0.067 A 
ATOM      7  C   UNL d   1      57.358   0.406  31.565  0.00  0.00     0.009 A 
ATOM      8  O   UNL d   1      58.461   0.682  30.082  0.00  0.00    -0.284 OA
ATOM      9  C   UNL d   1      56.623  -0.657  32.185  0.00  0.00     0.198 A 
ATOM     10  C   UNL d   1      56.863   0.135  32.169  0.00  0.00     0.042 A 
ATOM     11  O   UNL d   1      56.123  -0.930  32.796  0.00  0.00    -0.286 OA
ENDROOT
BRANCH   1  12
ATOM     12  C   UNL d   1      58.582  -0.899  29.247  0.00  0.00     0.028 C 
BRANCH  12  13
ATOM     13  C   UNL d   1      58.974  -1.628  29.160  0.00  0.00     0.002 A 
ATOM     14  C   UNL d   1      59.774  -1.686  29.347  0.00  0.00     0.001 A 
ATOM     15  C   UNL d   1      60.167  -2.404  29.262  0.00  0.00     0.007 A 
ATOM     16  C   UNL d   1      59.758  -3.072  28.989  0.00  0.00     0.035 A 
ATOM     17  C   UNL d   1      58.954  -3.014  28.801  0.00  0.00     0.007 A 
ATOM     18 BR   UNL d   1      60.139  -3.793  28.901  0.00  0.00    -0.049 Br
ATOM     19  C   UNL d   1      58.562  -2.289  28.887  0.00  0.00     0.001 A 
ENDBRANCH  12  13
ENDBRANCH   1  12
TORSDOF 2
ENDMDL
MODEL 2
REMARK VINA RESULT:      -4.1      2.679      4.141
REMARK  2 active torsions:
REMARK  status: ('A' for Active; 'I' for Inactive)
REMARK    1  A    between atoms: C_6  and  C_1 
REMARK    2  A    between atoms: C_10  and  C_6 
ROOT
ATOM      1  C   UNL d   1      57.613   0.674  31.102  0.00  0.00     0.139 A 
ATOM      2  C   UNL d   1      58.733   0.675  30.371  0.00  0.00     0.064 A 
ATOM      3  C   UNL d   1      57.908   0.673  30.332  0.00  0.00     0.220 A 
ATOM      4  C   UNL d   1      58.949   0.677  31.166  0.00  0.00     0.106 A 
ATOM      5  O   UNL d   1      58.257   0.677  31.613  0.00  0.00    -0.304 OA
ATOM      6  C   UNL d   1      59.739   0.680  31.387  0.00  0.00     0.067 A 
ATOM      7  C   UNL d   1      59.312   0.674  29.786  0.00  0.00     0.009 A 
ATOM      8  O   UNL d   1      57.449   0.670  29.642  0.00  0.00    -0.284 OA
ATOM      9  C   UNL d   1      60.319   0.679  30.807  0.00  0.00     0.198 A 
ATOM     10  C   UNL d   1      60.110   0.677  30.006  0.00  0.00     0.042 A 
ATOM     11  O   UNL d   1      61.125   0.682  31.027  0.00  0.00    -0.286 OA
ENDROOT
BRANCH   1  12
ATOM     12  C   UNL d   1      56.818   0.673  31.319  0.00  0.00     0.028 C 
BRANCH  12  13
ATOM     13  C   UNL d   1      56.571   0.226  31.977  0.00  0.00     0.002 A 
ATOM     14  C   UNL d   1      56.400   0.608  32.687  0.00  0.00     0.001 A 
ATOM     15  C   UNL d   1      56.156   0.172  33.340  0.00  0.00     0.007 A 
ATOM     16  C   UNL d   1      56.080  -0.653  33.287  0.00  0.00     0.035 A 
ATOM     17  C   UNL d   1      56.251  -1.036  32.573  0.00  0.00     0.007 A 
ATOM     18 BR   UNL d   1      55.837  -1.098  33.931  0.00  0.00    -0.049 Br
ATOM     19  C   UNL d   1      56.497  -0.593  31.916  0.00  0.00     0.001 A 
ENDBRANCH  12  13
ENDBRANCH   1  12
TORSDOF 2
ENDMDL
MODEL 3
REMARK VINA RESULT:      -4.0      2.001      3.955
REMARK  2 active torsions:
REMARK  status: ('A' for Active; 'I' for Inactive)
REMARK    1  A    between atoms: C_6  and  C_1 
REMARK    2  A    between atoms: C_10  and  C_6 
ROOT
ATOM      1  C   UNL d   1      58.424  -0.034  29.904  0.00  0.00     0.139 A 
ATOM      2  C   UNL d   1      59.142  -0.889  29.167  0.00  0.00     0.064 A 
ATOM      3  C   UNL d   1      59.055  -0.095  29.375  0.00  0.00     0.220 A 
ATOM      4  C   UNL d   1      58.565  -1.321  29.567  0.00  0.00     0.106 A 
ATOM      5  O   UNL d   1      58.125  -0.791  30.020  0.00  0.00    -0.304 OA
ATOM      6  C   UNL d   1      58.508  -2.134  29.474  0.00  0.00     0.067 A 
ATOM      7  C   UNL d   1      59.671  -1.273  28.666  0.00  0.00     0.009 A 
ATOM      8  O   UNL d   1      59.516   0.537  29.104  0.00  0.00    -0.284 OA
ATOM      9  C   UNL d   1      59.034  -2.520  28.976  0.00  0.00     0.198 A 
ATOM     10  C   UNL d   1      59.616  -2.093  28.571  0.00  0.00     0.042 A 
ATOM     11  O   UNL d   1      58.981  -3.348  28.878  0.00  0.00    -0.286 OA
ENDROOT
BRANCH   1  12
ATOM     12  C   UNL d   1      58.146   0.660  30.251  0.00  0.00     0.028 C 
BRANCH  12  13
ATOM     13  C   UNL d   1      57.803   0.631  31.010  0.00  0.00     0.002 A 
ATOM     14  C   UNL d   1      56.986   0.553  31.085  0.00  0.00     0.001 A 
ATOM     15  C   UNL d   1      56.643   0.525  31.832  0.00  0.00     0.007 A 
ATOM     16  C   UNL d   1      57.116   0.575  32.511  0.00  0.00     0.035 A 
ATOM     17  C   UNL d   1      57.937   0.654  32.435  0.00  0.00     0.007 A 
ATOM     18 BR   UNL d   1      56.785   0.548  33.261  0.00  0.00    -0.049 Br
ATOM     19  C   UNL d   1      58.280   0.682  31.681  0.00  0.00     0.001 A 
ENDBRANCH  12  13
ENDBRANCH   1  12
TORSDOF 2
ENDMDL
MODEL 4
REMARK VINA RESULT:      -3.4      8.066      8.735
REMARK  2 active torsions:
REMARK  status: ('A' for Active; 'I' for Inactive)
REMARK    1  A    between atoms: C_6  and  C_1 
REMARK    2  A    between atoms: C_10  and  C_6 
ROOT
ATOM      1  C   UNL d   1      60.261  -8.596  35.183  0.00  0.00     0.139 A 
ATOM      2  C   UNL d   1      59.867  -7.440  35.729  0.00  0.00     0.064 A 
ATOM      3  C   UNL d   1      59.610  -8.183  35.476  0.00  0.00     0.220 A 
ATOM      4  C   UNL d   1      60.678  -7.393  35.594  0.00  0.00     0.106 A 
ATOM      5  O   UNL d   1      60.917  -8.107  35.258  0.00  0.00    -0.304 OA
ATOM      6  C   UNL d   1      61.099  -6.717  35.790  0.00  0.00     0.067 A 
ATOM      7  C   UNL d   1      59.468  -6.804  36.065  0.00  0.00     0.009 A 
ATOM      8  O   UNL d   1      58.833  -8.470  35.506  0.00  0.00    -0.284 OA
ATOM      9  C   UNL d   1      60.704  -6.081  36.125  0.00  0.00     0.198 A 
ATOM     10  C   UNL d   1      59.889  -6.120  36.263  0.00  0.00     0.042 A 
ATOM     11  O   UNL d   1      61.128  -5.389  36.326  0.00  0.00    -0.286 OA
ENDROOT
BRANCH   1  12
ATOM     12  C   UNL d   1      60.253  -9.360  34.873  0.00  0.00     0.028 C 
BRANCH  12  13
ATOM     13  C   UNL d   1      60.323  -9.471  34.051  0.00  0.00     0.002 A 
ATOM     14  C   UNL d   1      59.646  -9.467  33.580  0.00  0.00     0.001 A 
ATOM     15  C   UNL d   1      59.709  -9.577  32.767  0.00  0.00     0.007 A 
ATOM     16  C   UNL d   1      60.453  -9.692  32.418  0.00  0.00     0.035 A 
ATOM     17  C   UNL d   1      61.132  -9.696  32.891  0.00  0.00     0.007 A 
ATOM     18 BR   UNL d   1      60.527  -9.802  31.609  0.00  0.00    -0.049 Br
ATOM     19  C   UNL d   1      61.065  -9.585  33.710  0.00  0.00     0.001 A 
ENDBRANCH  12  13
ENDBRANCH   1  12
TORSDOF 2
ENDMDL
MODEL 5
REMARK VINA RESULT:      -3.0      1.607      2.344
REMARK  2 active torsions:
REMARK  status: ('A' for Active; 'I' for Inactive)
REMARK    1  A    between atoms: C_6  and  C_1 
REMARK    2  A    between atoms: C_10  and  C_6 
ROOT
ATOM      1  C   UNL d   1      57.408  -0.178  30.947  0.00  0.00     0.139 A 
ATOM      2  C   UNL d   1      56.794  -0.556  32.074  0.00  0.00     0.064 A 
ATOM      3  C   UNL d   1      57.036  -0.810  31.326  0.00  0.00     0.220 A 
ATOM      4  C   UNL d   1      57.016   0.233  32.158  0.00  0.00     0.106 A 
ATOM      5  O   UNL d   1      57.393   0.462  31.462  0.00  0.00    -0.304 OA
ATOM      6  C   UNL d   1      56.851   0.645  32.848  0.00  0.00     0.067 A 
ATOM      7  C   UNL d   1      56.402  -0.941  32.686  0.00  0.00     0.009 A 
ATOM      8  O   UNL d   1      56.928  -1.566  31.005  0.00  0.00    -0.284 OA
ATOM      9  C   UNL d   1      56.460   0.264  33.460  0.00  0.00     0.198 A 
ATOM     10  C   UNL d   1      56.234  -0.529  33.383  0.00  0.00     0.042 A 
ATOM     11  O   UNL d   1      56.289   0.679  34.165  0.00  0.00    -0.286 OA
ENDROOT
BRANCH   1  12
ATOM     12  C   UNL d   1      57.733  -0.189  30.190  0.00  0.00     0.028 C 
BRANCH  12  13
ATOM     13  C   UNL d   1      58.558  -0.116  30.095  0.00  0.00     0.002 A 
ATOM     14  C   UNL d   1      59.002  -0.774  29.876  0.00  0.00     0.001 A 
ATOM     15  C   UNL d   1      59.817  -0.708  29.780  0.00  0.00     0.007 A 
ATOM     16  C   UNL d   1      60.193   0.021  29.905  0.00  0.00     0.035 A 
ATOM     17  C   UNL d   1      59.746   0.682  30.125  0.00  0.00     0.007 A 
ATOM     18 BR   UNL d   1      61.004   0.099  29.813  0.00  0.00    -0.049 Br
ATOM     19  C   UNL d   1      58.925   0.611  30.220  0.00  0.00     0.001 A 
ENDBRANCH  12  13
ENDBRANCH   1  12
TORSDOF 2
ENDMDL
MODEL 6
REMARK VINA RESULT:      -2.9      1.458      2.061
REMARK  2 active torsions:
REMARK  status: ('A' for Active; 'I' for Inactive)
REMARK    1  A    between atoms: C_6  and  C_1 
REMARK    2  A    between atoms: C_10  and  C_6 
ROOT
ATOM      1  C   UNL d   1      57.743   0.418  31.494  0.00  0.00     0.139 A 
ATOM      2  C   UNL d   1      57.146   0.112  32.651  0.00  0.00     0.064 A 
ATOM      3  C   UNL d   1      57.835   0.418  32.314  0.00  0.00     0.220 A 
ATOM      4  C   UNL d   1      56.627  -0.079  32.040  0.00  0.00     0.106 A 
ATOM      5  O   UNL d   1      56.999   0.111  31.329  0.00  0.00    -0.304 OA
ATOM      6  C   UNL d   1      55.888  -0.398  32.199  0.00  0.00     0.067 A 
ATOM      7  C   UNL d   1      56.927  -0.018  33.433  0.00  0.00     0.009 A 
ATOM      8  O   UNL d   1      58.506   0.682  32.721  0.00  0.00    -0.284 OA
ATOM      9  C   UNL d   1      55.666  -0.528  32.978  0.00  0.00     0.198 A 
ATOM     10  C   UNL d   1      56.182  -0.339  33.598  0.00  0.00     0.042 A 
ATOM     11  O   UNL d   1      54.915  -0.853  33.146  0.00  0.00    -0.286 OA
ENDROOT
BRANCH   1  12
ATOM     12  C   UNL d   1      58.298   0.677  30.942  0.00  0.00     0.028 C 
BRANCH  12  13
ATOM     13  C   UNL d   1      58.521   0.176  30.315  0.00  0.00     0.002 A 
ATOM     14  C   UNL d   1      59.072  -0.422  30.448  0.00  0.00     0.001 A 
ATOM     15  C   UNL d   1      59.296  -0.920  29.832  0.00  0.00     0.007 A 
ATOM     16  C   UNL d   1      58.968  -0.821  29.076  0.00  0.00     0.035 A 
ATOM     17  C   UNL d   1      58.415  -0.220  28.943  0.00  0.00     0.007 A 
ATOM     18 BR   UNL d   1      59.184  -1.311  28.455  0.00  0.00    -0.049 Br
ATOM     19  C   UNL d   1      58.192   0.280  29.566  0.00  0.00     0.001 A 
ENDBRANCH  12  13
ENDBRANCH   1  12
TORSDOF 2
ENDMDL
MODEL 7
REMARK VINA RESULT:      -2.2      2.681      4.956
REMARK  2 active torsions:
REMARK  status: ('A' for Active; 'I' for Inactive)
REMARK    1  A    between atoms: C_6  and  C_1 
REMARK    2  A    between atoms: C_10  and  C_6 
ROOT
ATOM      1  C   UNL d   1      56.234  -0.539  32.166  0.00  0.00     0.139 A 
ATOM      2  C   UNL d   1      57.244  -0.797  31.326  0.00  0.00     0.064 A 
ATOM      3  C   UNL d   1      56.615  -1.135  31.741  0.00  0.00     0.220 A 
ATOM      4  C   UNL d   1      57.253   0.010  31.493  0.00  0.00     0.106 A 
ATOM      5  O   UNL d   1      56.630   0.165  32.011  0.00  0.00    -0.304 OA
ATOM      6  C   UNL d   1      57.818   0.502  31.161  0.00  0.00     0.067 A 
ATOM      7  C   UNL d   1      57.807  -1.119  30.820  0.00  0.00     0.009 A 
ATOM      8  O   UNL d   1      56.398  -1.935  31.737  0.00  0.00    -0.284 OA
ATOM      9  C   UNL d   1      58.381   0.184  30.655  0.00  0.00     0.198 A 
ATOM     10  C   UNL d   1      58.378  -0.625  30.483  0.00  0.00     0.042 A 
ATOM     11  O   UNL d   1      58.959   0.682  30.314  0.00  0.00    -0.286 OA
ENDROOT
BRANCH   1  12
ATOM     12  C   UNL d   1      55.578  -0.633  32.655  0.00  0.00     0.028 C 
BRANCH  12  13
ATOM     13  C   UNL d   1      55.583  -0.302  33.419  0.00  0.00     0.002 A 
ATOM     14  C   UNL d   1      55.025   0.270  33.619  0.00  0.00     0.001 A 
ATOM     15  C   UNL d   1      55.025   0.601  34.372  0.00  0.00     0.007 A 
ATOM     16  C   UNL d   1      55.587   0.359  34.933  0.00  0.00     0.035 A 
ATOM     17  C   UNL d   1      56.148  -0.216  34.732  0.00  0.00     0.007 A 
ATOM     18 BR   UNL d   1      55.597   0.682  35.687  0.00  0.00    -0.049 Br
ATOM     19  C   UNL d   1      56.144  -0.547  33.972  0.00  0.00     0.001 A 
ENDBRANCH  12  13
ENDBRANCH   1  12
TORSDOF 2
ENDMDL
MODEL 8
REMARK VINA RESULT:      -1.9      2.075      4.021
REMARK  2 active torsions:
REMARK  status: ('A' for Active; 'I' for Inactive)
REMARK    1  A    between atoms: C_6  and  C_1 
REMARK    2  A    between atoms: C_10  and  C_6 
ROOT
ATOM      1  C   UNL d   1      59.469  -1.568  29.213  0.00  0.00     0.139 A 
ATOM      2  C   UNL d   1      59.803  -2.827  28.905  0.00  0.00     0.064 A 
ATOM      3  C   UNL d   1      60.104  -2.077  29.078  0.00  0.00     0.220 A 
ATOM      4  C   UNL d   1      58.980  -2.782  28.934  0.00  0.00     0.106 A 
ATOM      5  O   UNL d   1      58.779  -2.005  29.124  0.00  0.00    -0.304 OA
ATOM      6  C   UNL d   1      58.518  -3.443  28.786  0.00  0.00     0.067 A 
ATOM      7  C   UNL d   1      60.171  -3.540  28.726  0.00  0.00     0.009 A 
ATOM      8  O   UNL d   1      60.904  -1.865  29.111  0.00  0.00    -0.284 OA
ATOM      9  C   UNL d   1      58.881  -4.156  28.607  0.00  0.00     0.198 A 
ATOM     10  C   UNL d   1      59.707  -4.209  28.577  0.00  0.00     0.042 A 
ATOM     11  O   UNL d   1      58.414  -4.832  28.456  0.00  0.00    -0.286 OA
ENDROOT
BRANCH   1  12
ATOM     12  C   UNL d   1      59.519  -0.768  29.404  0.00  0.00     0.028 C 
BRANCH  12  13
ATOM     13  C   UNL d   1      58.895  -0.403  29.817  0.00  0.00     0.002 A 
ATOM     14  C   UNL d   1      58.451   0.186  29.448  0.00  0.00     0.001 A 
ATOM     15  C   UNL d   1      57.833   0.550  29.851  0.00  0.00     0.007 A 
ATOM     16  C   UNL d   1      57.654   0.326  30.629  0.00  0.00     0.035 A 
ATOM     17  C   UNL d   1      58.100  -0.265  31.000  0.00  0.00     0.007 A 
ATOM     18 BR   UNL d   1      57.041   0.682  31.041  0.00  0.00    -0.049 Br
ATOM     19  C   UNL d   1      58.722  -0.630  30.590  0.00  0.00     0.001 A 
ENDBRANCH  12  13
ENDBRANCH   1  12
TORSDOF 2
ENDMDL
