MODEL 1
REMARK VINA RESULT:      18.9      0.000      0.000
REMARK  2 active torsions:
REMARK  status: ('A' for Active; 'I' for Inactive)
REMARK    1  A    between atoms: C_6  and  C_3 
REMARK    2  A    between atoms: C_9  and  C_6 
ROOT
ATOM      1  C   UNL d   1     -52.478  25.486  33.308  0.00  0.00     0.011 C 
ENDROOT
BRANCH   1   2
ATOM      2  C   UNL d   1     -52.250  24.699  33.480  0.00  0.00     0.092 A 
ATOM      3  C   UNL d   1     -52.705  24.092  33.727  0.00  0.00     0.288 A 
ATOM      4  N   UNL d   1     -52.246  23.444  33.819  0.00  0.00    -0.163 NA
ATOM      5  O   UNL d   1     -53.555  24.145  33.866  0.00  0.00    -0.265 OA
ATOM      6  C   UNL d   1     -51.468  23.687  33.612  0.00  0.00     0.313 A 
ATOM      7  S   UNL d   1     -51.512  24.464  33.410  0.00  0.00    -0.021 SA
ATOM      8  O   UNL d   1     -50.786  23.189  33.624  0.00  0.00    -0.258 OA
ENDBRANCH   1   2
BRANCH   1   9
ATOM      9  C   UNL d   1     -51.959  26.129  33.317  0.00  0.00     0.001 A 
ATOM     10  C   UNL d   1     -51.138  26.054  33.309  0.00  0.00     0.001 A 
ATOM     11  C   UNL d   1     -50.667  26.705  33.319  0.00  0.00     0.007 A 
ATOM     12  C   UNL d   1     -51.004  27.483  33.339  0.00  0.00     0.035 A 
ATOM     13  C   UNL d   1     -51.825  27.557  33.347  0.00  0.00     0.007 A 
ATOM     14 BR   UNL d   1     -50.534  28.163  33.349  0.00  0.00    -0.049 Br
ATOM     15  C   UNL d   1     -52.314  26.873  33.336  0.00  0.00     0.001 A 
ENDBRANCH   1   9
TORSDOF 2
ENDMDL
MODEL 2
REMARK VINA RESULT:      19.8      2.453      3.499
REMARK  2 active torsions:
REMARK  status: ('A' for Active; 'I' for Inactive)
REMARK    1  A    between atoms: C_6  and  C_3 
REMARK    2  A    between atoms: C_9  and  C_6 
ROOT
ATOM      1  C   UNL d   1     -50.754  25.483  33.795  0.00  0.00     0.011 C 
ENDROOT
BRANCH   1   2
ATOM      2  C   UNL d   1     -50.861  26.293  33.614  0.00  0.00     0.092 A 
ATOM      3  C   UNL d   1     -50.309  26.844  33.444  0.00  0.00     0.288 A 
ATOM      4  N   UNL d   1     -50.671  27.543  33.307  0.00  0.00    -0.163 NA
ATOM      5  O   UNL d   1     -49.460  26.689  33.416  0.00  0.00    -0.265 OA
ATOM      6  C   UNL d   1     -51.493  27.394  33.404  0.00  0.00     0.313 A 
ATOM      7  S   UNL d   1     -51.569  26.615  33.592  0.00  0.00    -0.021 SA
ATOM      8  O   UNL d   1     -52.104  27.971  33.314  0.00  0.00    -0.258 OA
ENDBRANCH   1   2
BRANCH   1   9
ATOM      9  C   UNL d   1     -51.325  24.901  33.665  0.00  0.00     0.001 A 
ATOM     10  C   UNL d   1     -51.147  24.130  33.435  0.00  0.00     0.001 A 
ATOM     11  C   UNL d   1     -51.732  23.592  33.317  0.00  0.00     0.007 A 
ATOM     12  C   UNL d   1     -52.545  23.806  33.428  0.00  0.00     0.035 A 
ATOM     13  C   UNL d   1     -52.723  24.577  33.658  0.00  0.00     0.007 A 
ATOM     14 BR   UNL d   1     -53.160  23.265  33.312  0.00  0.00    -0.049 Br
ATOM     15  C   UNL d   1     -52.107  25.137  33.779  0.00  0.00     0.001 A 
ENDBRANCH   1   9
TORSDOF 2
ENDMDL
