MODEL 1
REMARK VINA RESULT:      99.5      0.000      0.000
REMARK  2 active torsions:
REMARK  status: ('A' for Active; 'I' for Inactive)
REMARK       I    between atoms: N_4  and  C_1 
REMARK    1  A    between atoms: C_5  and  C_1 
REMARK       I    between atoms: C_2  and  N_3 
REMARK    2  A    between atoms: C_6  and  C_2 
ROOT
ATOM      1  C   UNL d   1     -55.159-101.755 -42.484  0.00  0.00     0.265 C 
ATOM      2  C   UNL d   1     -54.904-102.023 -39.002  0.00  0.00     0.265 C 
ATOM      3  N   UNL d   1     -55.031-101.661 -39.720  0.00  0.00    -0.270 N 
ATOM      4  N   UNL d   1     -55.136-101.645 -41.576  0.00  0.00    -0.270 N 
ATOM      5  C   UNL d   1     -54.904-102.301 -40.259  0.00  0.00     0.102 A 
ATOM      6  C   UNL d   1     -54.954-102.288 -41.120  0.00  0.00     0.102 A 
ATOM      7  O   UNL d   1     -54.976-102.579 -42.834  0.00  0.00    -0.267 OA
ATOM      8  O   UNL d   1     -54.711-102.803 -38.971  0.00  0.00    -0.267 OA
ATOM      9  C   UNL d   1     -55.321-100.662 -40.561  0.00  0.00     0.038 A 
ATOM     10  C   UNL d   1     -55.284-100.982 -41.322  0.00  0.00     0.085 A 
ATOM     11  C   UNL d   1     -55.228-100.899 -39.921  0.00  0.00     0.085 A 
ENDROOT
BRANCH   2  12
ATOM     12  C   UNL d   1     -54.974-101.583 -38.320  0.00  0.00     0.057 A 
ATOM     13  C   UNL d   1     -55.238-101.943 -37.655  0.00  0.00     0.005 A 
ATOM     14  C   UNL d   1     -55.311-101.512 -36.968  0.00  0.00     0.000 A 
ATOM     15  C   UNL d   1     -55.577-101.861 -36.285  0.00  0.00     0.000 C 
ATOM     16  C   UNL d   1     -55.117-100.723 -36.965  0.00  0.00     0.000 A 
ATOM     17  C   UNL d   1     -54.851-100.368 -37.643  0.00  0.00     0.000 A 
ATOM     18  C   UNL d   1     -54.780-100.799 -38.321  0.00  0.00     0.005 A 
ENDBRANCH   2  12
BRANCH   1  19
ATOM     19  C   UNL d   1     -55.366-101.017 -42.984  0.00  0.00     0.057 A 
ATOM     20  C   UNL d   1     -56.167-100.964 -43.397  0.00  0.00     0.005 A 
ATOM     21  C   UNL d   1     -56.376-100.232 -43.894  0.00  0.00     0.000 A 
ATOM     22  C   UNL d   1     -57.173-100.157 -44.317  0.00  0.00     0.000 C 
ATOM     23  C   UNL d   1     -55.774 -99.548 -43.977  0.00  0.00     0.000 A 
ATOM     24  C   UNL d   1     -54.965 -99.608 -43.556  0.00  0.00     0.000 A 
ATOM     25  C   UNL d   1     -54.759-100.345 -43.058  0.00  0.00     0.005 A 
ENDBRANCH   1  19
TORSDOF 2
ENDMDL
