MODEL 1
REMARK VINA RESULT:       9.7      0.000      0.000
REMARK  3 active torsions:
REMARK  status: ('A' for Active; 'I' for Inactive)
REMARK    1  A    between atoms: S_7  and  C_4 
REMARK    2  A    between atoms: C_9  and  S_7 
REMARK    3  A    between atoms: C_10  and  C_9 
ROOT
ATOM      1  S   UNL d   1      45.925 -16.826  44.032  0.00  0.00    -0.046 SA
ENDROOT
BRANCH   1   2
ATOM      2  C   UNL d   1      46.106 -17.631  44.027  0.00  0.00     0.217 A 
ATOM      3  N   UNL d   1      46.274 -18.014  43.314  0.00  0.00    -0.180 NA
ATOM      4  C   UNL d   1      46.454 -18.819  43.310  0.00  0.00     0.300 A 
ATOM      5  C   UNL d   1      46.466 -19.240  44.018  0.00  0.00     0.161 A 
ATOM      6  O   UNL d   1      46.622 -19.202  42.596  0.00  0.00    -0.263 OA
ATOM      7  C   UNL d   1      46.647 -20.046  44.014  0.00  0.00     0.028 C 
ATOM      8  N   UNL d   1      46.298 -18.857  44.731  0.00  0.00    -0.141 NA
ATOM      9  N   UNL d   1      46.118 -18.053  44.736  0.00  0.00    -0.121 NA
ENDBRANCH   1   2
BRANCH   1  10
ATOM     10  C   UNL d   1      45.843 -16.424  44.750  0.00  0.00     0.038 C 
BRANCH  10  11
ATOM     11  C   UNL d   1      45.732 -15.606  44.756  0.00  0.00     0.007 A 
ATOM     12  C   UNL d   1      46.359 -15.101  44.571  0.00  0.00     0.001 A 
ATOM     13  C   UNL d   1      46.247 -14.283  44.577  0.00  0.00     0.000 A 
ATOM     14  C   UNL d   1      45.507 -13.972  44.768  0.00  0.00     0.000 A 
ATOM     15  C   UNL d   1      44.880 -14.477  44.953  0.00  0.00     0.000 A 
ATOM     16  C   UNL d   1      45.395 -13.154  44.774  0.00  0.00     0.000 C 
ATOM     17  C   UNL d   1      44.991 -15.294  44.946  0.00  0.00     0.001 A 
ENDBRANCH  10  11
ENDBRANCH   1  10
TORSDOF 3
ENDMDL
MODEL 2
REMARK VINA RESULT:       9.9      1.952      4.437
REMARK  3 active torsions:
REMARK  status: ('A' for Active; 'I' for Inactive)
REMARK    1  A    between atoms: S_7  and  C_4 
REMARK    2  A    between atoms: C_9  and  S_7 
REMARK    3  A    between atoms: C_10  and  C_9 
ROOT
ATOM      1  S   UNL d   1      45.797 -16.728  44.562  0.00  0.00    -0.046 SA
ENDROOT
BRANCH   1   2
ATOM      2  C   UNL d   1      45.732 -15.908  44.616  0.00  0.00     0.217 A 
ATOM      3  N   UNL d   1      44.994 -15.559  44.750  0.00  0.00    -0.180 NA
ATOM      4  C   UNL d   1      44.929 -14.739  44.805  0.00  0.00     0.300 A 
ATOM      5  C   UNL d   1      45.601 -14.268  44.726  0.00  0.00     0.161 A 
ATOM      6  O   UNL d   1      44.191 -14.390  44.939  0.00  0.00    -0.263 OA
ATOM      7  C   UNL d   1      45.536 -13.446  44.781  0.00  0.00     0.028 C 
ATOM      8  N   UNL d   1      46.338 -14.616  44.592  0.00  0.00    -0.141 NA
ATOM      9  N   UNL d   1      46.404 -15.436  44.537  0.00  0.00    -0.121 NA
ENDBRANCH   1   2
BRANCH   1  10
ATOM     10  C   UNL d   1      46.090 -17.075  43.870  0.00  0.00     0.038 C 
BRANCH  10  11
ATOM     11  C   UNL d   1      46.229 -17.888  43.842  0.00  0.00     0.007 A 
ATOM     12  C   UNL d   1      46.330 -18.316  44.542  0.00  0.00     0.001 A 
ATOM     13  C   UNL d   1      46.469 -19.129  44.513  0.00  0.00     0.000 A 
ATOM     14  C   UNL d   1      46.508 -19.513  43.784  0.00  0.00     0.000 A 
ATOM     15  C   UNL d   1      46.407 -19.086  43.084  0.00  0.00     0.000 A 
ATOM     16  C   UNL d   1      46.647 -20.326  43.755  0.00  0.00     0.000 C 
ATOM     17  C   UNL d   1      46.268 -18.273  43.113  0.00  0.00     0.001 A 
ENDBRANCH  10  11
ENDBRANCH   1  10
TORSDOF 3
ENDMDL
