MODEL 1
REMARK VINA RESULT:      40.6      0.000      0.000
REMARK  4 active torsions:
REMARK  status: ('A' for Active; 'I' for Inactive)
REMARK    1  A    between atoms: N_2  and  S_1 
REMARK    2  A    between atoms: C_3  and  S_1 
REMARK    3  A    between atoms: C_5  and  N_4 
REMARK    4  A    between atoms: O_16  and  C_13 
ROOT
ATOM      1  N   UNL d   1     -56.132 -99.307 -44.832  0.00  0.00    -0.226 N 
ATOM      2  N   UNL d   1     -57.576 -99.090 -44.075  0.00  0.00    -0.300 N 
ATOM      3  C   UNL d   1     -56.839 -99.443 -45.242  0.00  0.00     0.111 A 
ATOM      4  C   UNL d   1     -56.147 -99.063 -44.045  0.00  0.00     0.111 A 
ATOM      5  C   UNL d   1     -57.567 -99.334 -44.863  0.00  0.00     0.100 A 
ATOM      6  C   UNL d   1     -56.875 -98.955 -43.665  0.00  0.00     0.100 A 
ENDROOT
BRANCH   1   7
ATOM      7  S   UNL d   1     -55.423 -99.415 -45.210  0.00  0.00     0.272 S 
ATOM      8  O   UNL d   1     -54.716 -99.523 -45.587  0.00  0.00    -0.200 OA
ATOM      9  O   UNL d   1     -55.647 -98.889 -45.781  0.00  0.00    -0.200 OA
BRANCH   7  10
ATOM     10  C   UNL d   1     -55.196 -99.946 -44.633  0.00  0.00     0.106 A 
ATOM     11  C   UNL d   1     -55.102-100.743 -44.826  0.00  0.00     0.043 A 
ATOM     12  C   UNL d   1     -54.874-101.279 -44.244  0.00  0.00     0.141 A 
ATOM     13  F   UNL d   1     -54.780-102.066 -44.429  0.00  0.00    -0.204 F 
ATOM     14  C   UNL d   1     -54.741-101.013 -43.474  0.00  0.00     0.030 A 
ATOM     15  C   UNL d   1     -54.835-100.231 -43.295  0.00  0.00     0.003 A 
ATOM     16  C   UNL d   1     -55.064 -99.695 -43.877  0.00  0.00     0.013 A 
ENDBRANCH   7  10
ENDBRANCH   1   7
BRANCH   2  17
ATOM     17  C   UNL d   1     -58.293 -98.981 -43.692  0.00  0.00     0.086 A 
ATOM     18  C   UNL d   1     -58.989 -98.944 -44.133  0.00  0.00     0.110 A 
ATOM     19  C   UNL d   1     -59.714 -98.834 -43.747  0.00  0.00     0.026 A 
ATOM     20  C   UNL d   1     -59.742 -98.760 -42.920  0.00  0.00     0.002 A 
ATOM     21  C   UNL d   1     -59.042 -98.797 -42.481  0.00  0.00     0.002 A 
ATOM     22  C   UNL d   1     -58.318 -98.907 -42.867  0.00  0.00     0.019 A 
BRANCH  18  23
ATOM     23  O   UNL d   1     -58.963 -99.017 -44.946  0.00  0.00    -0.327 OA
ATOM     24  C   UNL d   1     -59.487 -98.775 -45.323  0.00  0.00     0.181 C 
ENDBRANCH  18  23
ENDBRANCH   2  17
TORSDOF 4
ENDMDL
