MODEL 1
REMARK VINA RESULT:      -3.3      0.000      0.000
REMARK  5 active torsions:
REMARK  status: ('A' for Active; 'I' for Inactive)
REMARK    1  A    between atoms: N_6  and  C_1 
REMARK    2  A    between atoms: S_10  and  C_4 
REMARK       I    between atoms: C_7  and  N_6 
REMARK       I    between atoms: N_8  and  C_7 
REMARK    3  A    between atoms: C_11  and  N_8 
REMARK    4  A    between atoms: C_17  and  S_10 
REMARK    5  A    between atoms: C_19  and  C_17 
ROOT
ATOM      1  N   UNL d   1      33.014  19.426 -22.418  0.00  0.00    -0.321 NA
ATOM      2  C   UNL d   1      33.099  18.913 -22.899  0.00  0.00     0.422 C 
ATOM      3  N   UNL d   1      33.228  18.286 -23.495  0.00  0.00    -0.180 NA
ATOM      4  O   UNL d   1      32.425  18.731 -22.849  0.00  0.00    -0.228 OA
ENDROOT
BRANCH   1   5
ATOM      5  C   UNL d   1      33.082  20.086 -21.854  0.00  0.00     0.271 A 
ATOM      6  S   UNL d   1      33.060  20.792 -21.882  0.00  0.00    -0.006 SA
ATOM      7  C   UNL d   1      33.141  21.164 -21.279  0.00  0.00     0.166 A 
ATOM      8  N   UNL d   1      33.241  20.830 -20.663  0.00  0.00    -0.132 NA
ATOM      9  N   UNL d   1      33.182  19.752 -21.237  0.00  0.00    -0.107 NA
BRANCH   7  10
ATOM     10  S   UNL d   1      33.139  21.880 -21.170  0.00  0.00    -0.059 SA
BRANCH  10  11
ATOM     11  C   UNL d   1      32.427  22.278 -21.064  0.00  0.00     0.037 C 
BRANCH  11  12
ATOM     12  C   UNL d   1      32.431  23.070 -20.851  0.00  0.00     0.007 C 
ATOM     13  C   UNL d   1      31.769  23.538 -20.977  0.00  0.00     0.001 C 
ENDBRANCH  11  12
ENDBRANCH  10  11
ENDBRANCH   7  10
ENDBRANCH   1   5
BRANCH   3  14
ATOM     14  C   UNL d   1      32.592  17.803 -23.724  0.00  0.00     0.087 A 
ATOM     15  C   UNL d   1      32.469  17.083 -23.339  0.00  0.00     0.019 A 
ATOM     16  C   UNL d   1      31.838  16.601 -23.564  0.00  0.00     0.002 A 
ATOM     17  C   UNL d   1      31.335  16.849 -24.177  0.00  0.00     0.000 A 
ATOM     18  C   UNL d   1      31.463  17.570 -24.558  0.00  0.00     0.002 A 
ATOM     19  C   UNL d   1      30.705  16.367 -24.402  0.00  0.00     0.000 C 
ATOM     20  C   UNL d   1      32.100  18.053 -24.329  0.00  0.00     0.019 A 
ENDBRANCH   3  14
TORSDOF 5
ENDMDL
MODEL 2
REMARK VINA RESULT:      -2.7      1.573      2.704
REMARK  5 active torsions:
REMARK  status: ('A' for Active; 'I' for Inactive)
REMARK    1  A    between atoms: N_6  and  C_1 
REMARK    2  A    between atoms: S_10  and  C_4 
REMARK       I    between atoms: C_7  and  N_6 
REMARK       I    between atoms: N_8  and  C_7 
REMARK    3  A    between atoms: C_11  and  N_8 
REMARK    4  A    between atoms: C_17  and  S_10 
REMARK    5  A    between atoms: C_19  and  C_17 
ROOT
ATOM      1  N   UNL d   1      31.861  17.854 -23.953  0.00  0.00    -0.321 NA
ATOM      2  C   UNL d   1      31.560  17.332 -24.326  0.00  0.00     0.422 C 
ATOM      3  N   UNL d   1      31.207  16.688 -24.801  0.00  0.00    -0.180 NA
ATOM      4  O   UNL d   1      31.005  17.324 -23.899  0.00  0.00    -0.228 OA
ENDROOT
BRANCH   1   5
ATOM      5  C   UNL d   1      32.362  18.481 -23.614  0.00  0.00     0.271 A 
ATOM      6  S   UNL d   1      32.539  18.705 -22.968  0.00  0.00    -0.006 SA
ATOM      7  C   UNL d   1      32.983  19.260 -22.905  0.00  0.00     0.166 A 
ATOM      8  N   UNL d   1      33.241  19.579 -23.482  0.00  0.00    -0.132 NA
ATOM      9  N   UNL d   1      32.620  18.800 -24.191  0.00  0.00    -0.107 NA
BRANCH   7  10
ATOM     10  S   UNL d   1      33.241  19.584 -22.312  0.00  0.00    -0.059 SA
BRANCH  10  11
ATOM     11  C   UNL d   1      32.853  20.240 -22.001  0.00  0.00     0.037 C 
BRANCH  11  12
ATOM     12  C   UNL d   1      33.188  20.653 -21.376  0.00  0.00     0.007 C 
ATOM     13  C   UNL d   1      32.715  20.971 -20.786  0.00  0.00     0.001 C 
ENDBRANCH  11  12
ENDBRANCH  10  11
ENDBRANCH   7  10
ENDBRANCH   1   5
BRANCH   3  14
ATOM     14  C   UNL d   1      30.468  16.377 -24.583  0.00  0.00     0.087 A 
ATOM     15  C   UNL d   1      29.805  16.540 -25.048  0.00  0.00     0.019 A 
ATOM     16  C   UNL d   1      29.070  16.233 -24.835  0.00  0.00     0.002 A 
ATOM     17  C   UNL d   1      29.007  15.763 -24.153  0.00  0.00     0.000 A 
ATOM     18  C   UNL d   1      29.673  15.603 -23.692  0.00  0.00     0.002 A 
ATOM     19  C   UNL d   1      28.272  15.456 -23.940  0.00  0.00     0.000 C 
ATOM     20  C   UNL d   1      30.413  15.914 -23.910  0.00  0.00     0.019 A 
ENDBRANCH   3  14
TORSDOF 5
ENDMDL
MODEL 3
REMARK VINA RESULT:      -2.6      2.244      5.096
REMARK  5 active torsions:
REMARK  status: ('A' for Active; 'I' for Inactive)
REMARK    1  A    between atoms: N_6  and  C_1 
REMARK    2  A    between atoms: S_10  and  C_4 
REMARK       I    between atoms: C_7  and  N_6 
REMARK       I    between atoms: N_8  and  C_7 
REMARK    3  A    between atoms: C_11  and  N_8 
REMARK    4  A    between atoms: C_17  and  S_10 
REMARK    5  A    between atoms: C_19  and  C_17 
ROOT
ATOM      1  N   UNL d   1      31.986  17.873 -23.843  0.00  0.00    -0.321 NA
ATOM      2  C   UNL d   1      32.540  18.264 -23.640  0.00  0.00     0.422 C 
ATOM      3  N   UNL d   1      33.238  18.737 -23.406  0.00  0.00    -0.180 NA
ATOM      4  O   UNL d   1      32.162  18.570 -23.136  0.00  0.00    -0.228 OA
ENDROOT
BRANCH   1   5
ATOM      5  C   UNL d   1      31.417  17.328 -24.213  0.00  0.00     0.271 A 
ATOM      6  S   UNL d   1      30.714  17.261 -24.245  0.00  0.00    -0.006 SA
ATOM      7  C   UNL d   1      30.436  16.720 -24.618  0.00  0.00     0.166 A 
ATOM      8  N   UNL d   1      30.858  16.259 -24.951  0.00  0.00    -0.132 NA
ATOM      9  N   UNL d   1      31.839  16.867 -24.546  0.00  0.00    -0.107 NA
BRANCH   7  10
ATOM     10  S   UNL d   1      29.744  16.539 -24.730  0.00  0.00    -0.059 SA
BRANCH  10  11
ATOM     11  C   UNL d   1      29.260  16.352 -24.092  0.00  0.00     0.037 C 
BRANCH  11  12
ATOM     12  C   UNL d   1      28.487  16.107 -24.224  0.00  0.00     0.007 C 
ATOM     13  C   UNL d   1      27.970  16.006 -23.596  0.00  0.00     0.001 C 
ENDBRANCH  11  12
ENDBRANCH  10  11
ENDBRANCH   7  10
ENDBRANCH   1   5
BRANCH   3  14
ATOM     14  C   UNL d   1      33.176  19.275 -22.776  0.00  0.00     0.087 A 
ATOM     15  C   UNL d   1      33.241  19.001 -21.999  0.00  0.00     0.019 A 
ATOM     16  C   UNL d   1      33.179  19.532 -21.371  0.00  0.00     0.002 A 
ATOM     17  C   UNL d   1      33.052  20.337 -21.530  0.00  0.00     0.000 A 
ATOM     18  C   UNL d   1      32.988  20.606 -22.309  0.00  0.00     0.002 A 
ATOM     19  C   UNL d   1      32.990  20.869 -20.902  0.00  0.00     0.000 C 
ATOM     20  C   UNL d   1      33.050  20.067 -22.939  0.00  0.00     0.019 A 
ENDBRANCH   3  14
TORSDOF 5
ENDMDL
MODEL 4
REMARK VINA RESULT:      -1.1      2.414      3.887
REMARK  5 active torsions:
REMARK  status: ('A' for Active; 'I' for Inactive)
REMARK    1  A    between atoms: N_6  and  C_1 
REMARK    2  A    between atoms: S_10  and  C_4 
REMARK       I    between atoms: C_7  and  N_6 
REMARK       I    between atoms: N_8  and  C_7 
REMARK    3  A    between atoms: C_11  and  N_8 
REMARK    4  A    between atoms: C_17  and  S_10 
REMARK    5  A    between atoms: C_19  and  C_17 
ROOT
ATOM      1  N   UNL d   1      31.296  16.491 -23.830  0.00  0.00    -0.321 NA
ATOM      2  C   UNL d   1      30.812  16.034 -24.071  0.00  0.00     0.422 C 
ATOM      3  N   UNL d   1      30.231  15.460 -24.384  0.00  0.00    -0.180 NA
ATOM      4  O   UNL d   1      30.314  16.326 -23.676  0.00  0.00    -0.228 OA
ENDROOT
BRANCH   1   5
ATOM      5  C   UNL d   1      32.002  16.965 -23.639  0.00  0.00     0.271 A 
ATOM      6  S   UNL d   1      32.251  17.606 -23.803  0.00  0.00    -0.006 SA
ATOM      7  C   UNL d   1      32.877  17.812 -23.529  0.00  0.00     0.166 A 
ATOM      8  N   UNL d   1      33.241  17.381 -23.102  0.00  0.00    -0.132 NA
ATOM      9  N   UNL d   1      32.366  16.534 -23.211  0.00  0.00    -0.107 NA
BRANCH   7  10
ATOM     10  S   UNL d   1      33.240  18.433 -23.615  0.00  0.00    -0.059 SA
BRANCH  10  11
ATOM     11  C   UNL d   1      33.061  19.082 -23.143  0.00  0.00     0.037 C 
BRANCH  11  12
ATOM     12  C   UNL d   1      33.193  19.841 -23.426  0.00  0.00     0.007 C 
ATOM     13  C   UNL d   1      33.044  20.493 -22.952  0.00  0.00     0.001 C 
ENDBRANCH  11  12
ENDBRANCH  10  11
ENDBRANCH   7  10
ENDBRANCH   1   5
BRANCH   3  14
ATOM     14  C   UNL d   1      29.443  15.491 -24.123  0.00  0.00     0.087 A 
ATOM     15  C   UNL d   1      29.282  15.474 -23.313  0.00  0.00     0.019 A 
ATOM     16  C   UNL d   1      28.501  15.505 -23.050  0.00  0.00     0.002 A 
ATOM     17  C   UNL d   1      27.886  15.553 -23.606  0.00  0.00     0.000 A 
ATOM     18  C   UNL d   1      28.053  15.570 -24.415  0.00  0.00     0.002 A 
ATOM     19  C   UNL d   1      27.105  15.584 -23.343  0.00  0.00     0.000 C 
ATOM     20  C   UNL d   1      28.842  15.539 -24.676  0.00  0.00     0.019 A 
ENDBRANCH   3  14
TORSDOF 5
ENDMDL
MODEL 5
REMARK VINA RESULT:      -0.4      1.759      5.482
REMARK  5 active torsions:
REMARK  status: ('A' for Active; 'I' for Inactive)
REMARK    1  A    between atoms: N_6  and  C_1 
REMARK    2  A    between atoms: S_10  and  C_4 
REMARK       I    between atoms: C_7  and  N_6 
REMARK       I    between atoms: N_8  and  C_7 
REMARK    3  A    between atoms: C_11  and  N_8 
REMARK    4  A    between atoms: C_17  and  S_10 
REMARK    5  A    between atoms: C_19  and  C_17 
ROOT
ATOM      1  N   UNL d   1      32.860  21.751 -22.190  0.00  0.00    -0.321 NA
ATOM      2  C   UNL d   1      32.739  22.371 -21.870  0.00  0.00     0.422 C 
ATOM      3  N   UNL d   1      32.586  23.148 -21.497  0.00  0.00    -0.180 NA
ATOM      4  O   UNL d   1      32.809  22.079 -21.238  0.00  0.00    -0.228 OA
ENDROOT
BRANCH   1   5
ATOM      5  C   UNL d   1      32.988  21.082 -22.732  0.00  0.00     0.271 A 
ATOM      6  S   UNL d   1      33.054  20.380 -22.678  0.00  0.00    -0.006 SA
ATOM      7  C   UNL d   1      33.159  19.997 -23.270  0.00  0.00     0.166 A 
ATOM      8  N   UNL d   1      33.195  20.315 -23.901  0.00  0.00    -0.132 NA
ATOM      9  N   UNL d   1      33.025  21.401 -23.364  0.00  0.00    -0.107 NA
BRANCH   7  10
ATOM     10  S   UNL d   1      33.241  19.282 -23.353  0.00  0.00    -0.059 SA
BRANCH  10  11
ATOM     11  C   UNL d   1      32.807  18.762 -22.888  0.00  0.00     0.037 C 
BRANCH  11  12
ATOM     12  C   UNL d   1      32.700  17.986 -23.134  0.00  0.00     0.007 C 
ATOM     13  C   UNL d   1      32.957  17.362 -22.668  0.00  0.00     0.001 C 
ENDBRANCH  11  12
ENDBRANCH  10  11
ENDBRANCH   7  10
ENDBRANCH   1   5
BRANCH   3  14
ATOM     14  C   UNL d   1      32.587  23.210 -20.668  0.00  0.00     0.087 A 
ATOM     15  C   UNL d   1      33.236  22.932 -20.240  0.00  0.00     0.019 A 
ATOM     16  C   UNL d   1      33.241  22.992 -19.418  0.00  0.00     0.002 A 
ATOM     17  C   UNL d   1      32.589  23.334 -19.031  0.00  0.00     0.000 A 
ATOM     18  C   UNL d   1      31.943  23.611 -19.464  0.00  0.00     0.002 A 
ATOM     19  C   UNL d   1      32.594  23.395 -18.209  0.00  0.00     0.000 C 
ATOM     20  C   UNL d   1      31.942  23.548 -20.294  0.00  0.00     0.019 A 
ENDBRANCH   3  14
TORSDOF 5
ENDMDL
