MODEL 1
REMARK VINA RESULT:      -6.6      0.000      0.000
REMARK  3 active torsions:
REMARK  status: ('A' for Active; 'I' for Inactive)
REMARK    1  A    between atoms: S_6  and  C_2 
REMARK    2  A    between atoms: C_9  and  S_6 
REMARK    3  A    between atoms: C_7  and  C_9 
ROOT
ATOM      1  N   UNL d   1     -46.330  13.566  23.118  0.00  0.00    -0.243 NA
ATOM      2  C   UNL d   1     -47.639  13.745  22.987  0.00  0.00     0.046 A 
ATOM      3  C   UNL d   1     -47.507  12.963  23.213  0.00  0.00     0.025 A 
ATOM      4  C   UNL d   1     -46.915  14.115  22.928  0.00  0.00     0.105 A 
ATOM      5  C   UNL d   1     -46.693  12.850  23.295  0.00  0.00     0.082 A 
ATOM      6  C   UNL d   1     -48.023  12.339  23.356  0.00  0.00     0.002 A 
ATOM      7  C   UNL d   1     -46.395  12.108  23.521  0.00  0.00     0.019 A 
ATOM      8  C   UNL d   1     -47.730  11.583  23.586  0.00  0.00     0.000 A 
ATOM      9  C   UNL d   1     -46.922  11.477  23.665  0.00  0.00     0.002 A 
ENDROOT
BRANCH   2  10
ATOM     10  S   UNL d   1     -48.374  14.104  22.841  0.00  0.00    -0.101 SA
BRANCH  10  11
ATOM     11  C   UNL d   1     -48.432  14.929  22.786  0.00  0.00     0.160 C 
BRANCH  11  12
ATOM     12  C   UNL d   1     -49.169  15.299  22.746  0.00  0.00     0.197 C 
ATOM     13  O   UNL d   1     -49.529  15.572  23.447  0.00  0.00    -0.647 OA
ATOM     14  O   UNL d   1     -49.557  15.405  22.026  0.00  0.00    -0.647 OA
ENDBRANCH  11  12
ENDBRANCH  10  11
ENDBRANCH   2  10
TORSDOF 3
ENDMDL
MODEL 2
REMARK VINA RESULT:      -6.6      2.353      3.113
REMARK  3 active torsions:
REMARK  status: ('A' for Active; 'I' for Inactive)
REMARK    1  A    between atoms: S_6  and  C_2 
REMARK    2  A    between atoms: C_9  and  S_6 
REMARK    3  A    between atoms: C_7  and  C_9 
ROOT
ATOM      1  N   UNL d   1     -49.249  14.737  22.495  0.00  0.00    -0.243 NA
ATOM      2  C   UNL d   1     -48.270  13.840  22.489  0.00  0.00     0.046 A 
ATOM      3  C   UNL d   1     -48.943  13.491  22.163  0.00  0.00     0.025 A 
ATOM      4  C   UNL d   1     -48.459  14.606  22.693  0.00  0.00     0.105 A 
ATOM      5  C   UNL d   1     -49.552  14.048  22.167  0.00  0.00     0.082 A 
ATOM      6  C   UNL d   1     -49.080  12.737  21.864  0.00  0.00     0.002 A 
ATOM      7  C   UNL d   1     -50.302  13.849  21.869  0.00  0.00     0.019 A 
ATOM      8  C   UNL d   1     -49.837  12.526  21.560  0.00  0.00     0.000 A 
ATOM      9  C   UNL d   1     -50.437  13.083  21.566  0.00  0.00     0.002 A 
ENDROOT
BRANCH   2  10
ATOM     10  S   UNL d   1     -47.527  13.484  22.595  0.00  0.00    -0.101 SA
BRANCH  10  11
ATOM     11  C   UNL d   1     -46.903  13.914  22.932  0.00  0.00     0.160 C 
BRANCH  11  12
ATOM     12  C   UNL d   1     -46.160  13.569  23.037  0.00  0.00     0.197 C 
ATOM     13  O   UNL d   1     -46.027  13.077  23.697  0.00  0.00    -0.647 OA
ATOM     14  O   UNL d   1     -45.547  13.701  22.502  0.00  0.00    -0.647 OA
ENDBRANCH  11  12
ENDBRANCH  10  11
ENDBRANCH   2  10
TORSDOF 3
ENDMDL
MODEL 3
REMARK VINA RESULT:      -6.5      2.313      3.126
REMARK  3 active torsions:
REMARK  status: ('A' for Active; 'I' for Inactive)
REMARK    1  A    between atoms: S_6  and  C_2 
REMARK    2  A    between atoms: C_9  and  S_6 
REMARK    3  A    between atoms: C_7  and  C_9 
ROOT
ATOM      1  N   UNL d   1     -48.848  11.313  23.698  0.00  0.00    -0.243 NA
ATOM      2  C   UNL d   1     -48.190  12.349  23.193  0.00  0.00     0.046 A 
ATOM      3  C   UNL d   1     -48.996  12.469  23.066  0.00  0.00     0.025 A 
ATOM      4  C   UNL d   1     -48.100  11.638  23.581  0.00  0.00     0.105 A 
ATOM      5  C   UNL d   1     -49.407  11.825  23.380  0.00  0.00     0.082 A 
ATOM      6  C   UNL d   1     -49.410  13.081  22.705  0.00  0.00     0.002 A 
ATOM      7  C   UNL d   1     -50.236  11.795  23.332  0.00  0.00     0.019 A 
ATOM      8  C   UNL d   1     -50.250  13.060  22.652  0.00  0.00     0.000 A 
ATOM      9  C   UNL d   1     -50.652  12.419  22.965  0.00  0.00     0.002 A 
ENDROOT
BRANCH   2  10
ATOM     10  S   UNL d   1     -47.570  12.855  22.969  0.00  0.00    -0.101 SA
BRANCH  10  11
ATOM     11  C   UNL d   1     -46.805  12.734  23.265  0.00  0.00     0.160 C 
BRANCH  11  12
ATOM     12  C   UNL d   1     -46.188  13.244  23.063  0.00  0.00     0.197 C 
ATOM     13  O   UNL d   1     -45.562  12.963  22.589  0.00  0.00    -0.647 OA
ATOM     14  O   UNL d   1     -46.179  14.027  23.319  0.00  0.00    -0.647 OA
ENDBRANCH  11  12
ENDBRANCH  10  11
ENDBRANCH   2  10
TORSDOF 3
ENDMDL
MODEL 4
REMARK VINA RESULT:      -6.2      1.778      2.445
REMARK  3 active torsions:
REMARK  status: ('A' for Active; 'I' for Inactive)
REMARK    1  A    between atoms: S_6  and  C_2 
REMARK    2  A    between atoms: C_9  and  S_6 
REMARK    3  A    between atoms: C_7  and  C_9 
ROOT
ATOM      1  N   UNL d   1     -47.172  11.798  23.649  0.00  0.00    -0.243 NA
ATOM      2  C   UNL d   1     -48.297  12.383  23.255  0.00  0.00     0.046 A 
ATOM      3  C   UNL d   1     -47.673  12.902  23.113  0.00  0.00     0.025 A 
ATOM      4  C   UNL d   1     -47.988  11.704  23.585  0.00  0.00     0.105 A 
ATOM      5  C   UNL d   1     -46.972  12.541  23.357  0.00  0.00     0.082 A 
ATOM      6  C   UNL d   1     -47.651  13.659  22.792  0.00  0.00     0.002 A 
ATOM      7  C   UNL d   1     -46.247  12.939  23.279  0.00  0.00     0.019 A 
ATOM      8  C   UNL d   1     -46.921  14.071  22.710  0.00  0.00     0.000 A 
ATOM      9  C   UNL d   1     -46.230  13.707  22.954  0.00  0.00     0.002 A 
ENDROOT
BRANCH   2  10
ATOM     10  S   UNL d   1     -49.101  12.515  23.096  0.00  0.00    -0.101 SA
BRANCH  10  11
ATOM     11  C   UNL d   1     -49.655  11.909  23.213  0.00  0.00     0.160 C 
BRANCH  11  12
ATOM     12  C   UNL d   1     -50.457  12.035  23.062  0.00  0.00     0.197 C 
ATOM     13  O   UNL d   1     -50.997  12.046  23.697  0.00  0.00    -0.647 OA
ATOM     14  O   UNL d   1     -50.735  12.149  22.294  0.00  0.00    -0.647 OA
ENDBRANCH  11  12
ENDBRANCH  10  11
ENDBRANCH   2  10
TORSDOF 3
ENDMDL
MODEL 5
REMARK VINA RESULT:      -4.6      8.327      9.054
REMARK  3 active torsions:
REMARK  status: ('A' for Active; 'I' for Inactive)
REMARK    1  A    between atoms: S_6  and  C_2 
REMARK    2  A    between atoms: C_9  and  S_6 
REMARK    3  A    between atoms: C_7  and  C_9 
ROOT
ATOM      1  N   UNL d   1     -40.452  13.810  18.154  0.00  0.00    -0.243 NA
ATOM      2  C   UNL d   1     -40.457  14.902  18.909  0.00  0.00     0.046 A 
ATOM      3  C   UNL d   1     -40.196  15.111  18.156  0.00  0.00     0.025 A 
ATOM      4  C   UNL d   1     -40.615  14.102  18.908  0.00  0.00     0.105 A 
ATOM      5  C   UNL d   1     -40.192  14.434  17.685  0.00  0.00     0.082 A 
ATOM      6  C   UNL d   1     -39.960  15.832  17.837  0.00  0.00     0.002 A 
ATOM      7  C   UNL d   1     -39.951  14.478  16.891  0.00  0.00     0.019 A 
ATOM      8  C   UNL d   1     -39.714  15.887  17.034  0.00  0.00     0.000 A 
ATOM      9  C   UNL d   1     -39.712  15.211  16.571  0.00  0.00     0.002 A 
ENDROOT
BRANCH   2  10
ATOM     10  S   UNL d   1     -40.548  15.407  19.563  0.00  0.00    -0.101 SA
BRANCH  10  11
ATOM     11  C   UNL d   1     -40.811  15.106  20.289  0.00  0.00     0.160 C 
BRANCH  11  12
ATOM     12  C   UNL d   1     -40.931  15.607  20.936  0.00  0.00     0.197 C 
ATOM     13  O   UNL d   1     -41.690  15.922  21.075  0.00  0.00    -0.647 OA
ATOM     14  O   UNL d   1     -40.314  15.801  21.446  0.00  0.00    -0.647 OA
ENDBRANCH  11  12
ENDBRANCH  10  11
ENDBRANCH   2  10
TORSDOF 3
ENDMDL
MODEL 6
REMARK VINA RESULT:      -4.6      8.643      9.378
REMARK  3 active torsions:
REMARK  status: ('A' for Active; 'I' for Inactive)
REMARK    1  A    between atoms: S_6  and  C_2 
REMARK    2  A    between atoms: C_9  and  S_6 
REMARK    3  A    between atoms: C_7  and  C_9 
ROOT
ATOM      1  N   UNL d   1     -40.738  15.911  18.754  0.00  0.00    -0.243 NA
ATOM      2  C   UNL d   1     -40.077  14.759  18.738  0.00  0.00     0.046 A 
ATOM      3  C   UNL d   1     -40.312  14.911  19.514  0.00  0.00     0.025 A 
ATOM      4  C   UNL d   1     -40.339  15.374  18.271  0.00  0.00     0.105 A 
ATOM      5  C   UNL d   1     -40.723  15.627  19.526  0.00  0.00     0.082 A 
ATOM      6  C   UNL d   1     -40.205  14.490  20.212  0.00  0.00     0.002 A 
ATOM      7  C   UNL d   1     -41.028  15.922  20.240  0.00  0.00     0.019 A 
ATOM      8  C   UNL d   1     -40.510  14.781  20.941  0.00  0.00     0.000 A 
ATOM      9  C   UNL d   1     -40.917  15.491  20.947  0.00  0.00     0.002 A 
ENDROOT
BRANCH   2  10
ATOM     10  S   UNL d   1     -39.649  14.101  18.468  0.00  0.00    -0.101 SA
BRANCH  10  11
ATOM     11  C   UNL d   1     -39.432  14.044  17.669  0.00  0.00     0.160 C 
BRANCH  11  12
ATOM     12  C   UNL d   1     -38.942  13.432  17.407  0.00  0.00     0.197 C 
ATOM     13  O   UNL d   1     -39.174  12.640  17.530  0.00  0.00    -0.647 OA
ATOM     14  O   UNL d   1     -38.229  13.590  17.026  0.00  0.00    -0.647 OA
ENDBRANCH  11  12
ENDBRANCH  10  11
ENDBRANCH   2  10
TORSDOF 3
ENDMDL
