MODEL 1
REMARK VINA RESULT:      77.5      0.000      0.000
REMARK  4 active torsions:
REMARK  status: ('A' for Active; 'I' for Inactive)
REMARK       I    between atoms: C_3  and  N_1 
REMARK    1  A    between atoms: C_7  and  C_3 
REMARK    2  A    between atoms: C_8  and  C_4 
REMARK    3  A    between atoms: C_9  and  C_5 
REMARK    4  A    between atoms: O_25  and  C_18 
ROOT
ATOM      1  N   UNL d   1      14.424  13.955  -1.927  0.00  0.00    -0.195 N 
ATOM      2  N   UNL d   1      14.760  14.481  -1.375  0.00  0.00    -0.163 NA
ATOM      3  C   UNL d   1      14.281  13.148  -1.783  0.00  0.00     0.282 C 
ATOM      4  C   UNL d   1      14.257  14.352  -2.625  0.00  0.00     0.088 A 
ATOM      5  C   UNL d   1      14.804  15.216  -1.737  0.00  0.00     0.103 A 
ATOM      6  C   UNL d   1      14.493  15.136  -2.507  0.00  0.00     0.040 A 
ATOM      7  O   UNL d   1      14.472  12.813  -1.059  0.00  0.00    -0.265 OA
ENDROOT
BRANCH   3   8
ATOM      8  C   UNL d   1      13.936  12.680  -2.392  0.00  0.00     0.077 A 
ATOM      9  C   UNL d   1      14.409  12.274  -2.922  0.00  0.00     0.104 A 
ATOM     10  N   UNL d   1      14.073  11.821  -3.513  0.00  0.00    -0.242 NA
ATOM     11  C   UNL d   1      13.244  11.780  -3.566  0.00  0.00     0.099 A 
ATOM     12  C   UNL d   1      12.769  12.186  -3.036  0.00  0.00     0.021 A 
ATOM     13  C   UNL d   1      13.106  12.639  -2.445  0.00  0.00     0.008 A 
ENDBRANCH   3   8
BRANCH   4  14
ATOM     14  C   UNL d   1      13.922  14.036  -3.309  0.00  0.00     0.018 A 
ATOM     15  C   UNL d   1      14.406  13.729  -3.901  0.00  0.00     0.004 A 
ATOM     16  C   UNL d   1      14.070  13.413  -4.586  0.00  0.00     0.024 A 
ATOM     17  C   UNL d   1      13.251  13.403  -4.677  0.00  0.00     0.094 A 
ATOM     18  C   UNL d   1      12.770  13.709  -4.085  0.00  0.00     0.024 A 
ATOM     19  C   UNL d   1      13.106  14.026  -3.401  0.00  0.00     0.004 A 
BRANCH  17  20
ATOM     20  O   UNL d   1      12.915  13.087  -5.361  0.00  0.00    -0.328 OA
ATOM     21  C   UNL d   1      13.339  13.093  -6.068  0.00  0.00     0.181 C 
ENDBRANCH  17  20
ENDBRANCH   4  14
BRANCH   5  22
ATOM     22  C   UNL d   1      15.098  15.893  -1.395  0.00  0.00     0.019 A 
ATOM     23  C   UNL d   1      15.493  15.821  -0.667  0.00  0.00     0.002 A 
ATOM     24  C   UNL d   1      15.800  16.522  -0.310  0.00  0.00     0.007 A 
ATOM     25  C   UNL d   1      15.707  17.244  -0.675  0.00  0.00     0.035 A 
ATOM     26  C   UNL d   1      15.311  17.315  -1.404  0.00  0.00     0.007 A 
ATOM     27 BR   UNL d   1      16.013  17.918  -0.311  0.00  0.00    -0.049 Br
ATOM     28  C   UNL d   1      15.004  16.609  -1.761  0.00  0.00     0.002 A 
ENDBRANCH   5  22
TORSDOF 4
ENDMDL
