MODEL 1
REMARK VINA RESULT:      65.8      0.000      0.000
REMARK  4 active torsions:
REMARK  status: ('A' for Active; 'I' for Inactive)
REMARK    1  A    between atoms: N_10  and  C_3 
REMARK    2  A    between atoms: C_13  and  C_5 
REMARK    3  A    between atoms: C_12  and  C_9 
REMARK    4  A    between atoms: C_19  and  N_11 
ROOT
ATOM      1  N   UNL d   1      14.189  14.156  -2.909  0.00  0.00    -0.196 N 
ATOM      2  C   UNL d   1      14.294  13.753  -2.193  0.00  0.00     0.167 A 
ATOM      3  C   UNL d   1      14.376  14.948  -2.951  0.00  0.00     0.152 A 
ATOM      4  N   UNL d   1      13.721  12.966  -3.494  0.00  0.00    -0.163 NA
ATOM      5  C   UNL d   1      14.115  12.970  -2.134  0.00  0.00     0.055 A 
ATOM      6  N   UNL d   1      14.585  14.154  -1.538  0.00  0.00    -0.231 NA
ATOM      7  C   UNL d   1      14.668  15.352  -2.293  0.00  0.00     0.052 A 
ATOM      8  C   UNL d   1      13.825  12.570  -2.789  0.00  0.00     0.104 A 
ATOM      9  C   UNL d   1      14.772  14.956  -1.588  0.00  0.00     0.063 A 
ATOM     10  C   UNL d   1      13.639  11.779  -2.743  0.00  0.00     0.023 C 
ENDROOT
BRANCH   3  11
ATOM     11  N   UNL d   1      14.268  15.363  -3.689  0.00  0.00    -0.286 N 
ATOM     12  C   UNL d   1      13.637  15.202  -4.226  0.00  0.00     0.101 A 
ATOM     13  C   UNL d   1      13.575  15.642  -4.942  0.00  0.00     0.100 A 
ATOM     14  N   UNL d   1      14.144  16.247  -5.130  0.00  0.00    -0.300 N 
ATOM     15  C   UNL d   1      14.772  16.401  -4.588  0.00  0.00     0.100 A 
ATOM     16  C   UNL d   1      14.839  15.958  -3.859  0.00  0.00     0.101 A 
BRANCH  14  17
ATOM     17  C   UNL d   1      14.089  16.691  -5.845  0.00  0.00     0.080 C 
ATOM     18  C   UNL d   1      13.400  16.605  -6.330  0.00  0.00     0.021 C 
ENDBRANCH  14  17
ENDBRANCH   3  11
BRANCH   9  19
ATOM     19  C   UNL d   1      15.072  15.368  -0.907  0.00  0.00     0.036 C 
ATOM     20  C   UNL d   1      15.371  15.771  -0.231  0.00  0.00     0.006 C 
ATOM     21  C   UNL d   1      15.041  16.220  -0.878  0.00  0.00     0.006 C 
ATOM     22  C   UNL d   1      15.400  14.922  -0.263  0.00  0.00     0.006 C 
ENDBRANCH   9  19
BRANCH   5  23
ATOM     23  C   UNL d   1      14.219  12.572  -1.425  0.00  0.00     0.004 A 
ATOM     24  C   UNL d   1      13.595  12.516  -0.901  0.00  0.00     0.000 A 
ATOM     25  C   UNL d   1      13.700  12.114  -0.185  0.00  0.00     0.000 A 
ATOM     26  C   UNL d   1      14.427  11.779  -0.015  0.00  0.00     0.000 A 
ATOM     27  C   UNL d   1      15.045  11.843  -0.550  0.00  0.00     0.000 A 
ATOM     28  C   UNL d   1      14.941  12.239  -1.255  0.00  0.00     0.000 A 
ENDBRANCH   5  23
TORSDOF 4
ENDMDL
