MODEL 1
REMARK VINA RESULT:      42.0      0.000      0.000
REMARK  7 active torsions:
REMARK  status: ('A' for Active; 'I' for Inactive)
REMARK    1  A    between atoms: C_2  and  S_1 
REMARK    2  A    between atoms: N_11  and  S_1 
REMARK    3  A    between atoms: O_14  and  C_4 
REMARK    4  A    between atoms: N_10  and  C_15 
REMARK    5  A    between atoms: C_19  and  N_11 
REMARK    6  A    between atoms: C_15  and  C_16 
REMARK    7  A    between atoms: C_16  and  C_19 
ROOT
ATOM      1  S   UNL d   1     -50.307  26.571  33.473  0.00  0.00     0.287 S 
ATOM      2  O   UNL d   1     -50.992  26.995  33.632  0.00  0.00    -0.198 OA
ATOM      3  O   UNL d   1     -49.616  26.143  33.313  0.00  0.00    -0.198 OA
ENDROOT
BRANCH   1   4
ATOM      4  C   UNL d   1     -50.745  25.877  33.436  0.00  0.00     0.128 A 
ATOM      5  C   UNL d   1     -50.358  25.145  33.483  0.00  0.00     0.026 A 
ATOM      6  C   UNL d   1     -50.802  24.442  33.446  0.00  0.00     0.059 A 
ATOM      7 CL   UNL d   1     -50.421  23.723  33.492  0.00  0.00    -0.082 Cl
ATOM      8  C   UNL d   1     -51.627  24.480  33.362  0.00  0.00     0.013 A 
ATOM      9  C   UNL d   1     -52.003  25.207  33.317  0.00  0.00     0.026 A 
ATOM     10  C   UNL d   1     -52.064  23.788  33.326  0.00  0.00     0.001 C 
ATOM     11  C   UNL d   1     -51.559  25.910  33.354  0.00  0.00     0.106 A 
BRANCH  11  12
ATOM     12  O   UNL d   1     -51.940  26.639  33.308  0.00  0.00    -0.327 OA
ATOM     13  C   UNL d   1     -52.371  26.911  33.952  0.00  0.00     0.181 C 
ENDBRANCH  11  12
ENDBRANCH   1   4
BRANCH   1  14
ATOM     14  N   UNL d   1     -49.865  27.271  33.510  0.00  0.00    -0.157 NA
BRANCH  14  15
ATOM     15  C   UNL d   1     -49.153  27.286  33.938  0.00  0.00     0.114 C 
BRANCH  15  16
ATOM     16  C   UNL d   1     -48.756  28.001  34.045  0.00  0.00     0.041 C 
BRANCH  16  17
ATOM     17  C   UNL d   1     -48.893  28.450  34.716  0.00  0.00     0.082 C 
BRANCH  17  18
ATOM     18  N   UNL d   1     -48.340  29.006  34.958  0.00  0.00    -0.299 N 
ATOM     19  C   UNL d   1     -47.710  28.781  35.456  0.00  0.00     0.107 A 
ATOM     20  C   UNL d   1     -47.158  29.337  35.698  0.00  0.00     0.142 A 
ATOM     21  O   UNL d   1     -47.221  30.118  35.453  0.00  0.00    -0.300 OA
ATOM     22  C   UNL d   1     -47.845  30.349  34.958  0.00  0.00     0.142 A 
ATOM     23  C   UNL d   1     -48.406  29.784  34.712  0.00  0.00     0.107 A 
ENDBRANCH  17  18
ENDBRANCH  16  17
ENDBRANCH  15  16
ENDBRANCH  14  15
ENDBRANCH   1  14
TORSDOF 7
ENDMDL
