MODEL 1
REMARK VINA RESULT:      -9.7      0.000      0.000
REMARK  3 active torsions:
REMARK  status: ('A' for Active; 'I' for Inactive)
REMARK    1  A    between atoms: C_4  and  S_1 
REMARK    2  A    between atoms: N_6  and  S_1 
REMARK    3  A    between atoms: C_2  and  C_8 
ROOT
ATOM      1  C   UNL d   1      52.785  32.772  53.233  0.00  0.00     0.104 A 
ATOM      2  C   UNL d   1      52.037  33.032  53.004  0.00  0.00     0.015 A 
ATOM      3  C   UNL d   1      51.895  33.844  52.919  0.00  0.00     0.025 A 
ATOM      4  C   UNL d   1      53.390  33.315  53.377  0.00  0.00     0.012 A 
ATOM      5  C   UNL d   1      52.496  34.390  53.062  0.00  0.00     0.002 A 
ATOM      6  C   UNL d   1      53.244  34.121  53.291  0.00  0.00     0.001 A 
ATOM      7  C   UNL d   1      54.136  33.052  53.605  0.00  0.00     0.001 C 
ENDROOT
BRANCH   3   8
ATOM      8  C   UNL d   1      51.145  34.109  52.690  0.00  0.00     0.111 A 
ATOM      9  N   UNL d   1      50.829  34.050  51.931  0.00  0.00    -0.239 NA
ATOM     10  C   UNL d   1      50.070  34.382  51.946  0.00  0.00     0.088 A 
ATOM     11  C   UNL d   1      49.497  34.481  51.368  0.00  0.00     0.020 A 
ATOM     12  C   UNL d   1      49.927  34.644  52.717  0.00  0.00     0.049 A 
ATOM     13  C   UNL d   1      48.785  34.837  51.550  0.00  0.00     0.002 A 
ATOM     14  C   UNL d   1      48.636  35.102  52.324  0.00  0.00     0.001 A 
ATOM     15  C   UNL d   1      49.212  35.003  52.907  0.00  0.00     0.008 A 
ATOM     16  S   UNL d   1      50.599  34.472  53.177  0.00  0.00    -0.066 SA
ENDBRANCH   3   8
BRANCH   1  17
ATOM     17  S   UNL d   1      52.937  31.960  53.321  0.00  0.00     0.271 S 
ATOM     18  O   UNL d   1      52.955  32.058  54.147  0.00  0.00    -0.200 OA
ATOM     19  O   UNL d   1      52.917  31.849  52.378  0.00  0.00    -0.200 OA
BRANCH  17  20
ATOM     20  N   UNL d   1      53.086  31.154  53.359  0.00  0.00    -0.229 N 
ATOM     21  C   UNL d   1      52.694  30.569  52.925  0.00  0.00     0.092 A 
ATOM     22  C   UNL d   1      53.014  29.838  53.131  0.00  0.00     0.021 A 
ATOM     23  C   UNL d   1      53.610  29.967  53.697  0.00  0.00     0.021 A 
ATOM     24  C   UNL d   1      53.650  30.779  53.834  0.00  0.00     0.092 A 
ENDBRANCH  17  20
ENDBRANCH   1  17
TORSDOF 3
ENDMDL
MODEL 2
REMARK VINA RESULT:      -9.4      0.960      4.488
REMARK  3 active torsions:
REMARK  status: ('A' for Active; 'I' for Inactive)
REMARK    1  A    between atoms: C_4  and  S_1 
REMARK    2  A    between atoms: N_6  and  S_1 
REMARK    3  A    between atoms: C_2  and  C_8 
ROOT
ATOM      1  C   UNL d   1      51.953  33.748  52.976  0.00  0.00     0.104 A 
ATOM      2  C   UNL d   1      52.061  32.933  53.043  0.00  0.00     0.015 A 
ATOM      3  C   UNL d   1      52.798  32.636  53.277  0.00  0.00     0.025 A 
ATOM      4  C   UNL d   1      52.574  34.266  53.140  0.00  0.00     0.012 A 
ATOM      5  C   UNL d   1      53.421  33.151  53.442  0.00  0.00     0.002 A 
ATOM      6  C   UNL d   1      53.305  33.966  53.373  0.00  0.00     0.001 A 
ATOM      7  C   UNL d   1      52.463  35.079  53.072  0.00  0.00     0.001 C 
ENDROOT
BRANCH   3   8
ATOM      8  C   UNL d   1      52.910  31.819  53.346  0.00  0.00     0.111 A 
ATOM      9  N   UNL d   1      52.602  31.250  52.836  0.00  0.00    -0.239 NA
ATOM     10  C   UNL d   1      52.849  30.506  53.107  0.00  0.00     0.088 A 
ATOM     11  C   UNL d   1      52.719  29.745  52.832  0.00  0.00     0.020 A 
ATOM     12  C   UNL d   1      53.308  30.627  53.784  0.00  0.00     0.049 A 
ATOM     13  C   UNL d   1      53.041  29.105  53.224  0.00  0.00     0.002 A 
ATOM     14  C   UNL d   1      53.503  29.221  53.904  0.00  0.00     0.001 A 
ATOM     15  C   UNL d   1      53.635  29.986  54.183  0.00  0.00     0.008 A 
ATOM     16  S   UNL d   1      53.343  31.446  53.929  0.00  0.00    -0.066 SA
ENDBRANCH   3   8
BRANCH   1  17
ATOM     17  S   UNL d   1      51.217  34.055  52.742  0.00  0.00     0.271 S 
ATOM     18  O   UNL d   1      51.514  34.166  51.973  0.00  0.00    -0.200 OA
ATOM     19  O   UNL d   1      50.878  33.927  53.621  0.00  0.00    -0.200 OA
BRANCH  17  20
ATOM     20  N   UNL d   1      50.474  34.350  52.557  0.00  0.00    -0.229 N 
ATOM     21  C   UNL d   1      50.123  34.343  51.808  0.00  0.00     0.092 A 
ATOM     22  C   UNL d   1      49.380  34.693  51.869  0.00  0.00     0.021 A 
ATOM     23  C   UNL d   1      49.266  34.921  52.661  0.00  0.00     0.021 A 
ATOM     24  C   UNL d   1      49.943  34.708  53.080  0.00  0.00     0.092 A 
ENDBRANCH  17  20
ENDBRANCH   1  17
TORSDOF 3
ENDMDL
MODEL 3
REMARK VINA RESULT:      -8.7      1.322      2.320
REMARK  3 active torsions:
REMARK  status: ('A' for Active; 'I' for Inactive)
REMARK    1  A    between atoms: C_4  and  S_1 
REMARK    2  A    between atoms: N_6  and  S_1 
REMARK    3  A    between atoms: C_2  and  C_8 
ROOT
ATOM      1  C   UNL d   1      53.191  32.803  53.657  0.00  0.00     0.104 A 
ATOM      2  C   UNL d   1      52.550  33.294  53.487  0.00  0.00     0.015 A 
ATOM      3  C   UNL d   1      51.909  32.995  53.056  0.00  0.00     0.025 A 
ATOM      4  C   UNL d   1      53.195  32.019  53.399  0.00  0.00     0.012 A 
ATOM      5  C   UNL d   1      51.910  32.212  52.797  0.00  0.00     0.002 A 
ATOM      6  C   UNL d   1      52.557  31.727  52.971  0.00  0.00     0.001 A 
ATOM      7  C   UNL d   1      53.837  31.532  53.571  0.00  0.00     0.001 C 
ENDROOT
BRANCH   3   8
ATOM      8  C   UNL d   1      51.264  33.484  52.883  0.00  0.00     0.111 A 
ATOM      9  N   UNL d   1      50.830  33.915  53.436  0.00  0.00    -0.239 NA
ATOM     10  C   UNL d   1      50.238  34.326  53.028  0.00  0.00     0.088 A 
ATOM     11  C   UNL d   1      49.646  34.836  53.276  0.00  0.00     0.020 A 
ATOM     12  C   UNL d   1      50.314  34.144  52.225  0.00  0.00     0.049 A 
ATOM     13  C   UNL d   1      49.131  35.165  52.734  0.00  0.00     0.002 A 
ATOM     14  C   UNL d   1      49.204  34.985  51.926  0.00  0.00     0.001 A 
ATOM     15  C   UNL d   1      49.799  34.472  51.674  0.00  0.00     0.008 A 
ATOM     16  S   UNL d   1      50.955  33.619  52.140  0.00  0.00    -0.066 SA
ENDBRANCH   3   8
BRANCH   1  17
ATOM     17  S   UNL d   1      53.838  33.094  54.089  0.00  0.00     0.271 S 
ATOM     18  O   UNL d   1      54.245  33.230  53.377  0.00  0.00    -0.200 OA
ATOM     19  O   UNL d   1      53.371  32.939  54.903  0.00  0.00    -0.200 OA
BRANCH  17  20
ATOM     20  N   UNL d   1      54.451  33.373  54.558  0.00  0.00    -0.229 N 
ATOM     21  C   UNL d   1      54.447  33.419  55.384  0.00  0.00     0.092 A 
ATOM     22  C   UNL d   1      55.170  33.730  55.628  0.00  0.00     0.021 A 
ATOM     23  C   UNL d   1      55.629  33.880  54.950  0.00  0.00     0.021 A 
ATOM     24  C   UNL d   1      55.181  33.658  54.294  0.00  0.00     0.092 A 
ENDBRANCH  17  20
ENDBRANCH   1  17
TORSDOF 3
ENDMDL
MODEL 4
REMARK VINA RESULT:      -7.2      2.070      3.021
REMARK  3 active torsions:
REMARK  status: ('A' for Active; 'I' for Inactive)
REMARK    1  A    between atoms: C_4  and  S_1 
REMARK    2  A    between atoms: N_6  and  S_1 
REMARK    3  A    between atoms: C_2  and  C_8 
ROOT
ATOM      1  C   UNL d   1      51.270  34.340  53.028  0.00  0.00     0.104 A 
ATOM      2  C   UNL d   1      50.582  34.761  53.201  0.00  0.00     0.015 A 
ATOM      3  C   UNL d   1      49.959  34.768  52.656  0.00  0.00     0.025 A 
ATOM      4  C   UNL d   1      51.338  33.929  52.316  0.00  0.00     0.012 A 
ATOM      5  C   UNL d   1      50.024  34.358  51.943  0.00  0.00     0.002 A 
ATOM      6  C   UNL d   1      50.717  33.939  51.776  0.00  0.00     0.001 A 
ATOM      7  C   UNL d   1      52.027  33.509  52.146  0.00  0.00     0.001 C 
ENDROOT
BRANCH   3   8
ATOM      8  C   UNL d   1      49.267  35.189  52.826  0.00  0.00     0.111 A 
ATOM      9  N   UNL d   1      49.095  35.556  53.543  0.00  0.00    -0.239 NA
ATOM     10  C   UNL d   1      48.350  35.912  53.475  0.00  0.00     0.088 A 
ATOM     11  C   UNL d   1      47.894  36.349  53.997  0.00  0.00     0.020 A 
ATOM     12  C   UNL d   1      48.069  35.758  52.712  0.00  0.00     0.049 A 
ATOM     13  C   UNL d   1      47.163  36.634  53.768  0.00  0.00     0.002 A 
ATOM     14  C   UNL d   1      46.877  36.483  53.003  0.00  0.00     0.001 A 
ATOM     15  C   UNL d   1      47.334  36.043  52.475  0.00  0.00     0.008 A 
ATOM     16  S   UNL d   1      48.644  35.308  52.312  0.00  0.00    -0.066 SA
ENDBRANCH   3   8
BRANCH   1  17
ATOM     17  S   UNL d   1      51.900  34.327  53.569  0.00  0.00     0.271 S 
ATOM     18  O   UNL d   1      51.630  33.595  53.856  0.00  0.00    -0.200 OA
ATOM     19  O   UNL d   1      52.207  35.164  53.240  0.00  0.00    -0.200 OA
BRANCH  17  20
ATOM     20  N   UNL d   1      52.537  34.357  54.085  0.00  0.00    -0.229 N 
ATOM     21  C   UNL d   1      52.919  35.044  54.342  0.00  0.00     0.092 A 
ATOM     22  C   UNL d   1      53.527  34.826  54.854  0.00  0.00     0.021 A 
ATOM     23  C   UNL d   1      53.524  33.996  54.918  0.00  0.00     0.021 A 
ATOM     24  C   UNL d   1      52.912  33.713  54.442  0.00  0.00     0.092 A 
ENDBRANCH  17  20
ENDBRANCH   1  17
TORSDOF 3
ENDMDL
MODEL 5
REMARK VINA RESULT:      -6.9      2.379      3.225
REMARK  3 active torsions:
REMARK  status: ('A' for Active; 'I' for Inactive)
REMARK    1  A    between atoms: C_4  and  S_1 
REMARK    2  A    between atoms: N_6  and  S_1 
REMARK    3  A    between atoms: C_2  and  C_8 
ROOT
ATOM      1  C   UNL d   1      53.085  30.671  53.529  0.00  0.00     0.104 A 
ATOM      2  C   UNL d   1      53.135  31.432  53.842  0.00  0.00     0.015 A 
ATOM      3  C   UNL d   1      52.981  32.085  53.357  0.00  0.00     0.025 A 
ATOM      4  C   UNL d   1      52.882  30.559  52.737  0.00  0.00     0.012 A 
ATOM      5  C   UNL d   1      52.778  31.977  52.565  0.00  0.00     0.002 A 
ATOM      6  C   UNL d   1      52.729  31.210  52.258  0.00  0.00     0.001 A 
ATOM      7  C   UNL d   1      52.833  29.797  52.427  0.00  0.00     0.001 C 
ENDROOT
BRANCH   3   8
ATOM      8  C   UNL d   1      53.030  32.850  53.667  0.00  0.00     0.111 A 
ATOM      9  N   UNL d   1      53.485  33.074  54.317  0.00  0.00    -0.239 NA
ATOM     10  C   UNL d   1      53.373  33.886  54.438  0.00  0.00     0.088 A 
ATOM     11  C   UNL d   1      53.675  34.411  54.991  0.00  0.00     0.020 A 
ATOM     12  C   UNL d   1      52.848  34.155  53.859  0.00  0.00     0.049 A 
ATOM     13  C   UNL d   1      53.459  35.199  54.972  0.00  0.00     0.002 A 
ATOM     14  C   UNL d   1      52.932  35.473  54.392  0.00  0.00     0.001 A 
ATOM     15  C   UNL d   1      52.627  34.947  53.834  0.00  0.00     0.008 A 
ATOM     16  S   UNL d   1      52.637  33.506  53.381  0.00  0.00    -0.066 SA
ENDBRANCH   3   8
BRANCH   1  17
ATOM     17  S   UNL d   1      53.238  30.010  54.008  0.00  0.00     0.271 S 
ATOM     18  O   UNL d   1      54.048  30.078  53.834  0.00  0.00    -0.200 OA
ATOM     19  O   UNL d   1      52.312  29.932  54.206  0.00  0.00    -0.200 OA
BRANCH  17  20
ATOM     20  N   UNL d   1      53.341  29.354  54.491  0.00  0.00    -0.229 N 
ATOM     21  C   UNL d   1      53.088  29.287  55.276  0.00  0.00     0.092 A 
ATOM     22  C   UNL d   1      53.302  28.541  55.552  0.00  0.00     0.021 A 
ATOM     23  C   UNL d   1      53.693  28.140  54.936  0.00  0.00     0.021 A 
ATOM     24  C   UNL d   1      53.713  28.645  54.285  0.00  0.00     0.092 A 
ENDBRANCH  17  20
ENDBRANCH   1  17
TORSDOF 3
ENDMDL
