MODEL 1
REMARK VINA RESULT:       7.3      0.000      0.000
REMARK  3 active torsions:
REMARK  status: ('A' for Active; 'I' for Inactive)
REMARK    1  A    between atoms: C_6  and  C_2 
REMARK    2  A    between atoms: O_7  and  C_6 
REMARK    3  A    between atoms: C_8  and  O_7 
ROOT
ATOM      1  N   UNL d   1      46.155 -17.894  43.124  0.00  0.00    -0.224 NA
ATOM      2  C   UNL d   1      46.161 -17.584  43.894  0.00  0.00     0.188 A 
ATOM      3  N   UNL d   1      46.328 -18.221  44.399  0.00  0.00    -0.224 NA
ATOM      4  C   UNL d   1      46.312 -18.691  43.159  0.00  0.00     0.101 A 
ATOM      5  C   UNL d   1      46.420 -18.894  43.953  0.00  0.00     0.101 A 
ATOM      6  C   UNL d   1      46.378 -19.282  42.595  0.00  0.00     0.021 A 
ATOM      7  C   UNL d   1      46.591 -19.683  44.162  0.00  0.00     0.021 A 
ATOM      8  C   UNL d   1      46.647 -20.234  43.579  0.00  0.00     0.002 A 
ATOM      9  C   UNL d   1      46.539 -20.030  42.785  0.00  0.00     0.002 A 
ENDROOT
BRANCH   2  10
ATOM     10  C   UNL d   1      46.008 -16.795  43.888  0.00  0.00     0.161 C 
BRANCH  10  11
ATOM     11  O   UNL d   1      45.817 -16.395  44.599  0.00  0.00    -0.302 OA
BRANCH  11  12
ATOM     12  C   UNL d   1      45.724 -15.567  44.612  0.00  0.00     0.100 A 
ATOM     13  C   UNL d   1      45.044 -15.239  44.929  0.00  0.00     0.025 A 
ATOM     14  C   UNL d   1      44.928 -14.422  44.954  0.00  0.00     0.002 A 
ATOM     15  C   UNL d   1      45.529 -13.950  44.644  0.00  0.00     0.000 A 
ATOM     16  C   UNL d   1      46.213 -14.277  44.326  0.00  0.00     0.002 A 
ATOM     17  C   UNL d   1      45.436 -13.122  44.658  0.00  0.00     0.000 C 
ATOM     18  C   UNL d   1      46.324 -15.091  44.303  0.00  0.00     0.025 A 
ENDBRANCH  11  12
ENDBRANCH  10  11
ENDBRANCH   2  10
TORSDOF 3
ENDMDL
