MODEL 1
REMARK VINA RESULT:      44.0      0.000      0.000
REMARK  4 active torsions:
REMARK  status: ('A' for Active; 'I' for Inactive)
REMARK    1  A    between atoms: C_9  and  N_1 
REMARK    2  A    between atoms: C_6  and  C_2 
REMARK       I    between atoms: N_8  and  C_6 
REMARK    3  A    between atoms: C_15  and  N_8 
REMARK    4  A    between atoms: C_13  and  C_9 
ROOT
ATOM      1  N   UNL d   1      13.520  12.498  -3.250  0.00  0.00    -0.258 N 
ATOM      2  C   UNL d   1      13.761  13.826  -3.366  0.00  0.00     0.114 A 
ATOM      3  C   UNL d   1      13.763  13.174  -2.933  0.00  0.00     0.270 A 
ATOM      4  C   UNL d   1      13.276  12.473  -3.992  0.00  0.00     0.150 A 
ATOM      5  C   UNL d   1      13.517  13.805  -4.110  0.00  0.00     0.013 A 
ATOM      6  C   UNL d   1      13.277  13.130  -4.419  0.00  0.00     0.035 A 
ATOM      7  N   UNL d   1      13.039  11.808  -4.299  0.00  0.00    -0.227 NA
ATOM      8  O   UNL d   1      14.011  13.453  -2.342  0.00  0.00    -0.266 OA
ATOM      9  C   UNL d   1      13.034  13.112  -5.165  0.00  0.00     0.005 A 
ATOM     10  C   UNL d   1      12.797  11.780  -5.033  0.00  0.00     0.101 A 
ATOM     11  C   UNL d   1      12.794  12.432  -5.467  0.00  0.00     0.021 A 
ENDROOT
BRANCH   2  12
ATOM     12  C   UNL d   1      14.003  14.504  -3.054  0.00  0.00     0.284 C 
ATOM     13  N   UNL d   1      14.755  14.792  -2.844  0.00  0.00    -0.208 NA
ATOM     14  O   UNL d   1      13.427  14.745  -3.022  0.00  0.00    -0.265 OA
BRANCH  13  15
ATOM     15  C   UNL d   1      14.835  15.568  -2.510  0.00  0.00     0.085 A 
ATOM     16  C   UNL d   1      14.816  16.240  -2.997  0.00  0.00     0.019 A 
ATOM     17  C   UNL d   1      14.895  16.990  -2.658  0.00  0.00     0.002 A 
ATOM     18  C   UNL d   1      14.992  17.069  -1.844  0.00  0.00     0.000 A 
ATOM     19  C   UNL d   1      15.013  16.409  -1.345  0.00  0.00     0.002 A 
ATOM     20  C   UNL d   1      14.933  15.651  -1.688  0.00  0.00     0.019 A 
ENDBRANCH  13  15
ENDBRANCH   2  12
BRANCH   1  21
ATOM     21  C   UNL d   1      13.521  11.800  -2.791  0.00  0.00     0.084 C 
BRANCH  21  22
ATOM     22  C   UNL d   1      13.819  11.796  -2.221  0.00  0.00     0.018 A 
ATOM     23  C   UNL d   1      14.684  11.799  -2.233  0.00  0.00     0.004 A 
ATOM     24  C   UNL d   1      15.129  11.793  -1.490  0.00  0.00     0.030 A 
ATOM     25  C   UNL d   1      14.709  11.784  -0.740  0.00  0.00     0.140 A 
ATOM     26  C   UNL d   1      13.849  11.781  -0.717  0.00  0.00     0.030 A 
ATOM     27  F   UNL d   1      15.142  11.779  -0.015  0.00  0.00    -0.204 F 
ATOM     28  C   UNL d   1      13.397  11.787  -1.464  0.00  0.00     0.004 A 
ENDBRANCH  21  22
ENDBRANCH   1  21
TORSDOF 4
ENDMDL
