MODEL 1
REMARK VINA RESULT:      49.1      0.000      0.000
REMARK  5 active torsions:
REMARK  status: ('A' for Active; 'I' for Inactive)
REMARK    1  A    between atoms: N_3  and  C_1 
REMARK    2  A    between atoms: N_6  and  C_1 
REMARK       I    between atoms: C_2  and  N_4 
REMARK    3  A    between atoms: C_5  and  C_2 
REMARK    4  A    between atoms: C_7  and  N_3 
REMARK    5  A    between atoms: N_4  and  N_6 
ROOT
ATOM      1  N   UNL d   1     -49.571  27.290  34.473  0.00  0.00    -0.273 N 
ATOM      2  H   UNL d   1     -50.049  27.088  35.118  0.00  0.00     0.189 HD
ENDROOT
BRANCH   1   3
ATOM      3  N   UNL d   1     -48.976  27.853  34.556  0.00  0.00    -0.264 N 
ATOM      4  C   UNL d   1     -48.887  28.238  35.276  0.00  0.00     0.272 C 
ATOM      5  O   UNL d   1     -49.389  28.062  35.910  0.00  0.00    -0.266 OA
ATOM      6  H   UNL d   1     -48.482  28.026  33.931  0.00  0.00     0.190 HD
BRANCH   4   7
ATOM      7  C   UNL d   1     -48.293  28.810  35.382  0.00  0.00     0.058 A 
ATOM      8  C   UNL d   1     -48.156  29.130  36.118  0.00  0.00     0.011 A 
ATOM      9  C   UNL d   1     -47.561  29.697  36.201  0.00  0.00     0.035 A 
ATOM     10 BR   UNL d   1     -47.401  30.038  36.937  0.00  0.00    -0.049 Br
ATOM     11  C   UNL d   1     -47.111  29.934  35.541  0.00  0.00     0.007 A 
ATOM     12  C   UNL d   1     -47.256  29.606  34.798  0.00  0.00     0.001 A 
ATOM     13  C   UNL d   1     -47.844  29.047  34.723  0.00  0.00     0.005 A 
ENDBRANCH   4   7
ENDBRANCH   1   3
BRANCH   1  14
ATOM     14  C   UNL d   1     -49.681  26.936  33.747  0.00  0.00     0.191 C 
ATOM     15  S   UNL d   1     -49.043  26.683  33.306  0.00  0.00    -0.039 SA
BRANCH  14  16
ATOM     16  N   UNL d   1     -50.459  26.832  33.450  0.00  0.00    -0.331 N 
ATOM     17  H   UNL d   1     -50.895  27.491  33.202  0.00  0.00     0.168 HD
BRANCH  16  18
ATOM     18  C   UNL d   1     -50.782  26.079  33.407  0.00  0.00     0.058 A 
ATOM     19  C   UNL d   1     -51.602  25.994  33.378  0.00  0.00     0.016 A 
ATOM     20  C   UNL d   1     -52.092  26.661  33.391  0.00  0.00     0.002 C 
ATOM     21  C   UNL d   1     -51.919  25.245  33.335  0.00  0.00     0.001 A 
ATOM     22  C   UNL d   1     -51.436  24.588  33.322  0.00  0.00     0.000 A 
ATOM     23  C   UNL d   1     -50.625  24.665  33.351  0.00  0.00     0.002 A 
ATOM     24  C   UNL d   1     -50.299  25.422  33.394  0.00  0.00     0.017 A 
ENDBRANCH  16  18
ENDBRANCH  14  16
ENDBRANCH   1  14
TORSDOF 5
ENDMDL
MODEL 2
REMARK VINA RESULT:      52.1      2.087      5.052
REMARK  5 active torsions:
REMARK  status: ('A' for Active; 'I' for Inactive)
REMARK    1  A    between atoms: N_3  and  C_1 
REMARK    2  A    between atoms: N_6  and  C_1 
REMARK       I    between atoms: C_2  and  N_4 
REMARK    3  A    between atoms: C_5  and  C_2 
REMARK    4  A    between atoms: C_7  and  N_3 
REMARK    5  A    between atoms: N_4  and  N_6 
ROOT
ATOM      1  N   UNL d   1     -49.084  27.578  33.702  0.00  0.00    -0.273 N 
ATOM      2  H   UNL d   1     -48.519  27.407  33.121  0.00  0.00     0.189 HD
ENDROOT
BRANCH   1   3
ATOM      3  N   UNL d   1     -49.838  27.249  33.659  0.00  0.00    -0.264 N 
ATOM      4  C   UNL d   1     -49.918  26.457  33.462  0.00  0.00     0.272 C 
ATOM      5  O   UNL d   1     -49.250  25.993  33.306  0.00  0.00    -0.266 OA
ATOM      6  H   UNL d   1     -50.496  27.706  33.812  0.00  0.00     0.190 HD
BRANCH   4   7
ATOM      7  C   UNL d   1     -50.669  26.104  33.413  0.00  0.00     0.058 A 
ATOM      8  C   UNL d   1     -50.746  25.293  33.418  0.00  0.00     0.011 A 
ATOM      9  C   UNL d   1     -51.501  24.964  33.369  0.00  0.00     0.035 A 
ATOM     10 BR   UNL d   1     -51.607  24.144  33.373  0.00  0.00    -0.049 Br
ATOM     11  C   UNL d   1     -52.171  25.456  33.314  0.00  0.00     0.007 A 
ATOM     12  C   UNL d   1     -52.087  26.276  33.308  0.00  0.00     0.001 A 
ATOM     13  C   UNL d   1     -51.339  26.595  33.358  0.00  0.00     0.005 A 
ENDBRANCH   4   7
ENDBRANCH   1   3
BRANCH   1  14
ATOM     14  C   UNL d   1     -48.903  28.072  34.325  0.00  0.00     0.191 C 
ATOM     15  S   UNL d   1     -49.106  27.871  35.089  0.00  0.00    -0.039 SA
BRANCH  14  16
ATOM     16  N   UNL d   1     -48.505  28.796  34.177  0.00  0.00    -0.331 N 
ATOM     17  H   UNL d   1     -48.519  29.125  33.417  0.00  0.00     0.168 HD
BRANCH  16  18
ATOM     18  C   UNL d   1     -48.105  29.174  34.786  0.00  0.00     0.058 A 
ATOM     19  C   UNL d   1     -48.195  29.988  34.883  0.00  0.00     0.016 A 
ATOM     20  C   UNL d   1     -48.684  30.418  34.371  0.00  0.00     0.002 C 
ATOM     21  C   UNL d   1     -47.797  30.359  35.488  0.00  0.00     0.001 A 
ATOM     22  C   UNL d   1     -47.316  29.935  35.993  0.00  0.00     0.000 A 
ATOM     23  C   UNL d   1     -47.223  29.130  35.902  0.00  0.00     0.002 A 
ATOM     24  C   UNL d   1     -47.624  28.749  35.290  0.00  0.00     0.017 A 
ENDBRANCH  16  18
ENDBRANCH  14  16
ENDBRANCH   1  14
TORSDOF 5
ENDMDL
