MODEL 1
REMARK VINA RESULT:      29.4      0.000      0.000
REMARK  3 active torsions:
REMARK  status: ('A' for Active; 'I' for Inactive)
REMARK    1  A    between atoms: C_5  and  N_1 
REMARK    2  A    between atoms: C_11  and  C_3 
REMARK    3  A    between atoms: C_7  and  C_5 
ROOT
ATOM      1  N   UNL d   1      13.419  12.522  -2.719  0.00  0.00    -0.286 N 
ATOM      2  N   UNL d   1      13.933  13.559  -3.413  0.00  0.00    -0.224 NA
ATOM      3  C   UNL d   1      13.832  13.236  -2.650  0.00  0.00     0.191 A 
ATOM      4  C   UNL d   1      13.258  12.393  -3.528  0.00  0.00     0.083 A 
ATOM      5  C   UNL d   1      13.575  13.033  -3.949  0.00  0.00     0.099 A 
ATOM      6  C   UNL d   1      12.866  11.782  -3.939  0.00  0.00     0.019 A 
ATOM      7  C   UNL d   1      13.503  13.067  -4.783  0.00  0.00     0.021 A 
ATOM      8  C   UNL d   1      12.794  11.813  -4.760  0.00  0.00     0.002 A 
ATOM      9  C   UNL d   1      13.112  12.454  -5.181  0.00  0.00     0.002 A 
ENDROOT
BRANCH   1  10
ATOM     10  C   UNL d   1      13.278  12.136  -2.004  0.00  0.00     0.082 C 
BRANCH  10  11
ATOM     11  C   UNL d   1      13.891  12.018  -1.472  0.00  0.00     0.018 A 
ATOM     12  C   UNL d   1      13.731  11.904  -0.678  0.00  0.00     0.001 A 
ATOM     13  C   UNL d   1      14.345  11.785  -0.144  0.00  0.00     0.000 A 
ATOM     14  C   UNL d   1      12.948  11.910  -0.418  0.00  0.00     0.000 C 
ATOM     15  C   UNL d   1      15.126  11.780  -0.408  0.00  0.00     0.000 A 
ATOM     16  C   UNL d   1      15.289  11.894  -1.209  0.00  0.00     0.000 A 
ATOM     17  C   UNL d   1      14.672  12.013  -1.739  0.00  0.00     0.002 A 
ATOM     18  C   UNL d   1      16.071  11.890  -1.476  0.00  0.00     0.000 C 
ENDBRANCH  10  11
ENDBRANCH   1  10
BRANCH   3  19
ATOM     19  C   UNL d   1      14.218  13.839  -2.252  0.00  0.00     0.271 C 
ATOM     20  O   UNL d   1      14.278  14.588  -2.593  0.00  0.00    -0.280 OA
ENDBRANCH   3  19
TORSDOF 3
ENDMDL
