MODEL 1
REMARK VINA RESULT:      25.7      0.000      0.000
REMARK  4 active torsions:
REMARK  status: ('A' for Active; 'I' for Inactive)
REMARK    1  A    between atoms: N_4  and  C_1 
REMARK       I    between atoms: C_10  and  N_4 
REMARK    2  A    between atoms: C_7  and  C_8 
REMARK    3  A    between atoms: O_15  and  C_7 
REMARK    4  A    between atoms: C_17  and  O_15 
ROOT
ATOM      1  C   UNL d   1     -52.595  23.868  33.448  0.00  0.00     0.197 A 
ATOM      2  N   UNL d   1     -51.834  23.524  33.466  0.00  0.00    -0.221 NA
ATOM      3  S   UNL d   1     -52.501  24.685  33.406  0.00  0.00    -0.047 SA
ATOM      4  C   UNL d   1     -51.692  24.861  33.398  0.00  0.00     0.050 A 
ATOM      5  C   UNL d   1     -51.277  24.137  33.435  0.00  0.00     0.090 A 
ATOM      6  C   UNL d   1     -50.461  25.566  33.362  0.00  0.00     0.064 A 
ATOM      7  C   UNL d   1     -51.278  25.573  33.361  0.00  0.00     0.013 A 
ATOM      8  C   UNL d   1     -50.456  24.141  33.435  0.00  0.00     0.020 A 
ATOM      9  C   UNL d   1     -50.046  24.842  33.399  0.00  0.00     0.007 A 
ENDROOT
BRANCH   6  10
ATOM     10  C   UNL d   1     -50.033  26.272  33.326  0.00  0.00     0.300 C 
ATOM     11  O   UNL d   1     -49.219  26.261  33.310  0.00  0.00    -0.259 OA
BRANCH  10  12
ATOM     12  O   UNL d   1     -50.446  26.993  33.306  0.00  0.00    -0.271 OA
BRANCH  12  13
ATOM     13  C   UNL d   1     -50.152  27.654  33.706  0.00  0.00     0.126 C 
ATOM     14  C   UNL d   1     -50.333  28.404  33.448  0.00  0.00     0.029 C 
ENDBRANCH  12  13
ENDBRANCH  10  12
ENDBRANCH   6  10
BRANCH   1  15
ATOM     15  N   UNL d   1     -53.313  23.457  33.469  0.00  0.00    -0.183 NA
ATOM     16  C   UNL d   1     -53.957  23.771  33.877  0.00  0.00     0.281 C 
ATOM     17  O   UNL d   1     -53.884  24.505  34.270  0.00  0.00    -0.265 OA
ATOM     18  C   UNL d   1     -54.663  23.367  33.898  0.00  0.00     0.068 C 
ENDBRANCH   1  15
TORSDOF 4
ENDMDL
