MODEL 1
REMARK VINA RESULT:      20.7      0.000      0.000
REMARK  2 active torsions:
REMARK  status: ('A' for Active; 'I' for Inactive)
REMARK    1  A    between atoms: C_10  and  N_1 
REMARK    2  A    between atoms: C_6  and  C_7 
ROOT
ATOM      1  N   UNL d   1      23.570  12.674  -1.175  0.00  0.00    -0.288 N 
ATOM      2  C   UNL d   1      24.137  12.181  -0.823  0.00  0.00     0.183 A 
ATOM      3  N   UNL d   1      24.655  11.916  -1.419  0.00  0.00    -0.224 NA
ATOM      4  C   UNL d   1      23.737  12.714  -1.985  0.00  0.00     0.083 A 
ATOM      5  C   UNL d   1      24.402  12.249  -2.135  0.00  0.00     0.099 A 
ATOM      6  C   UNL d   1      24.325  12.587  -3.521  0.00  0.00     0.066 A 
ATOM      7  C   UNL d   1      24.696  12.187  -2.905  0.00  0.00     0.027 A 
ATOM      8  C   UNL d   1      23.365  13.116  -2.606  0.00  0.00     0.019 A 
ATOM      9  C   UNL d   1      23.660  13.051  -3.372  0.00  0.00     0.008 A 
ENDROOT
BRANCH   1  10
ATOM     10  C   UNL d   1      22.955  13.054  -0.791  0.00  0.00     0.066 A 
ATOM     11  C   UNL d   1      22.214  12.692  -0.739  0.00  0.00     0.018 A 
ATOM     12  C   UNL d   1      21.597  13.066  -0.358  0.00  0.00     0.002 A 
ATOM     13  C   UNL d   1      21.707  13.817  -0.015  0.00  0.00     0.000 A 
ATOM     14  C   UNL d   1      22.445  14.176  -0.066  0.00  0.00     0.002 A 
ATOM     15  C   UNL d   1      23.072  13.795  -0.454  0.00  0.00     0.018 A 
ENDBRANCH   1  10
BRANCH   6  16
ATOM     16  C   UNL d   1      24.619  12.523  -4.288  0.00  0.00     0.211 C 
ATOM     17  O   UNL d   1      24.768  11.779  -4.613  0.00  0.00    -0.644 OA
ATOM     18  O   UNL d   1      24.767  13.205  -4.737  0.00  0.00    -0.644 OA
ENDBRANCH   6  16
TORSDOF 2
ENDMDL
