MODEL 1
REMARK VINA RESULT:      49.9      0.000      0.000
REMARK  4 active torsions:
REMARK  status: ('A' for Active; 'I' for Inactive)
REMARK    1  A    between atoms: N_3  and  S_1 
REMARK    2  A    between atoms: N_5  and  S_1 
REMARK    3  A    between atoms: S_2  and  N_4 
REMARK    4  A    between atoms: C_14  and  S_2 
ROOT
ATOM      1  N   UNL d   1      13.609  13.675  -3.580  0.00  0.00    -0.213 N 
ATOM      2  N   UNL d   1      14.287  14.741  -2.539  0.00  0.00    -0.226 N 
ATOM      3  C   UNL d   1      14.275  13.923  -2.342  0.00  0.00     0.111 A 
ATOM      4  C   UNL d   1      13.963  15.000  -3.241  0.00  0.00     0.111 A 
ATOM      5  C   UNL d   1      13.621  14.463  -3.766  0.00  0.00     0.113 A 
ATOM      6  C   UNL d   1      13.933  13.386  -2.867  0.00  0.00     0.113 A 
ENDROOT
BRANCH   2   7
ATOM      7  S   UNL d   1      14.629  15.278  -2.014  0.00  0.00     0.271 S 
ATOM      8  O   UNL d   1      15.053  15.929  -2.308  0.00  0.00    -0.200 OA
ATOM      9  O   UNL d   1      14.550  15.170  -1.202  0.00  0.00    -0.200 OA
BRANCH   7  10
ATOM     10  C   UNL d   1      14.970  15.815  -1.490  0.00  0.00     0.104 A 
ATOM     11  C   UNL d   1      15.181  16.567  -1.756  0.00  0.00     0.013 A 
ATOM     12  C   UNL d   1      15.523  17.105  -1.231  0.00  0.00     0.001 A 
ATOM     13  C   UNL d   1      15.652  16.888  -0.443  0.00  0.00     0.000 A 
ATOM     14  C   UNL d   1      15.436  16.124  -0.183  0.00  0.00     0.001 A 
ATOM     15  C   UNL d   1      15.098  15.598  -0.709  0.00  0.00     0.013 A 
ENDBRANCH   7  10
ENDBRANCH   2   7
BRANCH   1  16
ATOM     16  S   UNL d   1      13.261  13.129  -4.112  0.00  0.00     0.337 S 
ATOM     17  O   UNL d   1      13.398  12.323  -4.023  0.00  0.00    -0.181 OA
ATOM     18  O   UNL d   1      12.779  13.405  -4.729  0.00  0.00    -0.181 OA
BRANCH  16  19
ATOM     19  N   UNL d   1      13.021  12.448  -4.516  0.00  0.00    -0.213 N 
ATOM     20  C   UNL d   1      12.769  11.779  -4.094  0.00  0.00     0.113 C 
ATOM     21  C   UNL d   1      13.034  12.434  -5.336  0.00  0.00     0.113 C 
ENDBRANCH  16  19
ENDBRANCH   1  16
TORSDOF 4
ENDMDL
