MODEL 1
REMARK VINA RESULT:      -8.8      0.000      0.000
REMARK  6 active torsions:
REMARK  status: ('A' for Active; 'I' for Inactive)
REMARK    1  A    between atoms: N_6  and  C_1 
REMARK    2  A    between atoms: C_7  and  C_2 
REMARK       I    between atoms: C_8  and  N_6 
REMARK    3  A    between atoms: O_14  and  C_7 
REMARK    4  A    between atoms: C_10  and  C_8 
REMARK    5  A    between atoms: N_9  and  C_10 
REMARK    6  A    between atoms: C_21  and  O_14 
ROOT
ATOM      1  C   UNL d   1      52.758  32.339  53.109  0.00  0.00     0.119 A 
ATOM      2  C   UNL d   1      53.467  32.083  53.443  0.00  0.00     0.088 A 
ATOM      3  S   UNL d   1      52.298  31.693  52.938  0.00  0.00    -0.068 SA
ATOM      4  C   UNL d   1      53.440  31.267  53.476  0.00  0.00     0.013 A 
ATOM      5  C   UNL d   1      52.711  31.023  53.161  0.00  0.00     0.031 A 
ATOM      6  C   UNL d   1      53.968  30.690  53.745  0.00  0.00     0.001 A 
ATOM      7  C   UNL d   1      52.520  30.206  53.120  0.00  0.00     0.006 A 
ATOM      8  C   UNL d   1      53.795  29.901  53.711  0.00  0.00     0.000 A 
ATOM      9  C   UNL d   1      53.066  29.657  53.396  0.00  0.00     0.001 A 
ENDROOT
BRANCH   1  10
ATOM     10  N   UNL d   1      52.553  33.127  52.974  0.00  0.00    -0.200 NA
ATOM     11  C   UNL d   1      51.768  33.378  53.012  0.00  0.00     0.297 C 
ATOM     12  O   UNL d   1      51.196  32.811  53.191  0.00  0.00    -0.264 OA
BRANCH  11  13
ATOM     13  C   UNL d   1      51.584  34.170  52.873  0.00  0.00     0.144 C 
BRANCH  13  14
ATOM     14  N   UNL d   1      50.828  34.337  52.581  0.00  0.00    -0.295 N 
ATOM     15  C   UNL d   1      50.254  34.629  53.105  0.00  0.00     0.107 A 
ATOM     16  C   UNL d   1      49.498  34.798  52.819  0.00  0.00     0.142 A 
ATOM     17  O   UNL d   1      49.308  34.682  52.039  0.00  0.00    -0.300 OA
ATOM     18  C   UNL d   1      49.882  34.390  51.515  0.00  0.00     0.142 A 
ATOM     19  C   UNL d   1      50.624  34.224  51.792  0.00  0.00     0.107 A 
ENDBRANCH  13  14
ENDBRANCH  11  13
ENDBRANCH   1  10
BRANCH   2  20
ATOM     20  C   UNL d   1      54.105  32.556  53.704  0.00  0.00     0.302 C 
ATOM     21  O   UNL d   1      54.691  32.778  53.153  0.00  0.00    -0.259 OA
BRANCH  20  22
ATOM     22  O   UNL d   1      54.146  32.792  54.487  0.00  0.00    -0.271 OA
BRANCH  22  23
ATOM     23  C   UNL d   1      54.756  33.272  54.744  0.00  0.00     0.126 C 
ATOM     24  C   UNL d   1      54.773  33.531  55.524  0.00  0.00     0.029 C 
ENDBRANCH  22  23
ENDBRANCH  20  22
ENDBRANCH   2  20
TORSDOF 6
ENDMDL
MODEL 2
REMARK VINA RESULT:      -8.1      1.649      4.390
REMARK  6 active torsions:
REMARK  status: ('A' for Active; 'I' for Inactive)
REMARK    1  A    between atoms: N_6  and  C_1 
REMARK    2  A    between atoms: C_7  and  C_2 
REMARK       I    between atoms: C_8  and  N_6 
REMARK    3  A    between atoms: O_14  and  C_7 
REMARK    4  A    between atoms: C_10  and  C_8 
REMARK    5  A    between atoms: N_9  and  C_10 
REMARK    6  A    between atoms: C_21  and  O_14 
ROOT
ATOM      1  C   UNL d   1      52.830  33.245  53.490  0.00  0.00     0.119 A 
ATOM      2  C   UNL d   1      52.465  33.971  53.351  0.00  0.00     0.088 A 
ATOM      3  S   UNL d   1      53.352  33.325  54.107  0.00  0.00    -0.068 SA
ATOM      4  C   UNL d   1      52.768  34.503  53.892  0.00  0.00     0.013 A 
ATOM      5  C   UNL d   1      53.321  34.101  54.363  0.00  0.00     0.031 A 
ATOM      6  C   UNL d   1      52.631  35.306  54.039  0.00  0.00     0.001 A 
ATOM      7  C   UNL d   1      53.730  34.506  54.975  0.00  0.00     0.006 A 
ATOM      8  C   UNL d   1      53.019  35.706  54.626  0.00  0.00     0.000 A 
ATOM      9  C   UNL d   1      53.572  35.304  55.097  0.00  0.00     0.001 A 
ENDROOT
BRANCH   1  10
ATOM     10  N   UNL d   1      52.686  32.551  53.067  0.00  0.00    -0.200 NA
ATOM     11  C   UNL d   1      53.153  31.880  53.173  0.00  0.00     0.297 C 
ATOM     12  O   UNL d   1      53.770  31.928  53.719  0.00  0.00    -0.264 OA
BRANCH  11  13
ATOM     13  C   UNL d   1      52.992  31.196  52.741  0.00  0.00     0.144 C 
BRANCH  13  14
ATOM     14  N   UNL d   1      52.923  30.488  53.164  0.00  0.00    -0.295 N 
ATOM     15  C   UNL d   1      52.175  30.132  53.225  0.00  0.00     0.107 A 
ATOM     16  C   UNL d   1      52.099  29.426  53.646  0.00  0.00     0.142 A 
ATOM     17  O   UNL d   1      52.741  29.077  53.999  0.00  0.00    -0.300 OA
ATOM     18  C   UNL d   1      53.488  29.432  53.938  0.00  0.00     0.142 A 
ATOM     19  C   UNL d   1      53.566  30.124  53.526  0.00  0.00     0.107 A 
ENDBRANCH  13  14
ENDBRANCH  11  13
ENDBRANCH   1  10
BRANCH   2  20
ATOM     20  C   UNL d   1      51.890  34.147  52.770  0.00  0.00     0.302 C 
ATOM     21  O   UNL d   1      52.146  34.397  52.016  0.00  0.00    -0.259 OA
BRANCH  20  22
ATOM     22  O   UNL d   1      51.094  34.073  52.947  0.00  0.00    -0.271 OA
BRANCH  22  23
ATOM     23  C   UNL d   1      50.527  34.242  52.383  0.00  0.00     0.126 C 
ATOM     24  C   UNL d   1      49.749  34.380  52.612  0.00  0.00     0.029 C 
ENDBRANCH  22  23
ENDBRANCH  20  22
ENDBRANCH   2  20
TORSDOF 6
ENDMDL
MODEL 3
REMARK VINA RESULT:      -8.0      1.641      4.039
REMARK  6 active torsions:
REMARK  status: ('A' for Active; 'I' for Inactive)
REMARK    1  A    between atoms: N_6  and  C_1 
REMARK    2  A    between atoms: C_7  and  C_2 
REMARK       I    between atoms: C_8  and  N_6 
REMARK    3  A    between atoms: O_14  and  C_7 
REMARK    4  A    between atoms: C_10  and  C_8 
REMARK    5  A    between atoms: N_9  and  C_10 
REMARK    6  A    between atoms: C_21  and  O_14 
ROOT
ATOM      1  C   UNL d   1      53.091  32.624  53.385  0.00  0.00     0.119 A 
ATOM      2  C   UNL d   1      53.180  33.263  53.899  0.00  0.00     0.088 A 
ATOM      3  S   UNL d   1      52.517  32.803  52.839  0.00  0.00    -0.068 SA
ATOM      4  C   UNL d   1      52.652  33.841  53.663  0.00  0.00     0.013 A 
ATOM      5  C   UNL d   1      52.239  33.554  53.003  0.00  0.00     0.031 A 
ATOM      6  C   UNL d   1      52.473  34.598  53.945  0.00  0.00     0.001 A 
ATOM      7  C   UNL d   1      51.652  34.027  52.632  0.00  0.00     0.006 A 
ATOM      8  C   UNL d   1      51.910  35.062  53.596  0.00  0.00     0.000 A 
ATOM      9  C   UNL d   1      51.497  34.776  52.936  0.00  0.00     0.001 A 
ENDROOT
BRANCH   1  10
ATOM     10  N   UNL d   1      53.519  31.920  53.424  0.00  0.00    -0.200 NA
ATOM     11  C   UNL d   1      53.272  31.247  53.017  0.00  0.00     0.297 C 
ATOM     12  O   UNL d   1      52.581  31.304  52.570  0.00  0.00    -0.264 OA
BRANCH  11  13
ATOM     13  C   UNL d   1      53.713  30.551  53.068  0.00  0.00     0.144 C 
BRANCH  13  14
ATOM     14  N   UNL d   1      53.399  29.936  53.523  0.00  0.00    -0.295 N 
ATOM     15  C   UNL d   1      53.797  29.708  54.215  0.00  0.00     0.107 A 
ATOM     16  C   UNL d   1      53.488  29.095  54.673  0.00  0.00     0.142 A 
ATOM     17  O   UNL d   1      52.805  28.713  54.458  0.00  0.00    -0.300 OA
ATOM     18  C   UNL d   1      52.407  28.941  53.767  0.00  0.00     0.142 A 
ATOM     19  C   UNL d   1      52.707  29.542  53.315  0.00  0.00     0.107 A 
ENDBRANCH  13  14
ENDBRANCH  11  13
ENDBRANCH   1  10
BRANCH   2  20
ATOM     20  C   UNL d   1      53.706  33.325  54.546  0.00  0.00     0.302 C 
ATOM     21  O   UNL d   1      53.441  33.092  55.302  0.00  0.00    -0.259 OA
BRANCH  20  22
ATOM     22  O   UNL d   1      54.464  33.611  54.430  0.00  0.00    -0.271 OA
BRANCH  22  23
ATOM     23  C   UNL d   1      54.990  33.655  55.054  0.00  0.00     0.126 C 
ATOM     24  C   UNL d   1      55.727  34.003  54.946  0.00  0.00     0.029 C 
ENDBRANCH  22  23
ENDBRANCH  20  22
ENDBRANCH   2  20
TORSDOF 6
ENDMDL
MODEL 4
REMARK VINA RESULT:      -7.5      1.121      2.469
REMARK  6 active torsions:
REMARK  status: ('A' for Active; 'I' for Inactive)
REMARK    1  A    between atoms: N_6  and  C_1 
REMARK    2  A    between atoms: C_7  and  C_2 
REMARK       I    between atoms: C_8  and  N_6 
REMARK    3  A    between atoms: O_14  and  C_7 
REMARK    4  A    between atoms: C_10  and  C_8 
REMARK    5  A    between atoms: N_9  and  C_10 
REMARK    6  A    between atoms: C_21  and  O_14 
ROOT
ATOM      1  C   UNL d   1      52.432  33.320  53.547  0.00  0.00     0.119 A 
ATOM      2  C   UNL d   1      53.055  32.780  53.577  0.00  0.00     0.088 A 
ATOM      3  S   UNL d   1      52.602  33.946  54.036  0.00  0.00    -0.068 SA
ATOM      4  C   UNL d   1      53.613  33.081  54.092  0.00  0.00     0.013 A 
ATOM      5  C   UNL d   1      53.331  33.807  54.378  0.00  0.00     0.031 A 
ATOM      6  C   UNL d   1      54.349  32.810  54.355  0.00  0.00     0.001 A 
ATOM      7  C   UNL d   1      53.788  34.253  54.924  0.00  0.00     0.006 A 
ATOM      8  C   UNL d   1      54.798  33.231  54.881  0.00  0.00     0.000 A 
ATOM      9  C   UNL d   1      54.516  33.957  55.167  0.00  0.00     0.001 A 
ENDROOT
BRANCH   1  10
ATOM     10  N   UNL d   1      51.749  33.234  53.092  0.00  0.00    -0.200 NA
ATOM     11  C   UNL d   1      51.307  33.889  52.856  0.00  0.00     0.297 C 
ATOM     12  O   UNL d   1      51.574  34.633  53.091  0.00  0.00    -0.264 OA
BRANCH  11  13
ATOM     13  C   UNL d   1      50.627  33.782  52.401  0.00  0.00     0.144 C 
BRANCH  13  14
ATOM     14  N   UNL d   1      50.017  34.333  52.496  0.00  0.00    -0.295 N 
ATOM     15  C   UNL d   1      49.573  34.555  51.831  0.00  0.00     0.107 A 
ATOM     16  C   UNL d   1      48.964  35.104  51.920  0.00  0.00     0.142 A 
ATOM     17  O   UNL d   1      48.793  35.429  52.644  0.00  0.00    -0.300 OA
ATOM     18  C   UNL d   1      49.237  35.207  53.309  0.00  0.00     0.142 A 
ATOM     19  C   UNL d   1      49.835  34.669  53.226  0.00  0.00     0.107 A 
ENDBRANCH  13  14
ENDBRANCH  11  13
ENDBRANCH   1  10
BRANCH   2  20
ATOM     20  C   UNL d   1      53.119  32.056  53.164  0.00  0.00     0.302 C 
ATOM     21  O   UNL d   1      53.458  32.059  52.401  0.00  0.00    -0.259 OA
BRANCH  20  22
ATOM     22  O   UNL d   1      52.853  31.363  53.509  0.00  0.00    -0.271 OA
BRANCH  22  23
ATOM     23  C   UNL d   1      52.902  30.654  53.106  0.00  0.00     0.126 C 
ATOM     24  C   UNL d   1      52.698  29.952  53.483  0.00  0.00     0.029 C 
ENDBRANCH  22  23
ENDBRANCH  20  22
ENDBRANCH   2  20
TORSDOF 6
ENDMDL
MODEL 5
REMARK VINA RESULT:      -6.8      1.494      3.034
REMARK  6 active torsions:
REMARK  status: ('A' for Active; 'I' for Inactive)
REMARK    1  A    between atoms: N_6  and  C_1 
REMARK    2  A    between atoms: C_7  and  C_2 
REMARK       I    between atoms: C_8  and  N_6 
REMARK    3  A    between atoms: O_14  and  C_7 
REMARK    4  A    between atoms: C_10  and  C_8 
REMARK    5  A    between atoms: N_9  and  C_10 
REMARK    6  A    between atoms: C_21  and  O_14 
ROOT
ATOM      1  C   UNL d   1      53.625  32.036  53.583  0.00  0.00     0.119 A 
ATOM      2  C   UNL d   1      52.924  31.787  53.226  0.00  0.00     0.088 A 
ATOM      3  S   UNL d   1      54.003  31.392  53.900  0.00  0.00    -0.068 SA
ATOM      4  C   UNL d   1      52.874  30.977  53.328  0.00  0.00     0.013 A 
ATOM      5  C   UNL d   1      53.546  30.731  53.748  0.00  0.00     0.031 A 
ATOM      6  C   UNL d   1      52.316  30.409  53.104  0.00  0.00     0.001 A 
ATOM      7  C   UNL d   1      53.652  29.920  53.939  0.00  0.00     0.006 A 
ATOM      8  C   UNL d   1      52.407  29.625  53.282  0.00  0.00     0.000 A 
ATOM      9  C   UNL d   1      53.080  29.379  53.702  0.00  0.00     0.001 A 
ENDROOT
BRANCH   1  10
ATOM     10  N   UNL d   1      53.894  32.815  53.609  0.00  0.00    -0.200 NA
ATOM     11  C   UNL d   1      54.222  33.131  54.297  0.00  0.00     0.297 C 
ATOM     12  O   UNL d   1      54.272  32.639  54.956  0.00  0.00    -0.264 OA
BRANCH  11  13
ATOM     13  C   UNL d   1      54.486  33.913  54.303  0.00  0.00     0.144 C 
BRANCH  13  14
ATOM     14  N   UNL d   1      53.956  34.489  54.573  0.00  0.00    -0.295 N 
ATOM     15  C   UNL d   1      53.735  35.100  54.057  0.00  0.00     0.107 A 
ATOM     16  C   UNL d   1      53.207  35.677  54.320  0.00  0.00     0.142 A 
ATOM     17  O   UNL d   1      52.901  35.656  55.071  0.00  0.00    -0.300 OA
ATOM     18  C   UNL d   1      53.121  35.044  55.587  0.00  0.00     0.142 A 
ATOM     19  C   UNL d   1      53.639  34.477  55.333  0.00  0.00     0.107 A 
ENDBRANCH  13  14
ENDBRANCH  11  13
ENDBRANCH   1  10
BRANCH   2  20
ATOM     20  C   UNL d   1      52.359  32.260  52.831  0.00  0.00     0.302 C 
ATOM     21  O   UNL d   1      52.501  32.473  52.037  0.00  0.00    -0.259 OA
BRANCH  20  22
ATOM     22  O   UNL d   1      51.684  32.504  53.223  0.00  0.00    -0.271 OA
BRANCH  22  23
ATOM     23  C   UNL d   1      51.139  32.985  52.850  0.00  0.00     0.126 C 
ATOM     24  C   UNL d   1      50.573  33.386  53.292  0.00  0.00     0.029 C 
ENDBRANCH  22  23
ENDBRANCH  20  22
ENDBRANCH   2  20
TORSDOF 6
ENDMDL
