MODEL 1
REMARK VINA RESULT:      -3.8      0.000      0.000
REMARK  6 active torsions:
REMARK  status: ('A' for Active; 'I' for Inactive)
REMARK    1  A    between atoms: C_5  and  C_1 
REMARK    2  A    between atoms: O_8  and  C_5 
REMARK    3  A    between atoms: C_9  and  O_8 
REMARK    4  A    between atoms: C_14  and  C_10 
REMARK    5  A    between atoms: O_20  and  C_11 
REMARK    6  A    between atoms: O_21  and  C_16 
ROOT
ATOM      1  C   UNL d   1      57.412  -0.256  30.895  0.00  0.00     0.305 C 
ATOM      2  O   UNL d   1      56.867   0.311  30.638  0.00  0.00    -0.259 OA
ENDROOT
BRANCH   1   3
ATOM      3  C   UNL d   1      58.131  -0.352  30.489  0.00  0.00     0.127 A 
ATOM      4  C   UNL d   1      58.241  -1.026  30.008  0.00  0.00     0.305 A 
ATOM      5  O   UNL d   1      58.952  -1.125  29.603  0.00  0.00    -0.271 OA
ATOM      6  O   UNL d   1      57.643  -1.585  29.940  0.00  0.00    -0.259 OA
ATOM      7  C   UNL d   1      59.549  -0.559  29.676  0.00  0.00     0.125 A 
ATOM      8  C   UNL d   1      59.440   0.108  30.152  0.00  0.00     0.025 A 
ATOM      9  C   UNL d   1      60.261  -0.658  29.271  0.00  0.00     0.117 A 
ATOM     10  C   UNL d   1      58.720   0.211  30.563  0.00  0.00     0.013 A 
ATOM     11  C   UNL d   1      60.037   0.670  30.222  0.00  0.00     0.002 A 
ATOM     12  C   UNL d   1      60.742   0.568  29.819  0.00  0.00     0.002 A 
ATOM     13  C   UNL d   1      60.857  -0.096  29.341  0.00  0.00     0.026 A 
BRANCH   9  14
ATOM     14  O   UNL d   1      60.372  -1.318  28.799  0.00  0.00    -0.326 OA
ATOM     15  C   UNL d   1      61.115  -1.682  28.758  0.00  0.00     0.181 C 
ENDBRANCH   9  14
ENDBRANCH   1   3
BRANCH   1  16
ATOM     16  O   UNL d   1      57.241  -0.724  31.553  0.00  0.00    -0.271 OA
BRANCH  16  17
ATOM     17  C   UNL d   1      56.772  -0.423  32.161  0.00  0.00     0.126 A 
ATOM     18  C   UNL d   1      56.272  -0.927  32.582  0.00  0.00     0.117 A 
ATOM     19  C   UNL d   1      55.802  -0.635  33.188  0.00  0.00     0.029 A 
ATOM     20  C   UNL d   1      55.832   0.178  33.377  0.00  0.00     0.041 A 
ATOM     21  C   UNL d   1      56.331   0.682  32.956  0.00  0.00     0.005 A 
ATOM     22  C   UNL d   1      56.801   0.382  32.348  0.00  0.00     0.027 A 
BRANCH  18  23
ATOM     23  O   UNL d   1      56.248  -1.731  32.389  0.00  0.00    -0.326 OA
ATOM     24  C   UNL d   1      55.621  -2.203  32.651  0.00  0.00     0.181 C 
ENDBRANCH  18  23
BRANCH  20  25
ATOM     25  C   UNL d   1      55.354   0.477  33.993  0.00  0.00     0.196 C 
ATOM     26  O   UNL d   1      54.553   0.628  33.853  0.00  0.00    -0.287 OA
ATOM     27  C   UNL d   1      55.685   0.620  34.740  0.00  0.00     0.045 C 
ENDBRANCH  20  25
ENDBRANCH  16  17
ENDBRANCH   1  16
TORSDOF 6
ENDMDL
MODEL 2
REMARK VINA RESULT:      -3.5      1.153      1.625
REMARK  6 active torsions:
REMARK  status: ('A' for Active; 'I' for Inactive)
REMARK    1  A    between atoms: C_5  and  C_1 
REMARK    2  A    between atoms: O_8  and  C_5 
REMARK    3  A    between atoms: C_9  and  O_8 
REMARK    4  A    between atoms: C_14  and  C_10 
REMARK    5  A    between atoms: O_20  and  C_11 
REMARK    6  A    between atoms: O_21  and  C_16 
ROOT
ATOM      1  C   UNL d   1      56.985  -0.705  31.589  0.00  0.00     0.305 C 
ATOM      2  O   UNL d   1      56.279  -1.135  31.585  0.00  0.00    -0.259 OA
ENDROOT
BRANCH   1   3
ATOM      3  C   UNL d   1      57.474  -0.709  30.916  0.00  0.00     0.127 A 
ATOM      4  C   UNL d   1      57.837  -1.424  30.680  0.00  0.00     0.305 A 
ATOM      5  O   UNL d   1      58.323  -1.432  30.014  0.00  0.00    -0.271 OA
ATOM      6  O   UNL d   1      57.710  -2.112  31.110  0.00  0.00    -0.259 OA
ATOM      7  C   UNL d   1      58.447  -0.737  29.587  0.00  0.00     0.125 A 
ATOM      8  C   UNL d   1      58.088  -0.029  29.820  0.00  0.00     0.025 A 
ATOM      9  C   UNL d   1      58.933  -0.745  28.920  0.00  0.00     0.117 A 
ATOM     10  C   UNL d   1      57.595  -0.019  30.495  0.00  0.00     0.013 A 
ATOM     11  C   UNL d   1      58.213   0.662  29.392  0.00  0.00     0.002 A 
ATOM     12  C   UNL d   1      58.696   0.649  28.731  0.00  0.00     0.002 A 
ATOM     13  C   UNL d   1      59.059  -0.053  28.492  0.00  0.00     0.026 A 
BRANCH   9  14
ATOM     14  O   UNL d   1      59.290  -1.443  28.686  0.00  0.00    -0.326 OA
ATOM     15  C   UNL d   1      60.098  -1.457  28.499  0.00  0.00     0.181 C 
ENDBRANCH   9  14
ENDBRANCH   1   3
BRANCH   1  16
ATOM     16  O   UNL d   1      57.203  -0.274  32.257  0.00  0.00    -0.271 OA
BRANCH  16  17
ATOM     17  C   UNL d   1      56.634  -0.072  32.819  0.00  0.00     0.126 A 
ATOM     18  C   UNL d   1      56.839   0.408  33.458  0.00  0.00     0.117 A 
ATOM     19  C   UNL d   1      56.278   0.613  34.021  0.00  0.00     0.029 A 
ATOM     20  C   UNL d   1      55.495   0.332  33.943  0.00  0.00     0.041 A 
ATOM     21  C   UNL d   1      55.290  -0.147  33.304  0.00  0.00     0.005 A 
ATOM     22  C   UNL d   1      55.859  -0.350  32.742  0.00  0.00     0.027 A 
BRANCH  18  23
ATOM     23  O   UNL d   1      57.616   0.682  33.528  0.00  0.00    -0.326 OA
ATOM     24  C   UNL d   1      58.029   0.583  34.238  0.00  0.00     0.181 C 
ENDBRANCH  18  23
BRANCH  20  25
ATOM     25  C   UNL d   1      54.923   0.540  34.515  0.00  0.00     0.196 C 
ATOM     26  O   UNL d   1      55.158   0.682  35.295  0.00  0.00    -0.287 OA
ATOM     27  C   UNL d   1      54.125   0.603  34.298  0.00  0.00     0.045 C 
ENDBRANCH  20  25
ENDBRANCH  16  17
ENDBRANCH   1  16
TORSDOF 6
ENDMDL
