MODEL 1
REMARK VINA RESULT:      -4.8      0.000      0.000
REMARK  6 active torsions:
REMARK  status: ('A' for Active; 'I' for Inactive)
REMARK    1  A    between atoms: C_7  and  N_1 
REMARK    2  A    between atoms: C_6  and  C_3 
REMARK       I    between atoms: N_9  and  C_6 
REMARK    3  A    between atoms: C_19  and  N_9 
REMARK    4  A    between atoms: C_10  and  C_19 
REMARK    5  A    between atoms: O_23  and  C_20 
REMARK    6  A    between atoms: C_24  and  O_23 
ROOT
ATOM      1  N   UNL d   1     -39.296  15.206  19.201  0.00  0.00    -0.276 N 
ATOM      2  C   UNL d   1     -39.539  15.221  19.977  0.00  0.00     0.181 A 
ATOM      3  C   UNL d   1     -38.859  15.202  20.439  0.00  0.00     0.126 A 
ATOM      4  C   UNL d   1     -38.446  15.177  19.178  0.00  0.00     0.152 A 
ATOM      5  S   UNL d   1     -38.185  15.175  19.962  0.00  0.00    -0.051 SA
ATOM      6  S   UNL d   1     -37.963  15.154  18.496  0.00  0.00    -0.052 SA
ATOM      7  N   UNL d   1     -40.313  15.249  20.239  0.00  0.00    -0.128 N 
ENDROOT
BRANCH   1   8
ATOM      8  C   UNL d   1     -39.813  15.217  18.556  0.00  0.00     0.067 A 
ATOM      9  C   UNL d   1     -39.901  15.898  18.124  0.00  0.00     0.020 A 
ATOM     10  C   UNL d   1     -40.410  15.922  17.483  0.00  0.00     0.026 A 
ATOM     11  C   UNL d   1     -40.844  15.253  17.262  0.00  0.00     0.100 A 
ATOM     12  C   UNL d   1     -40.760  14.565  17.692  0.00  0.00     0.026 A 
ATOM     13  C   UNL d   1     -40.240  14.546  18.345  0.00  0.00     0.020 A 
BRANCH  11  14
ATOM     14  O   UNL d   1     -41.369  15.242  16.618  0.00  0.00    -0.305 OA
BRANCH  14  15
ATOM     15  C   UNL d   1     -41.867  15.898  16.483  0.00  0.00     0.123 C 
ATOM     16  C   UNL d   1     -42.429  15.861  15.867  0.00  0.00     0.029 C 
ENDBRANCH  14  15
ENDBRANCH  11  14
ENDBRANCH   1   8
BRANCH   3  17
ATOM     17  C   UNL d   1     -38.812  15.209  21.294  0.00  0.00     0.288 C 
ATOM     18  N   UNL d   1     -38.549  14.551  21.697  0.00  0.00    -0.204 NA
ATOM     19  O   UNL d   1     -39.042  15.908  21.708  0.00  0.00    -0.265 OA
BRANCH  18  20
ATOM     20  C   UNL d   1     -38.516  14.595  22.534  0.00  0.00     0.127 C 
BRANCH  20  21
ATOM     21  C   UNL d   1     -38.543  13.874  22.987  0.00  0.00     0.119 A 
ATOM     22  O   UNL d   1     -39.264  13.588  23.264  0.00  0.00    -0.304 OA
ATOM     23  C   UNL d   1     -39.109  12.900  23.671  0.00  0.00     0.123 A 
ATOM     24  C   UNL d   1     -38.327  12.750  23.657  0.00  0.00     0.029 A 
ATOM     25  C   UNL d   1     -37.946  13.339  23.237  0.00  0.00     0.028 A 
ENDBRANCH  20  21
ENDBRANCH  18  20
ENDBRANCH   3  17
TORSDOF 6
ENDMDL
MODEL 2
REMARK VINA RESULT:      -4.4      8.343      8.823
REMARK  6 active torsions:
REMARK  status: ('A' for Active; 'I' for Inactive)
REMARK    1  A    between atoms: C_7  and  N_1 
REMARK    2  A    between atoms: C_6  and  C_3 
REMARK       I    between atoms: N_9  and  C_6 
REMARK    3  A    between atoms: C_19  and  N_9 
REMARK    4  A    between atoms: C_10  and  C_19 
REMARK    5  A    between atoms: O_23  and  C_20 
REMARK    6  A    between atoms: C_24  and  O_23 
ROOT
ATOM      1  N   UNL d   1     -47.617  13.292  22.529  0.00  0.00    -0.276 N 
ATOM      2  C   UNL d   1     -46.906  13.309  22.923  0.00  0.00     0.181 A 
ATOM      3  C   UNL d   1     -46.372  12.879  22.468  0.00  0.00     0.126 A 
ATOM      4  C   UNL d   1     -47.526  12.841  21.813  0.00  0.00     0.152 A 
ATOM      5  S   UNL d   1     -46.738  12.588  21.788  0.00  0.00    -0.051 SA
ATOM      6  S   UNL d   1     -48.114  12.682  21.242  0.00  0.00    -0.052 SA
ATOM      7  N   UNL d   1     -46.757  13.684  23.634  0.00  0.00    -0.128 N 
ENDROOT
BRANCH   1   8
ATOM      8  C   UNL d   1     -48.304  13.661  22.803  0.00  0.00     0.067 A 
ATOM      9  C   UNL d   1     -48.426  14.448  22.647  0.00  0.00     0.020 A 
ATOM     10  C   UNL d   1     -49.103  14.825  22.913  0.00  0.00     0.026 A 
ATOM     11  C   UNL d   1     -49.675  14.412  23.344  0.00  0.00     0.100 A 
ATOM     12  C   UNL d   1     -49.559  13.621  23.503  0.00  0.00     0.026 A 
ATOM     13  C   UNL d   1     -48.867  13.240  23.230  0.00  0.00     0.020 A 
BRANCH  11  14
ATOM     14  O   UNL d   1     -50.373  14.762  23.628  0.00  0.00    -0.305 OA
BRANCH  14  15
ATOM     15  C   UNL d   1     -50.457  15.592  23.597  0.00  0.00     0.123 C 
ATOM     16  C   UNL d   1     -51.064  15.921  23.126  0.00  0.00     0.029 C 
ENDBRANCH  14  15
ENDBRANCH  11  14
ENDBRANCH   1   8
BRANCH   3  17
ATOM     17  C   UNL d   1     -45.546  12.730  22.639  0.00  0.00     0.288 C 
ATOM     18  N   UNL d   1     -45.292  11.978  22.825  0.00  0.00    -0.204 NA
ATOM     19  O   UNL d   1     -45.002  13.377  22.610  0.00  0.00    -0.265 OA
BRANCH  18  20
ATOM     20  C   UNL d   1     -44.476  11.872  22.986  0.00  0.00     0.127 C 
BRANCH  20  21
ATOM     21  C   UNL d   1     -44.194  11.094  23.191  0.00  0.00     0.119 A 
ATOM     22  O   UNL d   1     -43.427  10.871  22.995  0.00  0.00    -0.304 OA
ATOM     23  C   UNL d   1     -43.324  10.108  23.260  0.00  0.00     0.123 A 
ATOM     24  C   UNL d   1     -43.992   9.852  23.610  0.00  0.00     0.029 A 
ATOM     25  C   UNL d   1     -44.554  10.445  23.582  0.00  0.00     0.028 A 
ENDBRANCH  20  21
ENDBRANCH  18  20
ENDBRANCH   3  17
TORSDOF 6
ENDMDL
MODEL 3
REMARK VINA RESULT:      -4.4      8.746      9.638
REMARK  6 active torsions:
REMARK  status: ('A' for Active; 'I' for Inactive)
REMARK    1  A    between atoms: C_7  and  N_1 
REMARK    2  A    between atoms: C_6  and  C_3 
REMARK       I    between atoms: N_9  and  C_6 
REMARK    3  A    between atoms: C_19  and  N_9 
REMARK    4  A    between atoms: C_10  and  C_19 
REMARK    5  A    between atoms: O_23  and  C_20 
REMARK    6  A    between atoms: C_24  and  O_23 
ROOT
ATOM      1  N   UNL d   1     -46.903  12.498  22.748  0.00  0.00    -0.276 N 
ATOM      2  C   UNL d   1     -47.606  12.825  22.504  0.00  0.00     0.181 A 
ATOM      3  C   UNL d   1     -48.205  12.422  22.898  0.00  0.00     0.126 A 
ATOM      4  C   UNL d   1     -47.066  11.877  23.307  0.00  0.00     0.152 A 
ATOM      5  S   UNL d   1     -47.888  11.841  23.392  0.00  0.00    -0.051 SA
ATOM      6  S   UNL d   1     -46.508  11.394  23.698  0.00  0.00    -0.052 SA
ATOM      7  N   UNL d   1     -47.693  13.437  21.969  0.00  0.00    -0.128 N 
ENDROOT
BRANCH   1   8
ATOM      8  C   UNL d   1     -46.161  12.746  22.481  0.00  0.00     0.067 A 
ATOM      9  C   UNL d   1     -45.746  12.284  21.960  0.00  0.00     0.020 A 
ATOM     10  C   UNL d   1     -45.010  12.519  21.688  0.00  0.00     0.026 A 
ATOM     11  C   UNL d   1     -44.675  13.232  21.939  0.00  0.00     0.100 A 
ATOM     12  C   UNL d   1     -45.087  13.702  22.462  0.00  0.00     0.026 A 
ATOM     13  C   UNL d   1     -45.837  13.458  22.737  0.00  0.00     0.020 A 
BRANCH  11  14
ATOM     14  O   UNL d   1     -43.932  13.502  21.684  0.00  0.00    -0.305 OA
BRANCH  14  15
ATOM     15  C   UNL d   1     -43.356  12.948  21.442  0.00  0.00     0.123 C 
ATOM     16  C   UNL d   1     -42.757  13.191  20.913  0.00  0.00     0.029 C 
ENDBRANCH  14  15
ENDBRANCH  11  14
ENDBRANCH   1   8
BRANCH   3  17
ATOM     17  C   UNL d   1     -49.048  12.555  22.835  0.00  0.00     0.288 C 
ATOM     18  N   UNL d   1     -49.368  13.279  23.030  0.00  0.00    -0.204 NA
ATOM     19  O   UNL d   1     -49.540  11.921  22.568  0.00  0.00    -0.265 OA
BRANCH  18  20
ATOM     20  C   UNL d   1     -50.198  13.370  22.955  0.00  0.00     0.127 C 
BRANCH  20  21
ATOM     21  C   UNL d   1     -50.536  14.149  23.031  0.00  0.00     0.119 A 
ATOM     22  O   UNL d   1     -50.761  14.567  22.359  0.00  0.00    -0.304 OA
ATOM     23  C   UNL d   1     -51.060  15.282  22.610  0.00  0.00     0.123 A 
ATOM     24  C   UNL d   1     -51.029  15.323  23.404  0.00  0.00     0.029 A 
ATOM     25  C   UNL d   1     -50.707  14.630  23.698  0.00  0.00     0.028 A 
ENDBRANCH  20  21
ENDBRANCH  18  20
ENDBRANCH   3  17
TORSDOF 6
ENDMDL
MODEL 4
REMARK VINA RESULT:      -3.5      2.695      3.205
REMARK  6 active torsions:
REMARK  status: ('A' for Active; 'I' for Inactive)
REMARK    1  A    between atoms: C_7  and  N_1 
REMARK    2  A    between atoms: C_6  and  C_3 
REMARK       I    between atoms: N_9  and  C_6 
REMARK    3  A    between atoms: C_19  and  N_9 
REMARK    4  A    between atoms: C_10  and  C_19 
REMARK    5  A    between atoms: O_23  and  C_20 
REMARK    6  A    between atoms: C_24  and  O_23 
ROOT
ATOM      1  N   UNL d   1     -39.277  14.286  19.094  0.00  0.00    -0.276 N 
ATOM      2  C   UNL d   1     -40.057  14.456  19.248  0.00  0.00     0.181 A 
ATOM      3  C   UNL d   1     -40.160  14.385  20.061  0.00  0.00     0.126 A 
ATOM      4  C   UNL d   1     -38.884  14.104  19.827  0.00  0.00     0.152 A 
ATOM      5  S   UNL d   1     -39.451  14.171  20.426  0.00  0.00    -0.051 SA
ATOM      6  S   UNL d   1     -38.081  13.898  19.928  0.00  0.00    -0.052 SA
ATOM      7  N   UNL d   1     -40.625  14.659  18.696  0.00  0.00    -0.128 N 
ENDROOT
BRANCH   1   8
ATOM      8  C   UNL d   1     -38.944  14.294  18.338  0.00  0.00     0.067 A 
ATOM      9  C   UNL d   1     -38.932  13.614  17.897  0.00  0.00     0.020 A 
ATOM     10  C   UNL d   1     -38.604  13.609  17.146  0.00  0.00     0.026 A 
ATOM     11  C   UNL d   1     -38.280  14.298  16.823  0.00  0.00     0.100 A 
ATOM     12  C   UNL d   1     -38.289  14.985  17.261  0.00  0.00     0.026 A 
ATOM     13  C   UNL d   1     -38.624  14.985  18.026  0.00  0.00     0.020 A 
BRANCH  11  14
ATOM     14  O   UNL d   1     -37.940  14.330  16.065  0.00  0.00    -0.305 OA
BRANCH  14  15
ATOM     15  C   UNL d   1     -38.263  13.865  15.451  0.00  0.00     0.123 C 
ATOM     16  C   UNL d   1     -38.043  14.026  14.662  0.00  0.00     0.029 C 
ENDBRANCH  14  15
ENDBRANCH  11  14
ENDBRANCH   1   8
BRANCH   3  17
ATOM     17  C   UNL d   1     -40.882  14.507  20.506  0.00  0.00     0.288 C 
ATOM     18  N   UNL d   1     -41.358  13.875  20.702  0.00  0.00    -0.204 NA
ATOM     19  O   UNL d   1     -41.088  15.294  20.737  0.00  0.00    -0.265 OA
BRANCH  18  20
ATOM     20  C   UNL d   1     -42.056  14.035  21.138  0.00  0.00     0.127 C 
BRANCH  20  21
ATOM     21  C   UNL d   1     -42.590  13.393  21.311  0.00  0.00     0.119 A 
ATOM     22  O   UNL d   1     -42.386  12.828  21.873  0.00  0.00    -0.304 OA
ATOM     23  C   UNL d   1     -43.001  12.296  21.912  0.00  0.00     0.123 A 
ATOM     24  C   UNL d   1     -43.573  12.507  21.401  0.00  0.00     0.029 A 
ATOM     25  C   UNL d   1     -43.346  13.189  21.009  0.00  0.00     0.028 A 
ENDBRANCH  20  21
ENDBRANCH  18  20
ENDBRANCH   3  17
TORSDOF 6
ENDMDL
MODEL 5
REMARK VINA RESULT:      -3.0      2.717      4.832
REMARK  6 active torsions:
REMARK  status: ('A' for Active; 'I' for Inactive)
REMARK    1  A    between atoms: C_7  and  N_1 
REMARK    2  A    between atoms: C_6  and  C_3 
REMARK       I    between atoms: N_9  and  C_6 
REMARK    3  A    between atoms: C_19  and  N_9 
REMARK    4  A    between atoms: C_10  and  C_19 
REMARK    5  A    between atoms: O_23  and  C_20 
REMARK    6  A    between atoms: C_24  and  O_23 
ROOT
ATOM      1  N   UNL d   1     -39.829  14.452  19.677  0.00  0.00    -0.276 N 
ATOM      2  C   UNL d   1     -39.784  14.735  18.916  0.00  0.00     0.181 A 
ATOM      3  C   UNL d   1     -38.984  14.818  18.740  0.00  0.00     0.126 A 
ATOM      4  C   UNL d   1     -39.040  14.355  19.983  0.00  0.00     0.152 A 
ATOM      5  S   UNL d   1     -38.520  14.588  19.384  0.00  0.00    -0.051 SA
ATOM      6  S   UNL d   1     -38.827  14.078  20.742  0.00  0.00    -0.052 SA
ATOM      7  N   UNL d   1     -40.416  14.904  18.426  0.00  0.00    -0.128 N 
ENDROOT
BRANCH   1   8
ATOM      8  C   UNL d   1     -40.539  14.292  20.068  0.00  0.00     0.067 A 
ATOM      9  C   UNL d   1     -40.959  13.624  19.880  0.00  0.00     0.020 A 
ATOM     10  C   UNL d   1     -41.664  13.454  20.261  0.00  0.00     0.026 A 
ATOM     11  C   UNL d   1     -41.962  13.960  20.844  0.00  0.00     0.100 A 
ATOM     12  C   UNL d   1     -41.545  14.633  21.037  0.00  0.00     0.026 A 
ATOM     13  C   UNL d   1     -40.826  14.802  20.647  0.00  0.00     0.020 A 
BRANCH  11  14
ATOM     14  O   UNL d   1     -42.674  13.819  21.250  0.00  0.00    -0.305 OA
BRANCH  14  15
ATOM     15  C   UNL d   1     -42.960  13.038  21.315  0.00  0.00     0.123 C 
ATOM     16  C   UNL d   1     -43.751  12.915  21.555  0.00  0.00     0.029 C 
ENDBRANCH  14  15
ENDBRANCH  11  14
ENDBRANCH   1   8
BRANCH   3  17
ATOM     17  C   UNL d   1     -38.640  15.097  18.008  0.00  0.00     0.288 C 
ATOM     18  N   UNL d   1     -38.475  14.574  17.404  0.00  0.00    -0.204 NA
ATOM     19  O   UNL d   1     -38.476  15.922  17.924  0.00  0.00    -0.265 OA
BRANCH  18  20
ATOM     20  C   UNL d   1     -38.138  14.885  16.702  0.00  0.00     0.127 C 
BRANCH  20  21
ATOM     21  C   UNL d   1     -38.068  14.380  16.019  0.00  0.00     0.119 A 
ATOM     22  O   UNL d   1     -38.093  14.705  15.263  0.00  0.00    -0.304 OA
ATOM     23  C   UNL d   1     -38.012  14.090  14.735  0.00  0.00     0.123 A 
ATOM     24  C   UNL d   1     -37.940  13.403  15.131  0.00  0.00     0.029 A 
ATOM     25  C   UNL d   1     -37.970  13.551  15.935  0.00  0.00     0.028 A 
ENDBRANCH  20  21
ENDBRANCH  18  20
ENDBRANCH   3  17
TORSDOF 6
ENDMDL
MODEL 6
REMARK VINA RESULT:      -2.5      7.374      7.957
REMARK  6 active torsions:
REMARK  status: ('A' for Active; 'I' for Inactive)
REMARK    1  A    between atoms: C_7  and  N_1 
REMARK    2  A    between atoms: C_6  and  C_3 
REMARK       I    between atoms: N_9  and  C_6 
REMARK    3  A    between atoms: C_19  and  N_9 
REMARK    4  A    between atoms: C_10  and  C_19 
REMARK    5  A    between atoms: O_23  and  C_20 
REMARK    6  A    between atoms: C_24  and  O_23 
ROOT
ATOM      1  N   UNL d   1     -46.602  12.840  22.868  0.00  0.00    -0.276 N 
ATOM      2  C   UNL d   1     -45.855  12.912  22.556  0.00  0.00     0.181 A 
ATOM      3  C   UNL d   1     -45.440  12.235  22.775  0.00  0.00     0.126 A 
ATOM      4  C   UNL d   1     -46.656  12.103  23.291  0.00  0.00     0.152 A 
ATOM      5  S   UNL d   1     -45.919  11.734  23.224  0.00  0.00    -0.051 SA
ATOM      6  S   UNL d   1     -47.323  11.806  23.697  0.00  0.00    -0.052 SA
ATOM      7  N   UNL d   1     -45.576  13.538  22.112  0.00  0.00    -0.128 N 
ENDROOT
BRANCH   1   8
ATOM      8  C   UNL d   1     -47.197  13.407  22.775  0.00  0.00     0.067 A 
ATOM      9  C   UNL d   1     -47.934  13.178  22.528  0.00  0.00     0.020 A 
ATOM     10  C   UNL d   1     -48.532  13.730  22.432  0.00  0.00     0.026 A 
ATOM     11  C   UNL d   1     -48.396  14.531  22.585  0.00  0.00     0.100 A 
ATOM     12  C   UNL d   1     -47.656  14.768  22.834  0.00  0.00     0.026 A 
ATOM     13  C   UNL d   1     -47.050  14.202  22.931  0.00  0.00     0.020 A 
BRANCH  11  14
ATOM     14  O   UNL d   1     -48.978  15.118  22.498  0.00  0.00    -0.305 OA
BRANCH  14  15
ATOM     15  C   UNL d   1     -49.729  15.004  22.845  0.00  0.00     0.123 C 
ATOM     16  C   UNL d   1     -50.392  15.386  22.510  0.00  0.00     0.029 C 
ENDBRANCH  14  15
ENDBRANCH  11  14
ENDBRANCH   1   8
BRANCH   3  17
ATOM     17  C   UNL d   1     -44.629  12.040  22.586  0.00  0.00     0.288 C 
ATOM     18  N   UNL d   1     -44.219  12.471  22.028  0.00  0.00    -0.204 NA
ATOM     19  O   UNL d   1     -44.262  11.393  22.988  0.00  0.00    -0.265 OA
BRANCH  18  20
ATOM     20  C   UNL d   1     -43.427  12.250  21.870  0.00  0.00     0.127 C 
BRANCH  20  21
ATOM     21  C   UNL d   1     -42.930  12.781  21.425  0.00  0.00     0.119 A 
ATOM     22  O   UNL d   1     -42.811  12.656  20.621  0.00  0.00    -0.304 OA
ATOM     23  C   UNL d   1     -42.318  13.249  20.357  0.00  0.00     0.123 A 
ATOM     24  C   UNL d   1     -42.129  13.731  20.961  0.00  0.00     0.029 A 
ATOM     25  C   UNL d   1     -42.496  13.466  21.643  0.00  0.00     0.028 A 
ENDBRANCH  20  21
ENDBRANCH  18  20
ENDBRANCH   3  17
TORSDOF 6
ENDMDL
MODEL 7
REMARK VINA RESULT:      -2.5      7.939      8.805
REMARK  6 active torsions:
REMARK  status: ('A' for Active; 'I' for Inactive)
REMARK    1  A    between atoms: C_7  and  N_1 
REMARK    2  A    between atoms: C_6  and  C_3 
REMARK       I    between atoms: N_9  and  C_6 
REMARK    3  A    between atoms: C_19  and  N_9 
REMARK    4  A    between atoms: C_10  and  C_19 
REMARK    5  A    between atoms: O_23  and  C_20 
REMARK    6  A    between atoms: C_24  and  O_23 
ROOT
ATOM      1  N   UNL d   1     -45.724  12.537  22.787  0.00  0.00    -0.276 N 
ATOM      2  C   UNL d   1     -46.339  13.054  22.661  0.00  0.00     0.181 A 
ATOM      3  C   UNL d   1     -46.942  12.836  23.176  0.00  0.00     0.126 A 
ATOM      4  C   UNL d   1     -45.948  11.984  23.394  0.00  0.00     0.152 A 
ATOM      5  S   UNL d   1     -46.716  12.184  23.629  0.00  0.00    -0.051 SA
ATOM      6  S   UNL d   1     -45.486  11.358  23.698  0.00  0.00    -0.052 SA
ATOM      7  N   UNL d   1     -46.348  13.670  22.124  0.00  0.00    -0.128 N 
ENDROOT
BRANCH   1   8
ATOM      8  C   UNL d   1     -45.006  12.565  22.378  0.00  0.00     0.067 A 
ATOM      9  C   UNL d   1     -44.921  13.074  21.752  0.00  0.00     0.020 A 
ATOM     10  C   UNL d   1     -44.215  13.111  21.339  0.00  0.00     0.026 A 
ATOM     11  C   UNL d   1     -43.575  12.631  21.550  0.00  0.00     0.100 A 
ATOM     12  C   UNL d   1     -43.655  12.118  22.178  0.00  0.00     0.026 A 
ATOM     13  C   UNL d   1     -44.377  12.083  22.597  0.00  0.00     0.020 A 
BRANCH  11  14
ATOM     14  O   UNL d   1     -42.845  12.643  21.154  0.00  0.00    -0.305 OA
BRANCH  14  15
ATOM     15  C   UNL d   1     -42.362  13.322  21.204  0.00  0.00     0.123 C 
ATOM     16  C   UNL d   1     -41.709  13.394  20.689  0.00  0.00     0.029 C 
ENDBRANCH  14  15
ENDBRANCH  11  14
ENDBRANCH   1   8
BRANCH   3  17
ATOM     17  C   UNL d   1     -47.710  13.205  23.262  0.00  0.00     0.288 C 
ATOM     18  N   UNL d   1     -48.383  12.824  23.005  0.00  0.00    -0.204 NA
ATOM     19  O   UNL d   1     -47.755  13.970  23.619  0.00  0.00    -0.265 OA
BRANCH  18  20
ATOM     20  C   UNL d   1     -49.116  13.217  23.106  0.00  0.00     0.127 C 
BRANCH  20  21
ATOM     21  C   UNL d   1     -49.833  12.823  22.867  0.00  0.00     0.119 A 
ATOM     22  O   UNL d   1     -50.353  12.535  23.436  0.00  0.00    -0.304 OA
ATOM     23  C   UNL d   1     -50.976  12.192  23.040  0.00  0.00     0.123 A 
ATOM     24  C   UNL d   1     -50.863  12.256  22.255  0.00  0.00     0.029 A 
ATOM     25  C   UNL d   1     -50.157  12.645  22.114  0.00  0.00     0.028 A 
ENDBRANCH  20  21
ENDBRANCH  18  20
ENDBRANCH   3  17
TORSDOF 6
ENDMDL
