MODEL 1
REMARK VINA RESULT:      43.3      0.000      0.000
REMARK  1 active torsions:
REMARK  status: ('A' for Active; 'I' for Inactive)
REMARK    1  A    between atoms: N_13  and  C_2 
ROOT
ATOM      1  C   UNL d   1      14.275  13.323  -1.991  0.00  0.00     0.024 A 
ATOM      2  C   UNL d   1      14.479  12.879  -1.325  0.00  0.00     0.138 A 
ATOM      3  C   UNL d   1      14.855  13.243  -0.685  0.00  0.00     0.282 A 
ATOM      4  C   UNL d   1      14.446  14.128  -2.017  0.00  0.00     0.021 A 
ATOM      5  N   UNL d   1      15.022  14.049  -0.719  0.00  0.00    -0.271 N 
ATOM      6  C   UNL d   1      14.820  14.496  -1.383  0.00  0.00     0.067 A 
ATOM      7  C   UNL d   1      13.903  12.960  -2.626  0.00  0.00     0.005 A 
ATOM      8  C   UNL d   1      14.238  14.569  -2.692  0.00  0.00     0.040 A 
ATOM      9  C   UNL d   1      13.862  14.202  -3.330  0.00  0.00     0.196 A 
ATOM     10  C   UNL d   1      13.696  13.397  -3.295  0.00  0.00     0.039 A 
ATOM     11  O   UNL d   1      15.062  12.807  -0.016  0.00  0.00    -0.265 OA
ATOM     12  O   UNL d   1      13.656  14.639  -3.999  0.00  0.00    -0.287 OA
ATOM     13  C   UNL d   1      15.399  14.411  -0.075  0.00  0.00     0.102 C 
ATOM     14  C   UNL d   1      14.990  15.295  -1.407  0.00  0.00     0.018 A 
ATOM     15  C   UNL d   1      14.409  15.376  -2.717  0.00  0.00     0.003 A 
ATOM     16  C   UNL d   1      13.734  12.151  -2.594  0.00  0.00     0.000 A 
ATOM     17  C   UNL d   1      13.320  13.024  -3.932  0.00  0.00     0.003 A 
ATOM     18  C   UNL d   1      14.785  15.748  -2.081  0.00  0.00     0.002 A 
ATOM     19  C   UNL d   1      13.360  11.782  -3.228  0.00  0.00     0.000 A 
ATOM     20  C   UNL d   1      13.153  12.218  -3.897  0.00  0.00     0.000 A 
ENDROOT
BRANCH   2  21
ATOM     21  N   UNL d   1      14.311  12.076  -1.295  0.00  0.00    -0.238 NA
ATOM     22  C   UNL d   1      13.817  11.779  -0.704  0.00  0.00     0.120 C 
ENDBRANCH   2  21
TORSDOF 1
ENDMDL
MODEL 2
REMARK VINA RESULT:      44.7      1.093      2.371
REMARK  1 active torsions:
REMARK  status: ('A' for Active; 'I' for Inactive)
REMARK    1  A    between atoms: N_13  and  C_2 
ROOT
ATOM      1  C   UNL d   1      14.264  13.864  -2.228  0.00  0.00     0.024 A 
ATOM      2  C   UNL d   1      14.596  14.563  -1.937  0.00  0.00     0.138 A 
ATOM      3  C   UNL d   1      14.965  14.568  -1.197  0.00  0.00     0.282 A 
ATOM      4  C   UNL d   1      14.300  13.175  -1.780  0.00  0.00     0.021 A 
ATOM      5  N   UNL d   1      14.996  13.873  -0.756  0.00  0.00    -0.271 N 
ATOM      6  C   UNL d   1      14.665  13.174  -1.043  0.00  0.00     0.067 A 
ATOM      7  C   UNL d   1      13.898  13.861  -2.963  0.00  0.00     0.005 A 
ATOM      8  C   UNL d   1      13.962  12.475  -2.080  0.00  0.00     0.040 A 
ATOM      9  C   UNL d   1      13.594  12.472  -2.820  0.00  0.00     0.196 A 
ATOM     10  C   UNL d   1      13.563  13.167  -3.260  0.00  0.00     0.039 A 
ATOM     11  O   UNL d   1      15.299  15.261  -0.901  0.00  0.00    -0.265 OA
ATOM     12  O   UNL d   1      13.260  11.779  -3.116  0.00  0.00    -0.287 OA
ATOM     13  C   UNL d   1      15.367  13.883  -0.014  0.00  0.00     0.102 C 
ATOM     14  C   UNL d   1      14.702  12.490  -0.597  0.00  0.00     0.018 A 
ATOM     15  C   UNL d   1      13.999  11.784  -1.630  0.00  0.00     0.003 A 
ATOM     16  C   UNL d   1      13.865  14.557  -3.408  0.00  0.00     0.000 A 
ATOM     17  C   UNL d   1      13.196  13.170  -4.001  0.00  0.00     0.003 A 
ATOM     18  C   UNL d   1      14.366  11.780  -0.889  0.00  0.00     0.002 A 
ATOM     19  C   UNL d   1      13.499  14.559  -4.146  0.00  0.00     0.000 A 
ATOM     20  C   UNL d   1      13.165  13.865  -4.442  0.00  0.00     0.000 A 
ENDROOT
BRANCH   2  21
ATOM     21  N   UNL d   1      14.563  15.254  -2.380  0.00  0.00    -0.238 NA
ATOM     22  C   UNL d   1      14.650  15.986  -2.011  0.00  0.00     0.120 C 
ENDBRANCH   2  21
TORSDOF 1
ENDMDL
MODEL 3
REMARK VINA RESULT:      46.2      0.991      3.434
REMARK  1 active torsions:
REMARK  status: ('A' for Active; 'I' for Inactive)
REMARK    1  A    between atoms: N_13  and  C_2 
ROOT
ATOM      1  C   UNL d   1      14.255  13.882  -2.248  0.00  0.00     0.024 A 
ATOM      2  C   UNL d   1      13.898  13.882  -2.993  0.00  0.00     0.138 A 
ATOM      3  C   UNL d   1      13.598  13.178  -3.306  0.00  0.00     0.282 A 
ATOM      4  C   UNL d   1      14.312  13.182  -1.819  0.00  0.00     0.021 A 
ATOM      5  N   UNL d   1      13.658  12.482  -2.871  0.00  0.00    -0.271 N 
ATOM      6  C   UNL d   1      14.015  12.479  -2.126  0.00  0.00     0.067 A 
ATOM      7  C   UNL d   1      14.553  14.581  -1.938  0.00  0.00     0.005 A 
ATOM      8  C   UNL d   1      14.674  13.190  -1.069  0.00  0.00     0.040 A 
ATOM      9  C   UNL d   1      14.973  13.895  -0.758  0.00  0.00     0.196 A 
ATOM     10  C   UNL d   1      14.912  14.590  -1.194  0.00  0.00     0.039 A 
ATOM     11  O   UNL d   1      13.239  13.170  -4.049  0.00  0.00    -0.265 OA
ATOM     12  O   UNL d   1      15.332  13.903  -0.015  0.00  0.00    -0.287 OA
ATOM     13  C   UNL d   1      13.356  11.779  -3.189  0.00  0.00     0.102 C 
ATOM     14  C   UNL d   1      14.070  11.783  -1.702  0.00  0.00     0.018 A 
ATOM     15  C   UNL d   1      14.730  12.487  -0.640  0.00  0.00     0.003 A 
ATOM     16  C   UNL d   1      14.493  15.281  -2.374  0.00  0.00     0.000 A 
ATOM     17  C   UNL d   1      15.210  15.298  -0.888  0.00  0.00     0.003 A 
ATOM     18  C   UNL d   1      14.432  11.779  -0.946  0.00  0.00     0.002 A 
ATOM     19  C   UNL d   1      14.790  15.986  -2.067  0.00  0.00     0.000 A 
ATOM     20  C   UNL d   1      15.149  15.994  -1.324  0.00  0.00     0.000 A 
ENDROOT
BRANCH   2  21
ATOM     21  N   UNL d   1      13.839  14.578  -3.425  0.00  0.00    -0.238 NA
ATOM     22  C   UNL d   1      13.253  14.659  -4.000  0.00  0.00     0.120 C 
ENDBRANCH   2  21
TORSDOF 1
ENDMDL
