MODEL 1
REMARK VINA RESULT:      -6.4      0.000      0.000
REMARK  4 active torsions:
REMARK  status: ('A' for Active; 'I' for Inactive)
REMARK    1  A    between atoms: C_2  and  C_1 
REMARK    2  A    between atoms: C_3  and  C_4 
REMARK       I    between atoms: N_12  and  C_3 
REMARK    3  A    between atoms: C_4  and  C_5 
REMARK    4  A    between atoms: C_5  and  C_11 
ROOT
ATOM      1  C   UNL d   1      55.481  -0.117  33.313  0.00  0.00     0.071 A 
ATOM      2  C   UNL d   1      55.991   0.288  32.807  0.00  0.00     0.004 A 
ATOM      3  C   UNL d   1      56.473  -0.132  32.285  0.00  0.00     0.000 A 
ATOM      4  C   UNL d   1      55.452  -0.947  33.297  0.00  0.00     0.004 A 
ATOM      5  C   UNL d   1      55.933  -1.368  32.776  0.00  0.00    -0.000 A 
ATOM      6  C   UNL d   1      56.444  -0.963  32.270  0.00  0.00    -0.000 A 
ENDROOT
BRANCH   3   7
ATOM      7  C   UNL d   1      56.983   0.282  31.780  0.00  0.00     0.005 C 
BRANCH   7   8
ATOM      8  C   UNL d   1      57.333  -0.113  31.136  0.00  0.00     0.062 C 
BRANCH   8   9
ATOM      9  C   UNL d   1      57.871   0.283  30.651  0.00  0.00     0.279 C 
ATOM     10  O   UNL d   1      58.511   0.681  30.991  0.00  0.00    -0.265 OA
ATOM     11  N   UNL d   1      57.770   0.281  29.830  0.00  0.00    -0.205 NA
ATOM     12  C   UNL d   1      58.314   0.681  29.348  0.00  0.00     0.123 C 
ENDBRANCH   8   9
ENDBRANCH   7   8
ENDBRANCH   3   7
BRANCH   1  13
ATOM     13  C   UNL d   1      55.000   0.299  33.834  0.00  0.00     0.419 C 
ATOM     14  F   UNL d   1      54.189   0.603  33.710  0.00  0.00    -0.166 F 
ATOM     15  F   UNL d   1      55.153   0.553  34.642  0.00  0.00    -0.166 F 
ATOM     16  F   UNL d   1      54.554   0.681  34.308  0.00  0.00    -0.166 F 
ENDBRANCH   1  13
TORSDOF 4
ENDMDL
MODEL 2
REMARK VINA RESULT:      -5.7      1.446      1.848
REMARK  4 active torsions:
REMARK  status: ('A' for Active; 'I' for Inactive)
REMARK    1  A    between atoms: C_2  and  C_1 
REMARK    2  A    between atoms: C_3  and  C_4 
REMARK       I    between atoms: N_12  and  C_3 
REMARK    3  A    between atoms: C_4  and  C_5 
REMARK    4  A    between atoms: C_5  and  C_11 
ROOT
ATOM      1  C   UNL d   1      56.425  -0.493  32.620  0.00  0.00     0.071 A 
ATOM      2  C   UNL d   1      56.647  -0.413  31.830  0.00  0.00     0.004 A 
ATOM      3  C   UNL d   1      57.185   0.173  31.611  0.00  0.00     0.000 A 
ATOM      4  C   UNL d   1      56.743   0.016  33.195  0.00  0.00     0.004 A 
ATOM      5  C   UNL d   1      57.281   0.602  32.976  0.00  0.00    -0.000 A 
ATOM      6  C   UNL d   1      57.503   0.682  32.186  0.00  0.00    -0.000 A 
ENDROOT
BRANCH   3   7
ATOM      7  C   UNL d   1      57.404   0.247  30.814  0.00  0.00     0.005 C 
BRANCH   7   8
ATOM      8  C   UNL d   1      58.131  -0.065  30.557  0.00  0.00     0.062 C 
BRANCH   8   9
ATOM      9  C   UNL d   1      58.341  -0.021  29.760  0.00  0.00     0.279 C 
ATOM     10  O   UNL d   1      57.832   0.350  29.224  0.00  0.00    -0.265 OA
ATOM     11  N   UNL d   1      59.054  -0.346  29.499  0.00  0.00    -0.205 NA
ATOM     12  C   UNL d   1      59.260  -0.300  28.698  0.00  0.00     0.123 C 
ENDBRANCH   8   9
ENDBRANCH   7   8
ENDBRANCH   3   7
BRANCH   1  13
ATOM     13  C   UNL d   1      55.889  -1.076  32.842  0.00  0.00     0.419 C 
ATOM     14  F   UNL d   1      56.023  -1.935  32.944  0.00  0.00    -0.166 F 
ATOM     15  F   UNL d   1      55.054  -1.011  33.035  0.00  0.00    -0.166 F 
ATOM     16  F   UNL d   1      55.402  -1.615  33.045  0.00  0.00    -0.166 F 
ENDBRANCH   1  13
TORSDOF 4
ENDMDL
MODEL 3
REMARK VINA RESULT:      -4.1      3.395      4.518
REMARK  4 active torsions:
REMARK  status: ('A' for Active; 'I' for Inactive)
REMARK    1  A    between atoms: C_2  and  C_1 
REMARK    2  A    between atoms: C_3  and  C_4 
REMARK       I    between atoms: N_12  and  C_3 
REMARK    3  A    between atoms: C_4  and  C_5 
REMARK    4  A    between atoms: C_5  and  C_11 
ROOT
ATOM      1  C   UNL d   1      58.252  -0.681  29.979  0.00  0.00     0.071 A 
ATOM      2  C   UNL d   1      57.746  -0.939  30.577  0.00  0.00     0.004 A 
ATOM      3  C   UNL d   1      57.366  -0.389  31.060  0.00  0.00     0.000 A 
ATOM      4  C   UNL d   1      58.379   0.132  29.864  0.00  0.00     0.004 A 
ATOM      5  C   UNL d   1      57.999   0.682  30.347  0.00  0.00    -0.000 A 
ATOM      6  C   UNL d   1      57.493   0.424  30.945  0.00  0.00    -0.000 A 
ENDROOT
BRANCH   3   7
ATOM      7  C   UNL d   1      56.858  -0.657  31.659  0.00  0.00     0.005 C 
BRANCH   7   8
ATOM      8  C   UNL d   1      56.572  -0.118  32.226  0.00  0.00     0.062 C 
BRANCH   8   9
ATOM      9  C   UNL d   1      56.025  -0.366  32.792  0.00  0.00     0.279 C 
ATOM     10  O   UNL d   1      55.893  -1.174  32.906  0.00  0.00    -0.265 OA
ATOM     11  N   UNL d   1      55.610   0.191  33.241  0.00  0.00    -0.205 NA
ATOM     12  C   UNL d   1      55.062  -0.063  33.808  0.00  0.00     0.123 C 
ENDBRANCH   8   9
ENDBRANCH   7   8
ENDBRANCH   3   7
BRANCH   1  13
ATOM     13  C   UNL d   1      58.633  -1.227  29.495  0.00  0.00     0.419 C 
ATOM     14  F   UNL d   1      58.514  -1.382  28.642  0.00  0.00    -0.166 F 
ATOM     15  F   UNL d   1      59.249  -1.796  29.686  0.00  0.00    -0.166 F 
ATOM     16  F   UNL d   1      58.978  -1.725  29.047  0.00  0.00    -0.166 F 
ENDBRANCH   1  13
TORSDOF 4
ENDMDL
MODEL 4
REMARK VINA RESULT:      -4.0      9.104      9.788
REMARK  4 active torsions:
REMARK  status: ('A' for Active; 'I' for Inactive)
REMARK    1  A    between atoms: C_2  and  C_1 
REMARK    2  A    between atoms: C_3  and  C_4 
REMARK       I    between atoms: N_12  and  C_3 
REMARK    3  A    between atoms: C_4  and  C_5 
REMARK    4  A    between atoms: C_5  and  C_11 
ROOT
ATOM      1  C   UNL d   1      59.625  -8.045  35.719  0.00  0.00     0.071 A 
ATOM      2  C   UNL d   1      59.632  -8.289  34.932  0.00  0.00     0.004 A 
ATOM      3  C   UNL d   1      59.663  -9.093  34.751  0.00  0.00     0.000 A 
ATOM      4  C   UNL d   1      59.648  -8.608  36.330  0.00  0.00     0.004 A 
ATOM      5  C   UNL d   1      59.679  -9.412  36.149  0.00  0.00    -0.000 A 
ATOM      6  C   UNL d   1      59.687  -9.656  35.362  0.00  0.00    -0.000 A 
ENDROOT
BRANCH   3   7
ATOM      7  C   UNL d   1      59.671  -9.332  33.957  0.00  0.00     0.005 C 
BRANCH   7   8
ATOM      8  C   UNL d   1      60.397  -9.401  33.555  0.00  0.00     0.062 C 
BRANCH   8   9
ATOM      9  C   UNL d   1      60.409  -9.594  32.753  0.00  0.00     0.279 C 
ATOM     10  O   UNL d   1      59.702  -9.788  32.369  0.00  0.00    -0.265 OA
ATOM     11  N   UNL d   1      61.122  -9.594  32.336  0.00  0.00    -0.205 NA
ATOM     12  C   UNL d   1      61.128  -9.788  31.530  0.00  0.00     0.123 C 
ENDBRANCH   8   9
ENDBRANCH   7   8
ENDBRANCH   3   7
BRANCH   1  13
ATOM     13  C   UNL d   1      59.594  -7.243  35.903  0.00  0.00     0.419 C 
ATOM     14  F   UNL d   1      58.898  -6.714  35.936  0.00  0.00    -0.166 F 
ATOM     15  F   UNL d   1      60.228  -6.702  36.113  0.00  0.00    -0.166 F 
ATOM     16  F   UNL d   1      59.559  -6.509  36.070  0.00  0.00    -0.166 F 
ENDBRANCH   1  13
TORSDOF 4
ENDMDL
MODEL 5
REMARK VINA RESULT:      -3.7      3.004      4.008
REMARK  4 active torsions:
REMARK  status: ('A' for Active; 'I' for Inactive)
REMARK    1  A    between atoms: C_2  and  C_1 
REMARK    2  A    between atoms: C_3  and  C_4 
REMARK       I    between atoms: N_12  and  C_3 
REMARK    3  A    between atoms: C_4  and  C_5 
REMARK    4  A    between atoms: C_5  and  C_11 
ROOT
ATOM      1  C   UNL d   1      57.501  -0.070  31.118  0.00  0.00     0.071 A 
ATOM      2  C   UNL d   1      57.082   0.355  31.688  0.00  0.00     0.004 A 
ATOM      3  C   UNL d   1      56.585  -0.041  32.213  0.00  0.00     0.000 A 
ATOM      4  C   UNL d   1      57.422  -0.896  31.073  0.00  0.00     0.004 A 
ATOM      5  C   UNL d   1      56.925  -1.292  31.599  0.00  0.00    -0.000 A 
ATOM      6  C   UNL d   1      56.507  -0.867  32.169  0.00  0.00    -0.000 A 
ENDROOT
BRANCH   3   7
ATOM      7  C   UNL d   1      56.168   0.392  32.784  0.00  0.00     0.005 C 
BRANCH   7   8
ATOM      8  C   UNL d   1      55.452   0.092  33.086  0.00  0.00     0.062 C 
BRANCH   8   9
ATOM      9  C   UNL d   1      55.157   0.373  33.803  0.00  0.00     0.279 C 
ATOM     10  O   UNL d   1      54.371   0.628  33.849  0.00  0.00    -0.265 OA
ATOM     11  N   UNL d   1      55.642   0.399  34.471  0.00  0.00    -0.205 NA
ATOM     12  C   UNL d   1      55.339   0.682  35.189  0.00  0.00     0.123 C 
ENDBRANCH   8   9
ENDBRANCH   7   8
ENDBRANCH   3   7
BRANCH   1  13
ATOM     13  C   UNL d   1      57.997   0.323  30.592  0.00  0.00     0.419 C 
ATOM     14  F   UNL d   1      58.834   0.554  30.695  0.00  0.00    -0.166 F 
ATOM     15  F   UNL d   1      57.838   0.615  29.798  0.00  0.00    -0.166 F 
ATOM     16  F   UNL d   1      58.456   0.682  30.114  0.00  0.00    -0.166 F 
ENDBRANCH   1  13
TORSDOF 4
ENDMDL
