MODEL 1
REMARK VINA RESULT:      19.2      0.000      0.000
REMARK  5 active torsions:
REMARK  status: ('A' for Active; 'I' for Inactive)
REMARK    1  A    between atoms: C_2  and  C_1 
REMARK    2  A    between atoms: C_7  and  C_2 
REMARK    3  A    between atoms: C_9  and  N_3 
REMARK    4  A    between atoms: N_5  and  C_7 
REMARK    5  A    between atoms: O_24  and  C_20 
ROOT
ATOM      1  N   UNL d   1      45.689 -15.736  44.484  0.00  0.00    -0.301 N 
ATOM      2  N   UNL d   1      46.174 -17.314  44.632  0.00  0.00    -0.297 N 
ATOM      3  C   UNL d   1      45.211 -16.280  44.875  0.00  0.00     0.100 A 
ATOM      4  C   UNL d   1      46.411 -15.980  44.167  0.00  0.00     0.100 A 
ATOM      5  C   UNL d   1      45.452 -17.075  44.952  0.00  0.00     0.100 A 
ATOM      6  C   UNL d   1      46.646 -16.768  44.244  0.00  0.00     0.100 A 
ENDROOT
BRANCH   2   7
ATOM      7  C   UNL d   1      46.410 -18.099  44.709  0.00  0.00     0.123 C 
BRANCH   7   8
ATOM      8  C   UNL d   1      45.923 -18.709  44.445  0.00  0.00     0.216 C 
ATOM      9  O   UNL d   1      45.252 -18.918  44.877  0.00  0.00    -0.285 OA
BRANCH   8  10
ATOM     10  C   UNL d   1      46.106 -19.115  43.743  0.00  0.00     0.080 A 
ATOM     11  C   UNL d   1      46.334 -19.894  43.769  0.00  0.00     0.202 A 
ATOM     12  C   UNL d   1      46.515 -20.296  43.078  0.00  0.00     0.084 A 
ATOM     13  O   UNL d   1      46.384 -20.281  44.495  0.00  0.00    -0.286 OA
ATOM     14  C   UNL d   1      46.466 -19.909  42.342  0.00  0.00     0.199 A 
ATOM     15  C   UNL d   1      46.232 -19.113  42.319  0.00  0.00     0.042 A 
ATOM     16  O   UNL d   1      46.646 -20.312  41.653  0.00  0.00    -0.286 OA
ATOM     17  C   UNL d   1      46.052 -18.713  43.016  0.00  0.00     0.010 A 
ENDBRANCH   8  10
ENDBRANCH   7   8
ENDBRANCH   2   7
BRANCH   1  18
ATOM     18  C   UNL d   1      45.450 -14.954  44.411  0.00  0.00     0.064 A 
ATOM     19  C   UNL d   1      45.889 -14.436  43.957  0.00  0.00     0.020 A 
ATOM     20  C   UNL d   1      45.646 -13.645  43.883  0.00  0.00     0.026 A 
ATOM     21  C   UNL d   1      44.963 -13.388  44.268  0.00  0.00     0.094 A 
ATOM     22  C   UNL d   1      44.520 -13.922  44.729  0.00  0.00     0.026 A 
ATOM     23  C   UNL d   1      44.767 -14.701  44.797  0.00  0.00     0.020 A 
BRANCH  21  24
ATOM     24  O   UNL d   1      44.723 -12.599  44.192  0.00  0.00    -0.328 OA
ATOM     25  C   UNL d   1      44.848 -12.205  43.479  0.00  0.00     0.181 C 
ENDBRANCH  21  24
ENDBRANCH   1  18
TORSDOF 5
ENDMDL
