MODEL 1
REMARK VINA RESULT:      -8.2      0.000      0.000
REMARK  4 active torsions:
REMARK  status: ('A' for Active; 'I' for Inactive)
REMARK    1  A    between atoms: C_3  and  C_1 
REMARK    2  A    between atoms: C_8  and  C_3 
REMARK    3  A    between atoms: C_9  and  C_3 
REMARK    4  A    between atoms: N_5  and  C_9 
ROOT
ATOM      1  C   UNL d   1     -48.593  13.067  22.890  0.00  0.00     0.023 A 
ATOM      2  C   UNL d   1     -48.902  12.415  23.354  0.00  0.00     0.082 A 
ATOM      3  N   UNL d   1     -48.271  11.995  23.647  0.00  0.00    -0.246 NA
ATOM      4  C   UNL d   1     -47.781  13.017  22.919  0.00  0.00     0.019 A 
ATOM      5  C   UNL d   1     -47.574  12.359  23.384  0.00  0.00     0.081 A 
ATOM      6  C   UNL d   1     -49.421  11.938  23.697  0.00  0.00     0.021 C 
ATOM      7  C   UNL d   1     -47.194  13.488  22.581  0.00  0.00     0.002 A 
ATOM      8  C   UNL d   1     -46.772  12.180  23.505  0.00  0.00     0.019 A 
ATOM      9  C   UNL d   1     -46.405  13.295  22.712  0.00  0.00     0.000 A 
ATOM     10  C   UNL d   1     -46.188  12.649  23.168  0.00  0.00     0.002 A 
ENDROOT
BRANCH   1  11
ATOM     11  C   UNL d   1     -49.053  13.627  22.496  0.00  0.00     0.048 C 
BRANCH  11  12
ATOM     12  C   UNL d   1     -49.392  14.257  22.880  0.00  0.00     0.102 A 
ATOM     13  O   UNL d   1     -50.011  14.207  23.442  0.00  0.00    -0.305 OA
ATOM     14  C   UNL d   1     -50.193  14.966  23.698  0.00  0.00     0.123 A 
ATOM     15  C   UNL d   1     -49.671  15.505  23.283  0.00  0.00     0.029 A 
ATOM     16  C   UNL d   1     -49.194  15.054  22.793  0.00  0.00     0.027 A 
ENDBRANCH  11  12
BRANCH  11  17
ATOM     17  C   UNL d   1     -49.169  13.534  21.673  0.00  0.00     0.150 C 
BRANCH  17  18
ATOM     18  N   UNL d   1     -49.921  13.321  21.394  0.00  0.00    -0.112 N 
ATOM     19  O   UNL d   1     -50.172  12.551  21.418  0.00  0.00    -0.532 OA
ATOM     20  O   UNL d   1     -50.432  13.923  21.079  0.00  0.00    -0.532 OA
ENDBRANCH  17  18
ENDBRANCH  11  17
ENDBRANCH   1  11
TORSDOF 4
ENDMDL
MODEL 2
REMARK VINA RESULT:      -8.0      1.495      3.256
REMARK  4 active torsions:
REMARK  status: ('A' for Active; 'I' for Inactive)
REMARK    1  A    between atoms: C_3  and  C_1 
REMARK    2  A    between atoms: C_8  and  C_3 
REMARK    3  A    between atoms: C_9  and  C_3 
REMARK    4  A    between atoms: N_5  and  C_9 
ROOT
ATOM      1  C   UNL d   1     -48.558  13.348  22.428  0.00  0.00     0.023 A 
ATOM      2  C   UNL d   1     -48.768  13.093  21.635  0.00  0.00     0.082 A 
ATOM      3  N   UNL d   1     -49.408  13.531  21.394  0.00  0.00    -0.246 NA
ATOM      4  C   UNL d   1     -49.082  13.934  22.637  0.00  0.00     0.019 A 
ATOM      5  C   UNL d   1     -49.610  14.054  22.005  0.00  0.00     0.081 A 
ATOM      6  C   UNL d   1     -48.745  12.695  20.961  0.00  0.00     0.021 C 
ATOM      7  C   UNL d   1     -49.151  14.382  23.327  0.00  0.00     0.002 A 
ATOM      8  C   UNL d   1     -50.206  14.628  22.074  0.00  0.00     0.019 A 
ATOM      9  C   UNL d   1     -49.748  14.945  23.377  0.00  0.00     0.000 A 
ATOM     10  C   UNL d   1     -50.274  15.073  22.761  0.00  0.00     0.002 A 
ENDROOT
BRANCH   1  11
ATOM     11  C   UNL d   1     -47.936  13.039  22.874  0.00  0.00     0.048 C 
BRANCH  11  12
ATOM     12  C   UNL d   1     -47.163  13.239  22.734  0.00  0.00     0.102 A 
ATOM     13  O   UNL d   1     -46.708  12.994  22.073  0.00  0.00    -0.305 OA
ATOM     14  C   UNL d   1     -45.956  13.316  22.140  0.00  0.00     0.123 A 
ATOM     15  C   UNL d   1     -45.940  13.775  22.864  0.00  0.00     0.029 A 
ATOM     16  C   UNL d   1     -46.681  13.715  23.208  0.00  0.00     0.027 A 
ENDBRANCH  11  12
BRANCH  11  17
ATOM     17  C   UNL d   1     -48.120  12.502  23.489  0.00  0.00     0.150 C 
BRANCH  17  18
ATOM     18  N   UNL d   1     -47.894  11.708  23.410  0.00  0.00    -0.112 N 
ATOM     19  O   UNL d   1     -47.183  11.446  23.695  0.00  0.00    -0.532 OA
ATOM     20  O   UNL d   1     -48.421  11.164  23.023  0.00  0.00    -0.532 OA
ENDBRANCH  17  18
ENDBRANCH  11  17
ENDBRANCH   1  11
TORSDOF 4
ENDMDL
MODEL 3
REMARK VINA RESULT:      -7.6      1.152      2.865
REMARK  4 active torsions:
REMARK  status: ('A' for Active; 'I' for Inactive)
REMARK    1  A    between atoms: C_3  and  C_1 
REMARK    2  A    between atoms: C_8  and  C_3 
REMARK    3  A    between atoms: C_9  and  C_3 
REMARK    4  A    between atoms: N_5  and  C_9 
ROOT
ATOM      1  C   UNL d   1     -49.440  13.599  22.920  0.00  0.00     0.023 A 
ATOM      2  C   UNL d   1     -50.075  13.101  23.212  0.00  0.00     0.082 A 
ATOM      3  N   UNL d   1     -50.639  13.584  23.541  0.00  0.00    -0.246 NA
ATOM      4  C   UNL d   1     -49.645  14.369  23.084  0.00  0.00     0.019 A 
ATOM      5  C   UNL d   1     -50.383  14.370  23.467  0.00  0.00     0.081 A 
ATOM      6  C   UNL d   1     -50.485  12.455  23.377  0.00  0.00     0.021 C 
ATOM      7  C   UNL d   1     -49.254  15.080  22.934  0.00  0.00     0.002 A 
ATOM      8  C   UNL d   1     -50.724  15.091  23.698  0.00  0.00     0.019 A 
ATOM      9  C   UNL d   1     -49.607  15.785  23.170  0.00  0.00     0.000 A 
ATOM     10  C   UNL d   1     -50.334  15.799  23.548  0.00  0.00     0.002 A 
ENDROOT
BRANCH   1  11
ATOM     11  C   UNL d   1     -48.758  13.323  22.545  0.00  0.00     0.048 C 
BRANCH  11  12
ATOM     12  C   UNL d   1     -48.168  12.940  22.948  0.00  0.00     0.102 A 
ATOM     13  O   UNL d   1     -48.232  12.181  23.299  0.00  0.00    -0.305 OA
ATOM     14  C   UNL d   1     -47.514  11.995  23.651  0.00  0.00     0.123 A 
ATOM     15  C   UNL d   1     -46.986  12.656  23.515  0.00  0.00     0.029 A 
ATOM     16  C   UNL d   1     -47.402  13.217  23.088  0.00  0.00     0.027 A 
ENDBRANCH  11  12
BRANCH  11  17
ATOM     17  C   UNL d   1     -48.682  13.449  21.721  0.00  0.00     0.150 C 
BRANCH  17  18
ATOM     18  N   UNL d   1     -48.713  12.797  21.210  0.00  0.00    -0.112 N 
ATOM     19  O   UNL d   1     -49.408  12.404  21.076  0.00  0.00    -0.532 OA
ATOM     20  O   UNL d   1     -48.001  12.540  20.823  0.00  0.00    -0.532 OA
ENDBRANCH  17  18
ENDBRANCH  11  17
ENDBRANCH   1  11
TORSDOF 4
ENDMDL
MODEL 4
REMARK VINA RESULT:      -7.2      1.617      3.124
REMARK  4 active torsions:
REMARK  status: ('A' for Active; 'I' for Inactive)
REMARK    1  A    between atoms: C_3  and  C_1 
REMARK    2  A    between atoms: C_8  and  C_3 
REMARK    3  A    between atoms: C_9  and  C_3 
REMARK    4  A    between atoms: N_5  and  C_9 
ROOT
ATOM      1  C   UNL d   1     -48.667  13.240  22.357  0.00  0.00     0.023 A 
ATOM      2  C   UNL d   1     -48.700  13.013  21.530  0.00  0.00     0.082 A 
ATOM      3  N   UNL d   1     -49.375  12.576  21.418  0.00  0.00    -0.246 NA
ATOM      4  C   UNL d   1     -49.328  12.930  22.716  0.00  0.00     0.019 A 
ATOM      5  C   UNL d   1     -49.771  12.518  22.144  0.00  0.00     0.081 A 
ATOM      6  C   UNL d   1     -48.494  12.949  20.777  0.00  0.00     0.021 C 
ATOM      7  C   UNL d   1     -49.591  12.966  23.498  0.00  0.00     0.002 A 
ATOM      8  C   UNL d   1     -50.479  12.145  22.365  0.00  0.00     0.019 A 
ATOM      9  C   UNL d   1     -50.295  12.590  23.698  0.00  0.00     0.000 A 
ATOM     10  C   UNL d   1     -50.740  12.182  23.143  0.00  0.00     0.002 A 
ENDROOT
BRANCH   1  11
ATOM     11  C   UNL d   1     -48.066  13.690  22.700  0.00  0.00     0.048 C 
BRANCH  11  12
ATOM     12  C   UNL d   1     -47.308  13.413  22.777  0.00  0.00     0.102 A 
ATOM     13  O   UNL d   1     -46.745  13.361  22.158  0.00  0.00    -0.305 OA
ATOM     14  C   UNL d   1     -46.048  13.052  22.464  0.00  0.00     0.123 A 
ATOM     15  C   UNL d   1     -46.181  12.908  23.299  0.00  0.00     0.029 A 
ATOM     16  C   UNL d   1     -46.950  13.133  23.466  0.00  0.00     0.027 A 
ENDBRANCH  11  12
BRANCH  11  17
ATOM     17  C   UNL d   1     -48.256  14.456  22.976  0.00  0.00     0.150 C 
BRANCH  17  18
ATOM     18  N   UNL d   1     -48.011  15.115  22.535  0.00  0.00    -0.112 N 
ATOM     19  O   UNL d   1     -47.258  15.405  22.602  0.00  0.00    -0.532 OA
ATOM     20  O   UNL d   1     -48.562  15.488  22.006  0.00  0.00    -0.532 OA
ENDBRANCH  17  18
ENDBRANCH  11  17
ENDBRANCH   1  11
TORSDOF 4
ENDMDL
MODEL 5
REMARK VINA RESULT:      -6.9      1.576      3.453
REMARK  4 active torsions:
REMARK  status: ('A' for Active; 'I' for Inactive)
REMARK    1  A    between atoms: C_3  and  C_1 
REMARK    2  A    between atoms: C_8  and  C_3 
REMARK    3  A    between atoms: C_9  and  C_3 
REMARK    4  A    between atoms: N_5  and  C_9 
ROOT
ATOM      1  C   UNL d   1     -48.889  14.148  22.900  0.00  0.00     0.023 A 
ATOM      2  C   UNL d   1     -48.333  14.766  22.686  0.00  0.00     0.082 A 
ATOM      3  N   UNL d   1     -48.687  15.482  22.837  0.00  0.00    -0.246 NA
ATOM      4  C   UNL d   1     -49.561  14.515  23.174  0.00  0.00     0.019 A 
ATOM      5  C   UNL d   1     -49.445  15.338  23.139  0.00  0.00     0.081 A 
ATOM      6  C   UNL d   1     -47.677  15.108  22.428  0.00  0.00     0.021 C 
ATOM      7  C   UNL d   1     -50.273  14.207  23.455  0.00  0.00     0.002 A 
ATOM      8  C   UNL d   1     -50.052  15.847  23.389  0.00  0.00     0.019 A 
ATOM      9  C   UNL d   1     -50.863  14.727  23.698  0.00  0.00     0.000 A 
ATOM     10  C   UNL d   1     -50.761  15.540  23.668  0.00  0.00     0.002 A 
ENDROOT
BRANCH   1  11
ATOM     11  C   UNL d   1     -48.744  13.338  22.830  0.00  0.00     0.048 C 
BRANCH  11  12
ATOM     12  C   UNL d   1     -48.801  12.947  22.122  0.00  0.00     0.102 A 
ATOM     13  O   UNL d   1     -48.283  13.045  21.470  0.00  0.00    -0.305 OA
ATOM     14  C   UNL d   1     -48.531  12.550  20.863  0.00  0.00     0.123 A 
ATOM     15  C   UNL d   1     -49.224  12.132  21.145  0.00  0.00     0.029 A 
ATOM     16  C   UNL d   1     -49.370  12.387  21.909  0.00  0.00     0.027 A 
ENDBRANCH  11  12
BRANCH  11  17
ATOM     17  C   UNL d   1     -48.532  12.915  23.520  0.00  0.00     0.150 C 
BRANCH  17  18
ATOM     18  N   UNL d   1     -47.806  12.514  23.539  0.00  0.00    -0.112 N 
ATOM     19  O   UNL d   1     -47.105  12.920  23.537  0.00  0.00    -0.532 OA
ATOM     20  O   UNL d   1     -47.803  11.664  23.562  0.00  0.00    -0.532 OA
ENDBRANCH  17  18
ENDBRANCH  11  17
ENDBRANCH   1  11
TORSDOF 4
ENDMDL
