MODEL 1
REMARK VINA RESULT:      -4.5      0.000      0.000
REMARK  5 active torsions:
REMARK  status: ('A' for Active; 'I' for Inactive)
REMARK    1  A    between atoms: C_6  and  C_1 
REMARK    2  A    between atoms: C_8  and  N_3 
REMARK    3  A    between atoms: O_7  and  C_6 
REMARK    4  A    between atoms: C_9  and  O_7 
REMARK    5  A    between atoms: O_16  and  C_10 
ROOT
ATOM      1  C   UNL d   1      57.971  -1.044  30.394  0.00  0.00     0.173 A 
ATOM      2  N   UNL d   1      58.025  -1.767  30.053  0.00  0.00    -0.225 NA
ATOM      3  N   UNL d   1      58.545  -0.542  30.133  0.00  0.00    -0.287 N 
ATOM      4  C   UNL d   1      59.027  -0.984  29.560  0.00  0.00     0.083 A 
ATOM      5  C   UNL d   1      58.713  -1.723  29.511  0.00  0.00     0.099 A 
ATOM      6  C   UNL d   1      59.684  -0.810  29.097  0.00  0.00     0.019 A 
ATOM      7  C   UNL d   1      59.035  -2.338  28.997  0.00  0.00     0.021 A 
ATOM      8  C   UNL d   1      60.038  -1.350  28.587  0.00  0.00     0.002 A 
ATOM      9  C   UNL d   1      59.724  -2.089  28.539  0.00  0.00     0.002 A 
ENDROOT
BRANCH   1  10
ATOM     10  C   UNL d   1      57.649  -0.485  30.885  0.00  0.00     0.160 C 
BRANCH  10  11
ATOM     11  O   UNL d   1      56.832  -0.521  31.061  0.00  0.00    -0.302 OA
BRANCH  11  12
ATOM     12  C   UNL d   1      56.557  -0.309  31.823  0.00  0.00     0.100 A 
ATOM     13  C   UNL d   1      56.401  -0.902  32.392  0.00  0.00     0.027 A 
ATOM     14  C   UNL d   1      56.126  -0.690  33.154  0.00  0.00     0.026 A 
ATOM     15  C   UNL d   1      56.012   0.088  33.340  0.00  0.00     0.094 A 
ATOM     16  C   UNL d   1      56.169   0.681  32.770  0.00  0.00     0.026 A 
ATOM     17  C   UNL d   1      56.444   0.469  32.009  0.00  0.00     0.027 A 
BRANCH  15  18
ATOM     18  O   UNL d   1      55.739   0.091  34.137  0.00  0.00    -0.328 OA
ATOM     19  C   UNL d   1      55.175   0.659  34.398  0.00  0.00     0.181 C 
ENDBRANCH  15  18
ENDBRANCH  11  12
ENDBRANCH  10  11
ENDBRANCH   1  10
BRANCH   3  20
ATOM     20  C   UNL d   1      58.543   0.198  30.439  0.00  0.00     0.082 C 
ATOM     21  C   UNL d   1      59.216   0.675  30.436  0.00  0.00     0.021 C 
ENDBRANCH   3  20
TORSDOF 5
ENDMDL
MODEL 2
REMARK VINA RESULT:      -3.6      0.710      1.098
REMARK  5 active torsions:
REMARK  status: ('A' for Active; 'I' for Inactive)
REMARK    1  A    between atoms: C_6  and  C_1 
REMARK    2  A    between atoms: C_8  and  N_3 
REMARK    3  A    between atoms: O_7  and  C_6 
REMARK    4  A    between atoms: C_9  and  O_7 
REMARK    5  A    between atoms: O_16  and  C_10 
ROOT
ATOM      1  C   UNL d   1      58.158  -0.348  30.303  0.00  0.00     0.173 A 
ATOM      2  N   UNL d   1      58.283  -0.802  29.656  0.00  0.00    -0.225 NA
ATOM      3  N   UNL d   1      58.786   0.133  30.462  0.00  0.00    -0.287 N 
ATOM      4  C   UNL d   1      59.386  -0.023  29.852  0.00  0.00     0.083 A 
ATOM      5  C   UNL d   1      59.083  -0.587  29.366  0.00  0.00     0.099 A 
ATOM      6  C   UNL d   1      60.138   0.267  29.689  0.00  0.00     0.019 A 
ATOM      7  C   UNL d   1      59.510  -0.900  28.683  0.00  0.00     0.021 A 
ATOM      8  C   UNL d   1      60.597   0.012  29.056  0.00  0.00     0.002 A 
ATOM      9  C   UNL d   1      60.294  -0.552  28.569  0.00  0.00     0.002 A 
ENDROOT
BRANCH   1  10
ATOM     10  C   UNL d   1      57.736  -0.072  30.938  0.00  0.00     0.160 C 
BRANCH  10  11
ATOM     11  O   UNL d   1      56.972  -0.381  31.082  0.00  0.00    -0.302 OA
BRANCH  11  12
ATOM     12  C   UNL d   1      56.588  -0.228  31.810  0.00  0.00     0.100 A 
ATOM     13  C   UNL d   1      56.266   0.529  31.964  0.00  0.00     0.027 A 
ATOM     14  C   UNL d   1      55.883   0.682  32.692  0.00  0.00     0.026 A 
ATOM     15  C   UNL d   1      55.823   0.098  33.247  0.00  0.00     0.094 A 
ATOM     16  C   UNL d   1      56.144  -0.659  33.093  0.00  0.00     0.026 A 
ATOM     17  C   UNL d   1      56.528  -0.812  32.365  0.00  0.00     0.027 A 
BRANCH  15  18
ATOM     18  O   UNL d   1      55.411   0.446  33.894  0.00  0.00    -0.328 OA
ATOM     19  C   UNL d   1      55.586   0.222  34.687  0.00  0.00     0.181 C 
ENDBRANCH  15  18
ENDBRANCH  11  12
ENDBRANCH  10  11
ENDBRANCH   1  10
BRANCH   3  20
ATOM     20  C   UNL d   1      58.721   0.613  31.101  0.00  0.00     0.082 C 
ATOM     21  C   UNL d   1      59.320   0.676  31.664  0.00  0.00     0.021 C 
ENDBRANCH   3  20
TORSDOF 5
ENDMDL
MODEL 3
REMARK VINA RESULT:      -2.1      9.026      9.404
REMARK  5 active torsions:
REMARK  status: ('A' for Active; 'I' for Inactive)
REMARK    1  A    between atoms: C_6  and  C_1 
REMARK    2  A    between atoms: C_8  and  N_3 
REMARK    3  A    between atoms: O_7  and  C_6 
REMARK    4  A    between atoms: C_9  and  O_7 
REMARK    5  A    between atoms: O_16  and  C_10 
ROOT
ATOM      1  C   UNL d   1      58.402  -9.811  32.369  0.00  0.00     0.173 A 
ATOM      2  N   UNL d   1      57.669  -9.806  32.047  0.00  0.00    -0.225 NA
ATOM      3  N   UNL d   1      58.980  -9.812  31.806  0.00  0.00    -0.287 N 
ATOM      4  C   UNL d   1      58.582  -9.807  31.034  0.00  0.00     0.083 A 
ATOM      5  C   UNL d   1      57.791  -9.804  31.179  0.00  0.00     0.099 A 
ATOM      6  C   UNL d   1      58.834  -9.806  30.250  0.00  0.00     0.019 A 
ATOM      7  C   UNL d   1      57.197  -9.799  30.550  0.00  0.00     0.021 A 
ATOM      8  C   UNL d   1      58.320  -9.801  29.607  0.00  0.00     0.002 A 
ATOM      9  C   UNL d   1      57.530  -9.798  29.752  0.00  0.00     0.002 A 
ENDROOT
BRANCH   1  10
ATOM     10  C   UNL d   1      58.938  -9.815  32.977  0.00  0.00     0.160 C 
BRANCH  10  11
ATOM     11  O   UNL d   1      58.659  -9.775  33.765  0.00  0.00    -0.302 OA
BRANCH  11  12
ATOM     12  C   UNL d   1      59.117  -9.395  34.353  0.00  0.00     0.100 A 
ATOM     13  C   UNL d   1      58.957  -8.600  34.560  0.00  0.00     0.027 A 
ATOM     14  C   UNL d   1      59.415  -8.219  35.148  0.00  0.00     0.026 A 
ATOM     15  C   UNL d   1      60.012  -8.620  35.517  0.00  0.00     0.094 A 
ATOM     16  C   UNL d   1      60.171  -9.415  35.311  0.00  0.00     0.026 A 
ATOM     17  C   UNL d   1      59.713  -9.796  34.722  0.00  0.00     0.027 A 
BRANCH  15  18
ATOM     18  O   UNL d   1      60.344  -8.073  36.064  0.00  0.00    -0.328 OA
ATOM     19  C   UNL d   1      61.087  -7.707  35.911  0.00  0.00     0.181 C 
ENDBRANCH  15  18
ENDBRANCH  11  12
ENDBRANCH  10  11
ENDBRANCH   1  10
BRANCH   3  20
ATOM     20  C   UNL d   1      59.737  -9.817  32.068  0.00  0.00     0.082 C 
ATOM     21  C   UNL d   1      60.374  -9.662  31.567  0.00  0.00     0.021 C 
ENDBRANCH   3  20
TORSDOF 5
ENDMDL
