MODEL 1
REMARK VINA RESULT:      -8.4      0.000      0.000
REMARK  4 active torsions:
REMARK  status: ('A' for Active; 'I' for Inactive)
REMARK    1  A    between atoms: C_2  and  S_1 
REMARK    2  A    between atoms: N_3  and  S_1 
REMARK    3  A    between atoms: C_4  and  C_6 
REMARK       I    between atoms: N_7  and  C_4 
REMARK    4  A    between atoms: C_14  and  N_7 
ROOT
ATOM      1  C   UNL d   1     -48.554  14.049  22.812  0.00  0.00     0.104 A 
ATOM      2  C   UNL d   1     -47.843  13.641  22.882  0.00  0.00     0.018 A 
ATOM      3  C   UNL d   1     -47.127  14.044  22.793  0.00  0.00     0.059 A 
ATOM      4  C   UNL d   1     -48.556  14.857  22.654  0.00  0.00     0.012 A 
ATOM      5  C   UNL d   1     -47.125  14.854  22.635  0.00  0.00     0.005 A 
ATOM      6  C   UNL d   1     -47.840  15.260  22.565  0.00  0.00     0.001 A 
ATOM      7  C   UNL d   1     -49.267  15.265  22.584  0.00  0.00     0.001 C 
ENDROOT
BRANCH   3   8
ATOM      8  C   UNL d   1     -46.410  13.644  22.862  0.00  0.00     0.279 C 
ATOM      9  N   UNL d   1     -46.158  13.149  22.258  0.00  0.00    -0.208 NA
ATOM     10  O   UNL d   1     -45.950  13.741  23.536  0.00  0.00    -0.265 OA
BRANCH   9  11
ATOM     11  C   UNL d   1     -45.442  12.745  22.320  0.00  0.00     0.087 A 
ATOM     12  C   UNL d   1     -45.389  12.093  22.814  0.00  0.00     0.045 A 
ATOM     13  C   UNL d   1     -44.672  11.683  22.881  0.00  0.00     0.121 A 
ATOM     14  O   UNL d   1     -44.445  11.017  23.325  0.00  0.00    -0.299 OA
ATOM     15  C   UNL d   1     -44.017  11.938  22.449  0.00  0.00     0.119 A 
ATOM     16  C   UNL d   1     -43.654  10.868  23.161  0.00  0.00     0.304 A 
ATOM     17  O   UNL d   1     -43.377  11.434  22.618  0.00  0.00    -0.300 OA
ATOM     18  C   UNL d   1     -44.071  12.602  21.946  0.00  0.00     0.028 A 
ATOM     19  C   UNL d   1     -44.787  13.006  21.883  0.00  0.00     0.021 A 
ENDBRANCH   9  11
ENDBRANCH   3   8
BRANCH   1  20
ATOM     20  S   UNL d   1     -49.263  13.650  22.900  0.00  0.00     0.271 S 
ATOM     21  O   UNL d   1     -49.288  13.871  23.697  0.00  0.00    -0.200 OA
ATOM     22  O   UNL d   1     -49.234  13.396  21.983  0.00  0.00    -0.200 OA
BRANCH  20  23
ATOM     23  N   UNL d   1     -49.977  13.230  22.929  0.00  0.00    -0.229 N 
ATOM     24  C   UNL d   1     -50.388  13.034  23.620  0.00  0.00     0.092 A 
ATOM     25  C   UNL d   1     -51.064  12.619  23.394  0.00  0.00     0.021 A 
ATOM     26  C   UNL d   1     -51.064  12.563  22.566  0.00  0.00     0.021 A 
ATOM     27  C   UNL d   1     -50.395  12.939  22.289  0.00  0.00     0.092 A 
ENDBRANCH  20  23
ENDBRANCH   1  20
TORSDOF 4
ENDMDL
MODEL 2
REMARK VINA RESULT:      -7.6      1.468      2.325
REMARK  4 active torsions:
REMARK  status: ('A' for Active; 'I' for Inactive)
REMARK    1  A    between atoms: C_2  and  S_1 
REMARK    2  A    between atoms: N_3  and  S_1 
REMARK    3  A    between atoms: C_4  and  C_6 
REMARK       I    between atoms: N_7  and  C_4 
REMARK    4  A    between atoms: C_14  and  N_7 
ROOT
ATOM      1  C   UNL d   1     -49.797  12.812  23.188  0.00  0.00     0.104 A 
ATOM      2  C   UNL d   1     -48.999  12.677  23.040  0.00  0.00     0.018 A 
ATOM      3  C   UNL d   1     -48.666  11.943  23.221  0.00  0.00     0.059 A 
ATOM      4  C   UNL d   1     -50.265  12.221  23.516  0.00  0.00     0.012 A 
ATOM      5  C   UNL d   1     -49.133  11.347  23.549  0.00  0.00     0.005 A 
ATOM      6  C   UNL d   1     -49.933  11.486  23.696  0.00  0.00     0.001 A 
ATOM      7  C   UNL d   1     -51.063  12.356  23.664  0.00  0.00     0.001 C 
ENDROOT
BRANCH   3   8
ATOM      8  C   UNL d   1     -47.868  11.799  23.075  0.00  0.00     0.279 C 
ATOM      9  N   UNL d   1     -47.303  12.034  23.623  0.00  0.00    -0.208 NA
ATOM     10  O   UNL d   1     -47.640  11.420  22.383  0.00  0.00    -0.265 OA
BRANCH   9  11
ATOM     11  C   UNL d   1     -46.503  11.892  23.483  0.00  0.00     0.087 A 
ATOM     12  C   UNL d   1     -46.180  11.168  23.691  0.00  0.00     0.045 A 
ATOM     13  C   UNL d   1     -45.376  11.019  23.553  0.00  0.00     0.121 A 
ATOM     14  O   UNL d   1     -44.895  10.356  23.698  0.00  0.00    -0.299 OA
ATOM     15  C   UNL d   1     -44.909  11.604  23.207  0.00  0.00     0.119 A 
ATOM     16  C   UNL d   1     -44.137  10.540  23.440  0.00  0.00     0.304 A 
ATOM     17  O   UNL d   1     -44.134  11.313  23.133  0.00  0.00    -0.300 OA
ATOM     18  C   UNL d   1     -45.238  12.342  22.995  0.00  0.00     0.028 A 
ATOM     19  C   UNL d   1     -46.039  12.484  23.135  0.00  0.00     0.021 A 
ENDBRANCH   9  11
ENDBRANCH   3   8
BRANCH   1  20
ATOM     20  S   UNL d   1     -50.127  13.540  23.009  0.00  0.00     0.271 S 
ATOM     21  O   UNL d   1     -50.577  13.189  22.411  0.00  0.00    -0.200 OA
ATOM     22  O   UNL d   1     -49.608  13.945  23.697  0.00  0.00    -0.200 OA
BRANCH  20  23
ATOM     23  N   UNL d   1     -50.426  14.301  22.873  0.00  0.00    -0.229 N 
ATOM     24  C   UNL d   1     -50.352  14.723  22.165  0.00  0.00     0.092 A 
ATOM     25  C   UNL d   1     -50.728  15.450  22.273  0.00  0.00     0.021 A 
ATOM     26  C   UNL d   1     -51.029  15.469  23.046  0.00  0.00     0.021 A 
ATOM     27  C   UNL d   1     -50.840  14.762  23.407  0.00  0.00     0.092 A 
ENDBRANCH  20  23
ENDBRANCH   1  20
TORSDOF 4
ENDMDL
MODEL 3
REMARK VINA RESULT:      -6.9      1.292      1.892
REMARK  4 active torsions:
REMARK  status: ('A' for Active; 'I' for Inactive)
REMARK    1  A    between atoms: C_2  and  S_1 
REMARK    2  A    between atoms: N_3  and  S_1 
REMARK    3  A    between atoms: C_4  and  C_6 
REMARK       I    between atoms: N_7  and  C_4 
REMARK    4  A    between atoms: C_14  and  N_7 
ROOT
ATOM      1  C   UNL d   1     -48.910  12.706  23.141  0.00  0.00     0.104 A 
ATOM      2  C   UNL d   1     -48.125  12.909  22.998  0.00  0.00     0.018 A 
ATOM      3  C   UNL d   1     -47.521  12.386  23.206  0.00  0.00     0.059 A 
ATOM      4  C   UNL d   1     -49.096  11.984  23.490  0.00  0.00     0.012 A 
ATOM      5  C   UNL d   1     -47.703  11.661  23.556  0.00  0.00     0.005 A 
ATOM      6  C   UNL d   1     -48.491  11.461  23.698  0.00  0.00     0.001 A 
ATOM      7  C   UNL d   1     -49.880  11.781  23.633  0.00  0.00     0.001 C 
ENDROOT
BRANCH   3   8
ATOM      8  C   UNL d   1     -46.733  12.581  23.067  0.00  0.00     0.279 C 
ATOM      9  N   UNL d   1     -46.472  12.711  22.299  0.00  0.00    -0.208 NA
ATOM     10  O   UNL d   1     -46.209  12.644  23.697  0.00  0.00    -0.265 OA
BRANCH   9  11
ATOM     11  C   UNL d   1     -45.684  12.907  22.154  0.00  0.00     0.087 A 
ATOM     12  C   UNL d   1     -45.126  12.310  22.092  0.00  0.00     0.045 A 
ATOM     13  C   UNL d   1     -44.333  12.500  21.945  0.00  0.00     0.121 A 
ATOM     14  O   UNL d   1     -43.651  12.032  21.855  0.00  0.00    -0.299 OA
ATOM     15  C   UNL d   1     -44.114  13.291  21.864  0.00  0.00     0.119 A 
ATOM     16  C   UNL d   1     -43.019  12.539  21.719  0.00  0.00     0.304 A 
ATOM     17  O   UNL d   1     -43.295  13.324  21.722  0.00  0.00    -0.300 OA
ATOM     18  C   UNL d   1     -44.682  13.899  21.927  0.00  0.00     0.028 A 
ATOM     19  C   UNL d   1     -45.470  13.703  22.073  0.00  0.00     0.021 A 
ENDBRANCH   9  11
ENDBRANCH   3   8
BRANCH   1  20
ATOM     20  S   UNL d   1     -49.509  13.225  22.934  0.00  0.00     0.271 S 
ATOM     21  O   UNL d   1     -49.439  13.598  23.669  0.00  0.00    -0.200 OA
ATOM     22  O   UNL d   1     -49.589  12.796  22.088  0.00  0.00    -0.200 OA
BRANCH  20  23
ATOM     23  N   UNL d   1     -50.118  13.720  22.671  0.00  0.00    -0.229 N 
ATOM     24  C   UNL d   1     -50.440  13.718  21.908  0.00  0.00     0.092 A 
ATOM     25  C   UNL d   1     -51.029  14.296  21.889  0.00  0.00     0.021 A 
ATOM     26  C   UNL d   1     -51.064  14.649  22.639  0.00  0.00     0.021 A 
ATOM     27  C   UNL d   1     -50.504  14.292  23.112  0.00  0.00     0.092 A 
ENDBRANCH  20  23
ENDBRANCH   1  20
TORSDOF 4
ENDMDL
MODEL 4
REMARK VINA RESULT:      -6.1      8.412      9.159
REMARK  4 active torsions:
REMARK  status: ('A' for Active; 'I' for Inactive)
REMARK    1  A    between atoms: C_2  and  S_1 
REMARK    2  A    between atoms: N_3  and  S_1 
REMARK    3  A    between atoms: C_4  and  C_6 
REMARK       I    between atoms: N_7  and  C_4 
REMARK    4  A    between atoms: C_14  and  N_7 
ROOT
ATOM      1  C   UNL d   1     -39.678  14.424  17.800  0.00  0.00     0.104 A 
ATOM      2  C   UNL d   1     -39.530  14.584  18.594  0.00  0.00     0.018 A 
ATOM      3  C   UNL d   1     -38.977  14.131  19.007  0.00  0.00     0.059 A 
ATOM      4  C   UNL d   1     -39.278  13.816  17.416  0.00  0.00     0.012 A 
ATOM      5  C   UNL d   1     -38.574  13.520  18.626  0.00  0.00     0.005 A 
ATOM      6  C   UNL d   1     -38.725  13.363  17.830  0.00  0.00     0.001 A 
ATOM      7  C   UNL d   1     -39.426  13.656  16.623  0.00  0.00     0.001 C 
ENDROOT
BRANCH   3   8
ATOM      8  C   UNL d   1     -38.823  14.284  19.802  0.00  0.00     0.279 C 
ATOM      9  N   UNL d   1     -39.352  14.033  20.378  0.00  0.00    -0.208 NA
ATOM     10  O   UNL d   1     -38.139  14.687  20.016  0.00  0.00    -0.265 OA
BRANCH   9  11
ATOM     11  C   UNL d   1     -39.202  14.183  21.175  0.00  0.00     0.087 A 
ATOM     12  C   UNL d   1     -38.781  13.636  21.615  0.00  0.00     0.045 A 
ATOM     13  C   UNL d   1     -38.627  13.780  22.417  0.00  0.00     0.121 A 
ATOM     14  O   UNL d   1     -38.224  13.344  22.999  0.00  0.00    -0.299 OA
ATOM     15  C   UNL d   1     -38.903  14.477  22.763  0.00  0.00     0.119 A 
ATOM     16  C   UNL d   1     -38.255  13.776  23.698  0.00  0.00     0.304 A 
ATOM     17  O   UNL d   1     -38.674  14.481  23.563  0.00  0.00    -0.300 OA
ATOM     18  C   UNL d   1     -39.332  15.034  22.314  0.00  0.00     0.028 A 
ATOM     19  C   UNL d   1     -39.482  14.885  21.517  0.00  0.00     0.021 A 
ENDBRANCH   9  11
ENDBRANCH   3   8
BRANCH   1  20
ATOM     20  S   UNL d   1     -40.227  14.873  17.390  0.00  0.00     0.271 S 
ATOM     21  O   UNL d   1     -39.623  15.377  17.135  0.00  0.00    -0.200 OA
ATOM     22  O   UNL d   1     -40.922  14.292  17.683  0.00  0.00    -0.200 OA
BRANCH  20  23
ATOM     23  N   UNL d   1     -40.825  15.288  16.995  0.00  0.00    -0.229 N 
ATOM     24  C   UNL d   1     -40.797  15.529  16.204  0.00  0.00     0.092 A 
ATOM     25  C   UNL d   1     -41.505  15.922  16.042  0.00  0.00     0.021 A 
ATOM     26  C   UNL d   1     -41.962  15.919  16.734  0.00  0.00     0.021 A 
ATOM     27  C   UNL d   1     -41.540  15.530  17.313  0.00  0.00     0.092 A 
ENDBRANCH  20  23
ENDBRANCH   1  20
TORSDOF 4
ENDMDL
MODEL 5
REMARK VINA RESULT:      -6.0      7.722      9.595
REMARK  4 active torsions:
REMARK  status: ('A' for Active; 'I' for Inactive)
REMARK    1  A    between atoms: C_2  and  S_1 
REMARK    2  A    between atoms: N_3  and  S_1 
REMARK    3  A    between atoms: C_4  and  C_6 
REMARK       I    between atoms: N_7  and  C_4 
REMARK    4  A    between atoms: C_14  and  N_7 
ROOT
ATOM      1  C   UNL d   1     -39.776  15.197  20.562  0.00  0.00     0.104 A 
ATOM      2  C   UNL d   1     -39.354  15.105  19.862  0.00  0.00     0.018 A 
ATOM      3  C   UNL d   1     -39.651  15.419  19.159  0.00  0.00     0.059 A 
ATOM      4  C   UNL d   1     -40.494  15.600  20.565  0.00  0.00     0.012 A 
ATOM      5  C   UNL d   1     -40.370  15.824  19.157  0.00  0.00     0.005 A 
ATOM      6  C   UNL d   1     -40.791  15.914  19.861  0.00  0.00     0.001 A 
ATOM      7  C   UNL d   1     -40.916  15.693  21.265  0.00  0.00     0.001 C 
ENDROOT
BRANCH   3   8
ATOM      8  C   UNL d   1     -39.235  15.331  18.453  0.00  0.00     0.279 C 
ATOM      9  N   UNL d   1     -39.615  15.041  17.786  0.00  0.00    -0.208 NA
ATOM     10  O   UNL d   1     -38.439  15.535  18.419  0.00  0.00    -0.265 OA
BRANCH   9  11
ATOM     11  C   UNL d   1     -39.204  14.951  17.077  0.00  0.00     0.087 A 
ATOM     12  C   UNL d   1     -39.004  14.200  16.820  0.00  0.00     0.045 A 
ATOM     13  C   UNL d   1     -38.590  14.103  16.108  0.00  0.00     0.121 A 
ATOM     14  O   UNL d   1     -38.313  13.428  15.707  0.00  0.00    -0.299 OA
ATOM     15  C   UNL d   1     -38.385  14.767  15.665  0.00  0.00     0.119 A 
ATOM     16  C   UNL d   1     -37.940  13.685  15.021  0.00  0.00     0.304 A 
ATOM     17  O   UNL d   1     -37.978  14.515  14.985  0.00  0.00    -0.300 OA
ATOM     18  C   UNL d   1     -38.589  15.533  15.927  0.00  0.00     0.028 A 
ATOM     19  C   UNL d   1     -39.000  15.623  16.636  0.00  0.00     0.021 A 
ENDBRANCH   9  11
ENDBRANCH   3   8
BRANCH   1  20
ATOM     20  S   UNL d   1     -39.481  14.886  21.260  0.00  0.00     0.271 S 
ATOM     21  O   UNL d   1     -39.202  15.634  21.476  0.00  0.00    -0.200 OA
ATOM     22  O   UNL d   1     -39.803  14.025  21.012  0.00  0.00    -0.200 OA
BRANCH  20  23
ATOM     23  N   UNL d   1     -39.205  14.516  21.947  0.00  0.00    -0.229 N 
ATOM     24  C   UNL d   1     -39.033  13.710  22.020  0.00  0.00     0.092 A 
ATOM     25  C   UNL d   1     -38.776  13.583  22.794  0.00  0.00     0.021 A 
ATOM     26  C   UNL d   1     -38.791  14.311  23.191  0.00  0.00     0.021 A 
ATOM     27  C   UNL d   1     -39.055  14.878  22.667  0.00  0.00     0.092 A 
ENDBRANCH  20  23
ENDBRANCH   1  20
TORSDOF 4
ENDMDL
MODEL 6
REMARK VINA RESULT:      -5.7      8.504      9.640
REMARK  4 active torsions:
REMARK  status: ('A' for Active; 'I' for Inactive)
REMARK    1  A    between atoms: C_2  and  S_1 
REMARK    2  A    between atoms: N_3  and  S_1 
REMARK    3  A    between atoms: C_4  and  C_6 
REMARK       I    between atoms: N_7  and  C_4 
REMARK    4  A    between atoms: C_14  and  N_7 
ROOT
ATOM      1  C   UNL d   1     -39.706  15.022  17.803  0.00  0.00     0.104 A 
ATOM      2  C   UNL d   1     -39.391  15.081  18.561  0.00  0.00     0.018 A 
ATOM      3  C   UNL d   1     -39.844  15.409  19.169  0.00  0.00     0.059 A 
ATOM      4  C   UNL d   1     -40.470  15.286  17.647  0.00  0.00     0.012 A 
ATOM      5  C   UNL d   1     -40.610  15.675  19.017  0.00  0.00     0.005 A 
ATOM      6  C   UNL d   1     -40.923  15.613  18.256  0.00  0.00     0.001 A 
ATOM      7  C   UNL d   1     -40.785  15.226  16.890  0.00  0.00     0.001 C 
ENDROOT
BRANCH   3   8
ATOM      8  C   UNL d   1     -39.537  15.472  19.931  0.00  0.00     0.279 C 
ATOM      9  N   UNL d   1     -39.909  15.092  20.556  0.00  0.00    -0.208 NA
ATOM     10  O   UNL d   1     -38.858  15.917  20.062  0.00  0.00    -0.265 OA
BRANCH   9  11
ATOM     11  C   UNL d   1     -39.606  15.153  21.321  0.00  0.00     0.087 A 
ATOM     12  C   UNL d   1     -39.221  14.511  21.653  0.00  0.00     0.045 A 
ATOM     13  C   UNL d   1     -38.914  14.565  22.421  0.00  0.00     0.121 A 
ATOM     14  O   UNL d   1     -38.504  14.023  22.901  0.00  0.00    -0.299 OA
ATOM     15  C   UNL d   1     -39.002  15.268  22.843  0.00  0.00     0.119 A 
ATOM     16  C   UNL d   1     -38.343  14.398  23.614  0.00  0.00     0.304 A 
ATOM     17  O   UNL d   1     -38.647  15.172  23.590  0.00  0.00    -0.300 OA
ATOM     18  C   UNL d   1     -39.395  15.922  22.505  0.00  0.00     0.028 A 
ATOM     19  C   UNL d   1     -39.697  15.862  21.740  0.00  0.00     0.021 A 
ENDBRANCH   9  11
ENDBRANCH   3   8
BRANCH   1  20
ATOM     20  S   UNL d   1     -39.257  14.697  17.200  0.00  0.00     0.271 S 
ATOM     21  O   UNL d   1     -39.586  13.954  17.355  0.00  0.00    -0.200 OA
ATOM     22  O   UNL d   1     -38.879  15.552  17.021  0.00  0.00    -0.200 OA
BRANCH  20  23
ATOM     23  N   UNL d   1     -38.780  14.426  16.580  0.00  0.00    -0.229 N 
ATOM     24  C   UNL d   1     -38.632  13.631  16.403  0.00  0.00     0.092 A 
ATOM     25  C   UNL d   1     -38.131  13.614  15.747  0.00  0.00     0.021 A 
ATOM     26  C   UNL d   1     -37.975  14.398  15.525  0.00  0.00     0.021 A 
ATOM     27  C   UNL d   1     -38.375  14.889  16.039  0.00  0.00     0.092 A 
ENDBRANCH  20  23
ENDBRANCH   1  20
TORSDOF 4
ENDMDL
