MODEL 1
REMARK VINA RESULT:      -4.2      0.000      0.000
REMARK  4 active torsions:
REMARK  status: ('A' for Active; 'I' for Inactive)
REMARK    1  A    between atoms: C_7  and  C_2 
REMARK    2  A    between atoms: C_6  and  C_3 
REMARK    3  A    between atoms: C_9  and  C_6 
REMARK    4  A    between atoms: O_15  and  C_10 
ROOT
ATOM      1  N   UNL d   1      58.449  -0.553  28.652  0.00  0.00    -0.201 NA
ATOM      2  C   UNL d   1      58.829  -0.986  29.239  0.00  0.00     0.114 A 
ATOM      3  C   UNL d   1      58.279   0.090  29.787  0.00  0.00     0.089 A 
ATOM      4  C   UNL d   1      58.110   0.106  28.979  0.00  0.00     0.286 A 
ATOM      5  S   UNL d   1      58.719  -0.575  29.957  0.00  0.00    -0.063 SA
ATOM      6  O   UNL d   1      57.679   0.682  28.575  0.00  0.00    -0.265 OA
ENDROOT
BRANCH   3   7
ATOM      7  C   UNL d   1      58.049   0.647  30.347  0.00  0.00     0.011 C 
BRANCH   7   8
ATOM      8  C   UNL d   1      57.696   0.434  31.064  0.00  0.00     0.001 A 
ATOM      9  C   UNL d   1      57.014   0.005  31.102  0.00  0.00     0.002 A 
ATOM     10  C   UNL d   1      56.690  -0.189  31.826  0.00  0.00     0.024 A 
ATOM     11  C   UNL d   1      57.028   0.034  32.513  0.00  0.00     0.094 A 
ATOM     12  C   UNL d   1      57.728   0.475  32.490  0.00  0.00     0.024 A 
ATOM     13  C   UNL d   1      58.070   0.680  31.769  0.00  0.00     0.002 A 
BRANCH  11  14
ATOM     14  O   UNL d   1      56.691  -0.169  33.243  0.00  0.00    -0.328 OA
ATOM     15  C   UNL d   1      55.880  -0.195  33.331  0.00  0.00     0.181 C 
ENDBRANCH  11  14
ENDBRANCH   7   8
ENDBRANCH   3   7
BRANCH   2  16
ATOM     16  C   UNL d   1      59.242  -1.693  29.138  0.00  0.00     0.024 A 
ATOM     17  C   UNL d   1      58.843  -2.407  29.210  0.00  0.00     0.002 A 
ATOM     18  C   UNL d   1      59.255  -3.114  29.110  0.00  0.00     0.000 A 
ATOM     19  C   UNL d   1      60.063  -3.100  28.939  0.00  0.00     0.000 A 
ATOM     20  C   UNL d   1      60.458  -2.378  28.869  0.00  0.00     0.000 A 
ATOM     21  C   UNL d   1      60.045  -1.671  28.969  0.00  0.00     0.002 A 
ENDBRANCH   2  16
TORSDOF 4
ENDMDL
MODEL 2
REMARK VINA RESULT:      -4.2      1.462      4.274
REMARK  4 active torsions:
REMARK  status: ('A' for Active; 'I' for Inactive)
REMARK    1  A    between atoms: C_7  and  C_2 
REMARK    2  A    between atoms: C_6  and  C_3 
REMARK    3  A    between atoms: C_9  and  C_6 
REMARK    4  A    between atoms: O_15  and  C_10 
ROOT
ATOM      1  N   UNL d   1      58.363   0.435  31.020  0.00  0.00    -0.201 NA
ATOM      2  C   UNL d   1      57.706  -0.059  31.008  0.00  0.00     0.114 A 
ATOM      3  C   UNL d   1      58.440  -0.292  29.926  0.00  0.00     0.089 A 
ATOM      4  C   UNL d   1      58.817   0.298  30.362  0.00  0.00     0.286 A 
ATOM      5  S   UNL d   1      57.758  -0.519  30.313  0.00  0.00    -0.063 SA
ATOM      6  O   UNL d   1      59.522   0.682  30.169  0.00  0.00    -0.265 OA
ENDROOT
BRANCH   3   7
ATOM      7  C   UNL d   1      58.694  -0.614  29.214  0.00  0.00     0.011 C 
BRANCH   7   8
ATOM      8  C   UNL d   1      59.003  -1.380  29.158  0.00  0.00     0.001 A 
ATOM      9  C   UNL d   1      58.534  -2.037  29.154  0.00  0.00     0.002 A 
ATOM     10  C   UNL d   1      58.868  -2.779  29.098  0.00  0.00     0.024 A 
ATOM     11  C   UNL d   1      59.658  -2.885  29.046  0.00  0.00     0.094 A 
ATOM     12  C   UNL d   1      60.151  -2.220  29.049  0.00  0.00     0.024 A 
ATOM     13  C   UNL d   1      59.832  -1.463  29.105  0.00  0.00     0.002 A 
BRANCH  11  14
ATOM     14  O   UNL d   1      59.987  -3.644  28.989  0.00  0.00    -0.328 OA
ATOM     15  C   UNL d   1      60.773  -3.768  29.170  0.00  0.00     0.181 C 
ENDBRANCH  11  14
ENDBRANCH   7   8
ENDBRANCH   3   7
BRANCH   2  16
ATOM     16  C   UNL d   1      57.108  -0.095  31.575  0.00  0.00     0.024 A 
ATOM     17  C   UNL d   1      56.730   0.596  31.806  0.00  0.00     0.002 A 
ATOM     18  C   UNL d   1      56.131   0.560  32.373  0.00  0.00     0.000 A 
ATOM     19  C   UNL d   1      55.918  -0.167  32.702  0.00  0.00     0.000 A 
ATOM     20  C   UNL d   1      56.304  -0.857  32.464  0.00  0.00     0.000 A 
ATOM     21  C   UNL d   1      56.902  -0.821  31.898  0.00  0.00     0.002 A 
ENDBRANCH   2  16
TORSDOF 4
ENDMDL
MODEL 3
REMARK VINA RESULT:      -3.6      2.110      4.674
REMARK  4 active torsions:
REMARK  status: ('A' for Active; 'I' for Inactive)
REMARK    1  A    between atoms: C_7  and  C_2 
REMARK    2  A    between atoms: C_6  and  C_3 
REMARK    3  A    between atoms: C_9  and  C_6 
REMARK    4  A    between atoms: O_15  and  C_10 
ROOT
ATOM      1  N   UNL d   1      56.568  -0.880  32.264  0.00  0.00    -0.201 NA
ATOM      2  C   UNL d   1      56.487  -0.100  32.511  0.00  0.00     0.114 A 
ATOM      3  C   UNL d   1      57.049  -0.115  31.308  0.00  0.00     0.089 A 
ATOM      4  C   UNL d   1      56.911  -0.897  31.529  0.00  0.00     0.286 A 
ATOM      5  S   UNL d   1      56.794   0.383  31.901  0.00  0.00    -0.063 SA
ATOM      6  O   UNL d   1      57.086  -1.574  31.091  0.00  0.00    -0.265 OA
ENDROOT
BRANCH   3   7
ATOM      7  C   UNL d   1      57.389   0.143  30.605  0.00  0.00     0.011 C 
BRANCH   7   8
ATOM      8  C   UNL d   1      58.205   0.255  30.522  0.00  0.00     0.001 A 
ATOM      9  C   UNL d   1      58.659   0.585  31.101  0.00  0.00     0.002 A 
ATOM     10  C   UNL d   1      59.461   0.682  30.989  0.00  0.00     0.024 A 
ATOM     11  C   UNL d   1      59.824   0.459  30.314  0.00  0.00     0.094 A 
ATOM     12  C   UNL d   1      59.371   0.120  29.711  0.00  0.00     0.024 A 
ATOM     13  C   UNL d   1      58.560   0.013  29.806  0.00  0.00     0.002 A 
BRANCH  11  14
ATOM     14  O   UNL d   1      60.640   0.563  30.211  0.00  0.00    -0.328 OA
ATOM     15  C   UNL d   1      61.043   0.134  29.644  0.00  0.00     0.181 C 
ENDBRANCH  11  14
ENDBRANCH   7   8
ENDBRANCH   3   7
BRANCH   2  16
ATOM     16  C   UNL d   1      56.165   0.159  33.224  0.00  0.00     0.024 A 
ATOM     17  C   UNL d   1      55.350   0.160  33.322  0.00  0.00     0.002 A 
ATOM     18  C   UNL d   1      55.028   0.420  34.035  0.00  0.00     0.000 A 
ATOM     19  C   UNL d   1      55.524   0.675  34.644  0.00  0.00     0.000 A 
ATOM     20  C   UNL d   1      56.343   0.671  34.538  0.00  0.00     0.000 A 
ATOM     21  C   UNL d   1      56.665   0.411  33.824  0.00  0.00     0.002 A 
ENDBRANCH   2  16
TORSDOF 4
ENDMDL
MODEL 4
REMARK VINA RESULT:      -2.3      2.105      3.322
REMARK  4 active torsions:
REMARK  status: ('A' for Active; 'I' for Inactive)
REMARK    1  A    between atoms: C_7  and  C_2 
REMARK    2  A    between atoms: C_6  and  C_3 
REMARK    3  A    between atoms: C_9  and  C_6 
REMARK    4  A    between atoms: O_15  and  C_10 
ROOT
ATOM      1  N   UNL d   1      57.060  -0.982  31.663  0.00  0.00    -0.201 NA
ATOM      2  C   UNL d   1      57.318  -0.234  31.441  0.00  0.00     0.114 A 
ATOM      3  C   UNL d   1      56.212  -0.109  32.164  0.00  0.00     0.089 A 
ATOM      4  C   UNL d   1      56.384  -0.914  32.105  0.00  0.00     0.286 A 
ATOM      5  S   UNL d   1      56.778   0.318  31.760  0.00  0.00    -0.063 SA
ATOM      6  O   UNL d   1      55.954  -1.537  32.433  0.00  0.00    -0.265 OA
ENDROOT
BRANCH   3   7
ATOM      7  C   UNL d   1      55.576   0.228  32.561  0.00  0.00     0.011 C 
BRANCH   7   8
ATOM      8  C   UNL d   1      55.575   0.344  33.380  0.00  0.00     0.001 A 
ATOM      9  C   UNL d   1      56.233   0.575  33.786  0.00  0.00     0.002 A 
ATOM     10  C   UNL d   1      56.201   0.681  34.594  0.00  0.00     0.024 A 
ATOM     11  C   UNL d   1      55.530   0.563  35.010  0.00  0.00     0.094 A 
ATOM     12  C   UNL d   1      54.847   0.326  34.606  0.00  0.00     0.024 A 
ATOM     13  C   UNL d   1      54.860   0.214  33.791  0.00  0.00     0.002 A 
BRANCH  11  14
ATOM     14  O   UNL d   1      55.508   0.673  35.831  0.00  0.00    -0.328 OA
ATOM     15  C   UNL d   1      56.199   0.675  36.266  0.00  0.00     0.181 C 
ENDBRANCH  11  14
ENDBRANCH   7   8
ENDBRANCH   3   7
BRANCH   2  16
ATOM     16  C   UNL d   1      57.985  -0.058  30.988  0.00  0.00     0.024 A 
ATOM     17  C   UNL d   1      58.546   0.464  31.281  0.00  0.00     0.002 A 
ATOM     18  C   UNL d   1      59.213   0.640  30.828  0.00  0.00     0.000 A 
ATOM     19  C   UNL d   1      59.311   0.290  30.087  0.00  0.00     0.000 A 
ATOM     20  C   UNL d   1      58.743  -0.234  29.798  0.00  0.00     0.000 A 
ATOM     21  C   UNL d   1      58.076  -0.410  30.251  0.00  0.00     0.002 A 
ENDBRANCH   2  16
TORSDOF 4
ENDMDL
MODEL 5
REMARK VINA RESULT:      -1.6      1.547      2.016
REMARK  4 active torsions:
REMARK  status: ('A' for Active; 'I' for Inactive)
REMARK    1  A    between atoms: C_7  and  C_2 
REMARK    2  A    between atoms: C_6  and  C_3 
REMARK    3  A    between atoms: C_9  and  C_6 
REMARK    4  A    between atoms: O_15  and  C_10 
ROOT
ATOM      1  N   UNL d   1      58.123   0.466  29.536  0.00  0.00    -0.201 NA
ATOM      2  C   UNL d   1      58.693   0.396  30.124  0.00  0.00     0.114 A 
ATOM      3  C   UNL d   1      57.508   0.583  30.693  0.00  0.00     0.089 A 
ATOM      4  C   UNL d   1      57.396   0.581  29.876  0.00  0.00     0.286 A 
ATOM      5  S   UNL d   1      58.299   0.470  30.857  0.00  0.00    -0.063 SA
ATOM      6  O   UNL d   1      56.682   0.677  29.474  0.00  0.00    -0.265 OA
ENDROOT
BRANCH   3   7
ATOM      7  C   UNL d   1      56.928   0.681  31.267  0.00  0.00     0.011 C 
BRANCH   7   8
ATOM      8  C   UNL d   1      56.675   0.061  31.753  0.00  0.00     0.001 A 
ATOM      9  C   UNL d   1      56.884  -0.707  31.620  0.00  0.00     0.002 A 
ATOM     10  C   UNL d   1      56.618  -1.297  32.118  0.00  0.00     0.024 A 
ATOM     11  C   UNL d   1      56.150  -1.142  32.745  0.00  0.00     0.094 A 
ATOM     12  C   UNL d   1      55.928  -0.359  32.894  0.00  0.00     0.024 A 
ATOM     13  C   UNL d   1      56.186   0.250  32.403  0.00  0.00     0.002 A 
BRANCH  11  14
ATOM     14  O   UNL d   1      55.886  -1.749  33.244  0.00  0.00    -0.328 OA
ATOM     15  C   UNL d   1      55.110  -2.002  33.212  0.00  0.00     0.181 C 
ENDBRANCH  11  14
ENDBRANCH   7   8
ENDBRANCH   3   7
BRANCH   2  16
ATOM     16  C   UNL d   1      59.501   0.275  30.013  0.00  0.00     0.024 A 
ATOM     17  C   UNL d   1      59.758  -0.175  29.376  0.00  0.00     0.002 A 
ATOM     18  C   UNL d   1      60.566  -0.296  29.266  0.00  0.00     0.000 A 
ATOM     19  C   UNL d   1      61.110   0.034  29.793  0.00  0.00     0.000 A 
ATOM     20  C   UNL d   1      60.843   0.485  30.431  0.00  0.00     0.000 A 
ATOM     21  C   UNL d   1      60.035   0.606  30.542  0.00  0.00     0.002 A 
ENDBRANCH   2  16
TORSDOF 4
ENDMDL
