MODEL 1
REMARK VINA RESULT:      -5.9      0.000      0.000
REMARK  5 active torsions:
REMARK  status: ('A' for Active; 'I' for Inactive)
REMARK    1  A    between atoms: N_8  and  C_1 
REMARK    2  A    between atoms: S_2  and  C_7 
REMARK    3  A    between atoms: N_9  and  S_2 
REMARK    4  A    between atoms: C_17  and  N_5 
REMARK       I    between atoms: C_10  and  N_8 
REMARK    5  A    between atoms: C_12  and  C_10 
ROOT
ATOM      1  N   UNL d   1     -47.516  13.088  22.502  0.00  0.00    -0.202 NA
ATOM      2  C   UNL d   1     -46.851  13.455  22.845  0.00  0.00     0.279 C 
ATOM      3  O   UNL d   1     -46.956  14.031  23.428  0.00  0.00    -0.265 OA
ENDROOT
BRANCH   2   4
ATOM      4  C   UNL d   1     -46.100  13.244  22.602  0.00  0.00     0.059 A 
ATOM      5  C   UNL d   1     -45.756  12.539  22.867  0.00  0.00     0.019 A 
ATOM      6  C   UNL d   1     -44.998  12.329  22.620  0.00  0.00     0.115 A 
ATOM      7  C   UNL d   1     -44.583  12.825  22.107  0.00  0.00     0.070 A 
ATOM      8  C   UNL d   1     -44.922  13.521  21.845  0.00  0.00     0.012 A 
ATOM      9 CL   UNL d   1     -43.825  12.615  21.859  0.00  0.00    -0.082 Cl
ATOM     10  C   UNL d   1     -45.685  13.739  22.089  0.00  0.00     0.006 A 
BRANCH   6  11
ATOM     11  S   UNL d   1     -44.659  11.623  22.887  0.00  0.00     0.272 S 
ATOM     12  O   UNL d   1     -45.012  11.739  23.627  0.00  0.00    -0.200 OA
ATOM     13  O   UNL d   1     -44.307  11.507  22.152  0.00  0.00    -0.200 OA
BRANCH  11  14
ATOM     14  N   UNL d   1     -44.323  10.922  23.158  0.00  0.00    -0.229 N 
ATOM     15  C   UNL d   1     -44.789  10.252  23.217  0.00  0.00     0.092 A 
ATOM     16  C   UNL d   1     -44.452   9.548  23.489  0.00  0.00     0.020 A 
ATOM     17  C   UNL d   1     -43.655   9.524  23.698  0.00  0.00     0.003 A 
ATOM     18  C   UNL d   1     -43.194  10.205  23.634  0.00  0.00     0.020 A 
ATOM     19  C   UNL d   1     -43.529  10.906  23.364  0.00  0.00     0.092 A 
ENDBRANCH  11  14
ENDBRANCH   6  11
ENDBRANCH   2   4
BRANCH   1  20
ATOM     20  C   UNL d   1     -48.267  13.302  22.747  0.00  0.00     0.160 A 
ATOM     21  C   UNL d   1     -48.635  14.033  22.630  0.00  0.00     0.298 A 
ATOM     22  N   UNL d   1     -49.379  14.000  22.967  0.00  0.00    -0.209 N 
ATOM     23  O   UNL d   1     -48.306  14.676  22.241  0.00  0.00    -0.263 OA
ATOM     24  N   UNL d   1     -49.477  13.249  23.295  0.00  0.00    -0.238 N 
ATOM     25  C   UNL d   1     -48.794  12.817  23.162  0.00  0.00     0.104 A 
ATOM     26  C   UNL d   1     -50.142  12.982  23.687  0.00  0.00     0.120 C 
ATOM     27  C   UNL d   1     -48.653  12.047  23.394  0.00  0.00     0.022 C 
BRANCH  22  28
ATOM     28  C   UNL d   1     -49.927  14.604  22.975  0.00  0.00     0.085 A 
ATOM     29  C   UNL d   1     -50.439  14.696  22.343  0.00  0.00     0.019 A 
ATOM     30  C   UNL d   1     -50.990  15.304  22.354  0.00  0.00     0.002 A 
ATOM     31  C   UNL d   1     -51.031  15.817  22.986  0.00  0.00     0.000 A 
ATOM     32  C   UNL d   1     -50.511  15.721  23.623  0.00  0.00     0.002 A 
ATOM     33  C   UNL d   1     -49.961  15.112  23.613  0.00  0.00     0.019 A 
ENDBRANCH  22  28
ENDBRANCH   1  20
TORSDOF 5
ENDMDL
MODEL 2
REMARK VINA RESULT:      -5.1      1.264      2.064
REMARK  5 active torsions:
REMARK  status: ('A' for Active; 'I' for Inactive)
REMARK    1  A    between atoms: N_8  and  C_1 
REMARK    2  A    between atoms: S_2  and  C_7 
REMARK    3  A    between atoms: N_9  and  S_2 
REMARK    4  A    between atoms: C_17  and  N_5 
REMARK       I    between atoms: C_10  and  N_8 
REMARK    5  A    between atoms: C_12  and  C_10 
ROOT
ATOM      1  N   UNL d   1     -47.515  12.921  22.498  0.00  0.00    -0.202 NA
ATOM      2  C   UNL d   1     -47.384  12.345  23.085  0.00  0.00     0.279 C 
ATOM      3  O   UNL d   1     -47.998  12.132  23.597  0.00  0.00    -0.265 OA
ENDROOT
BRANCH   2   4
ATOM      4  C   UNL d   1     -46.649  11.994  23.153  0.00  0.00     0.059 A 
ATOM      5  C   UNL d   1     -45.998  12.303  22.746  0.00  0.00     0.019 A 
ATOM      6  C   UNL d   1     -45.258  11.946  22.816  0.00  0.00     0.115 A 
ATOM      7  C   UNL d   1     -45.168  11.280  23.295  0.00  0.00     0.070 A 
ATOM      8  C   UNL d   1     -45.812  10.974  23.697  0.00  0.00     0.012 A 
ATOM      9 CL   UNL d   1     -44.428  10.923  23.365  0.00  0.00    -0.082 Cl
ATOM     10  C   UNL d   1     -46.560  11.328  23.631  0.00  0.00     0.006 A 
BRANCH   6  11
ATOM     11  S   UNL d   1     -44.609  12.259  22.407  0.00  0.00     0.272 S 
ATOM     12  O   UNL d   1     -44.443  11.507  22.105  0.00  0.00    -0.200 OA
ATOM     13  O   UNL d   1     -44.774  13.008  22.708  0.00  0.00    -0.200 OA
BRANCH  11  14
ATOM     14  N   UNL d   1     -43.964  12.566  21.999  0.00  0.00    -0.229 N 
ATOM     15  C   UNL d   1     -43.246  12.176  22.034  0.00  0.00     0.092 A 
ATOM     16  C   UNL d   1     -42.598  12.484  21.624  0.00  0.00     0.020 A 
ATOM     17  C   UNL d   1     -42.677  13.177  21.184  0.00  0.00     0.003 A 
ATOM     18  C   UNL d   1     -43.406  13.562  21.155  0.00  0.00     0.020 A 
ATOM     19  C   UNL d   1     -44.051  13.256  21.563  0.00  0.00     0.092 A 
ENDBRANCH  11  14
ENDBRANCH   6  11
ENDBRANCH   2   4
BRANCH   1  20
ATOM     20  C   UNL d   1     -48.253  13.270  22.433  0.00  0.00     0.160 A 
ATOM     21  C   UNL d   1     -48.572  13.847  22.933  0.00  0.00     0.298 A 
ATOM     22  N   UNL d   1     -49.320  14.034  22.661  0.00  0.00    -0.209 N 
ATOM     23  O   UNL d   1     -48.198  14.170  23.587  0.00  0.00    -0.263 OA
ATOM     24  N   UNL d   1     -49.469  13.575  21.991  0.00  0.00    -0.238 N 
ATOM     25  C   UNL d   1     -48.814  13.104  21.849  0.00  0.00     0.104 A 
ATOM     26  C   UNL d   1     -50.153  13.588  21.546  0.00  0.00     0.120 C 
ATOM     27  C   UNL d   1     -48.726  12.566  21.240  0.00  0.00     0.022 C 
BRANCH  22  28
ATOM     28  C   UNL d   1     -49.827  14.579  22.994  0.00  0.00     0.085 A 
ATOM     29  C   UNL d   1     -49.626  15.372  22.995  0.00  0.00     0.019 A 
ATOM     30  C   UNL d   1     -50.138  15.918  23.331  0.00  0.00     0.002 A 
ATOM     31  C   UNL d   1     -50.842  15.679  23.662  0.00  0.00     0.000 A 
ATOM     32  C   UNL d   1     -51.042  14.876  23.659  0.00  0.00     0.002 A 
ATOM     33  C   UNL d   1     -50.531  14.329  23.324  0.00  0.00     0.019 A 
ENDBRANCH  22  28
ENDBRANCH   1  20
TORSDOF 5
ENDMDL
MODEL 3
REMARK VINA RESULT:      -5.1      2.116      3.122
REMARK  5 active torsions:
REMARK  status: ('A' for Active; 'I' for Inactive)
REMARK    1  A    between atoms: N_8  and  C_1 
REMARK    2  A    between atoms: S_2  and  C_7 
REMARK    3  A    between atoms: N_9  and  S_2 
REMARK    4  A    between atoms: C_17  and  N_5 
REMARK       I    between atoms: C_10  and  N_8 
REMARK    5  A    between atoms: C_12  and  C_10 
ROOT
ATOM      1  N   UNL d   1     -46.009  13.092  22.718  0.00  0.00    -0.202 NA
ATOM      2  C   UNL d   1     -45.578  12.972  22.015  0.00  0.00     0.279 C 
ATOM      3  O   UNL d   1     -45.930  13.134  21.285  0.00  0.00    -0.265 OA
ENDROOT
BRANCH   2   4
ATOM      4  C   UNL d   1     -44.809  12.696  22.052  0.00  0.00     0.059 A 
ATOM      5  C   UNL d   1     -44.202  13.091  21.651  0.00  0.00     0.019 A 
ATOM      6  C   UNL d   1     -43.428  12.810  21.690  0.00  0.00     0.115 A 
ATOM      7  C   UNL d   1     -43.261  12.133  22.131  0.00  0.00     0.070 A 
ATOM      8  C   UNL d   1     -43.860  11.742  22.528  0.00  0.00     0.012 A 
ATOM      9 CL   UNL d   1     -42.487  11.851  22.171  0.00  0.00    -0.082 Cl
ATOM     10  C   UNL d   1     -44.642  12.020  22.493  0.00  0.00     0.006 A 
BRANCH   6  11
ATOM     11  S   UNL d   1     -42.825  13.208  21.287  0.00  0.00     0.272 S 
ATOM     12  O   UNL d   1     -42.788  13.763  21.901  0.00  0.00    -0.200 OA
ATOM     13  O   UNL d   1     -42.861  12.657  20.677  0.00  0.00    -0.200 OA
BRANCH  11  14
ATOM     14  N   UNL d   1     -42.224  13.608  20.890  0.00  0.00    -0.229 N 
ATOM     15  C   UNL d   1     -42.113  13.471  20.092  0.00  0.00     0.092 A 
ATOM     16  C   UNL d   1     -41.510  13.873  19.693  0.00  0.00     0.020 A 
ATOM     17  C   UNL d   1     -41.027  14.404  20.099  0.00  0.00     0.003 A 
ATOM     18  C   UNL d   1     -41.149  14.534  20.905  0.00  0.00     0.020 A 
ATOM     19  C   UNL d   1     -41.748  14.135  21.301  0.00  0.00     0.092 A 
ENDBRANCH  11  14
ENDBRANCH   6  11
ENDBRANCH   2   4
BRANCH   1  20
ATOM     20  C   UNL d   1     -46.778  13.368  22.677  0.00  0.00     0.160 A 
ATOM     21  C   UNL d   1     -47.463  12.913  22.581  0.00  0.00     0.298 A 
ATOM     22  N   UNL d   1     -48.105  13.418  22.570  0.00  0.00    -0.209 N 
ATOM     23  O   UNL d   1     -47.485  12.097  22.508  0.00  0.00    -0.263 OA
ATOM     24  N   UNL d   1     -47.824  14.189  22.660  0.00  0.00    -0.238 N 
ATOM     25  C   UNL d   1     -47.008  14.161  22.727  0.00  0.00     0.104 A 
ATOM     26  C   UNL d   1     -48.281  14.865  22.680  0.00  0.00     0.120 C 
ATOM     27  C   UNL d   1     -46.506  14.799  22.824  0.00  0.00     0.022 C 
BRANCH  22  28
ATOM     28  C   UNL d   1     -48.886  13.197  22.486  0.00  0.00     0.085 A 
ATOM     29  C   UNL d   1     -49.217  13.160  21.738  0.00  0.00     0.019 A 
ATOM     30  C   UNL d   1     -50.002  12.937  21.655  0.00  0.00     0.002 A 
ATOM     31  C   UNL d   1     -50.454  12.754  22.308  0.00  0.00     0.000 A 
ATOM     32  C   UNL d   1     -50.115  12.793  23.062  0.00  0.00     0.002 A 
ATOM     33  C   UNL d   1     -49.330  13.015  23.145  0.00  0.00     0.019 A 
ENDBRANCH  22  28
ENDBRANCH   1  20
TORSDOF 5
ENDMDL
MODEL 4
REMARK VINA RESULT:      -4.8      3.862      7.094
REMARK  5 active torsions:
REMARK  status: ('A' for Active; 'I' for Inactive)
REMARK    1  A    between atoms: N_8  and  C_1 
REMARK    2  A    between atoms: S_2  and  C_7 
REMARK    3  A    between atoms: N_9  and  S_2 
REMARK    4  A    between atoms: C_17  and  N_5 
REMARK       I    between atoms: C_10  and  N_8 
REMARK    5  A    between atoms: C_12  and  C_10 
ROOT
ATOM      1  N   UNL d   1     -41.862  13.281  20.910  0.00  0.00    -0.202 NA
ATOM      2  C   UNL d   1     -42.603  13.586  21.139  0.00  0.00     0.279 C 
ATOM      3  O   UNL d   1     -42.793  14.373  20.972  0.00  0.00    -0.265 OA
ENDROOT
BRANCH   2   4
ATOM      4  C   UNL d   1     -43.138  13.104  21.527  0.00  0.00     0.059 A 
ATOM      5  C   UNL d   1     -43.919  13.354  21.644  0.00  0.00     0.019 A 
ATOM      6  C   UNL d   1     -44.455  12.865  22.036  0.00  0.00     0.115 A 
ATOM      7  C   UNL d   1     -44.211  12.126  22.311  0.00  0.00     0.070 A 
ATOM      8  C   UNL d   1     -43.440  11.880  22.195  0.00  0.00     0.012 A 
ATOM      9 CL   UNL d   1     -44.747  11.638  22.703  0.00  0.00    -0.082 Cl
ATOM     10  C   UNL d   1     -42.894  12.366  21.801  0.00  0.00     0.006 A 
BRANCH   6  11
ATOM     11  S   UNL d   1     -45.235  13.119  22.151  0.00  0.00     0.272 S 
ATOM     12  O   UNL d   1     -45.035  13.371  22.914  0.00  0.00    -0.200 OA
ATOM     13  O   UNL d   1     -45.433  12.869  21.392  0.00  0.00    -0.200 OA
BRANCH  11  14
ATOM     14  N   UNL d   1     -46.009  13.373  22.269  0.00  0.00    -0.229 N 
ATOM     15  C   UNL d   1     -46.149  14.015  22.756  0.00  0.00     0.092 A 
ATOM     16  C   UNL d   1     -46.926  14.271  22.875  0.00  0.00     0.020 A 
ATOM     17  C   UNL d   1     -47.551  13.880  22.506  0.00  0.00     0.003 A 
ATOM     18  C   UNL d   1     -47.399  13.232  22.018  0.00  0.00     0.020 A 
ATOM     19  C   UNL d   1     -46.626  12.979  21.899  0.00  0.00     0.092 A 
ENDBRANCH  11  14
ENDBRANCH   6  11
ENDBRANCH   2   4
BRANCH   1  20
ATOM     20  C   UNL d   1     -41.329  13.766  20.522  0.00  0.00     0.160 A 
ATOM     21  C   UNL d   1     -41.293  13.908  19.707  0.00  0.00     0.298 A 
ATOM     22  N   UNL d   1     -40.677  14.427  19.567  0.00  0.00    -0.209 N 
ATOM     23  O   UNL d   1     -41.792  13.583  19.144  0.00  0.00    -0.263 OA
ATOM     24  N   UNL d   1     -40.327  14.609  20.292  0.00  0.00    -0.238 N 
ATOM     25  C   UNL d   1     -40.727  14.204  20.881  0.00  0.00     0.104 A 
ATOM     26  C   UNL d   1     -39.691  15.109  20.404  0.00  0.00     0.120 C 
ATOM     27  C   UNL d   1     -40.564  14.225  21.682  0.00  0.00     0.022 C 
BRANCH  22  28
ATOM     28  C   UNL d   1     -40.449  14.712  18.837  0.00  0.00     0.085 A 
ATOM     29  C   UNL d   1     -39.967  14.257  18.357  0.00  0.00     0.019 A 
ATOM     30  C   UNL d   1     -39.739  14.546  17.624  0.00  0.00     0.002 A 
ATOM     31  C   UNL d   1     -39.988  15.279  17.370  0.00  0.00     0.000 A 
ATOM     32  C   UNL d   1     -40.476  15.736  17.858  0.00  0.00     0.002 A 
ATOM     33  C   UNL d   1     -40.704  15.447  18.592  0.00  0.00     0.019 A 
ENDBRANCH  22  28
ENDBRANCH   1  20
TORSDOF 5
ENDMDL
MODEL 5
REMARK VINA RESULT:      -3.9      3.914      5.664
REMARK  5 active torsions:
REMARK  status: ('A' for Active; 'I' for Inactive)
REMARK    1  A    between atoms: N_8  and  C_1 
REMARK    2  A    between atoms: S_2  and  C_7 
REMARK    3  A    between atoms: N_9  and  S_2 
REMARK    4  A    between atoms: C_17  and  N_5 
REMARK       I    between atoms: C_10  and  N_8 
REMARK    5  A    between atoms: C_12  and  C_10 
ROOT
ATOM      1  N   UNL d   1     -42.955  13.335  21.856  0.00  0.00    -0.202 NA
ATOM      2  C   UNL d   1     -42.654  13.243  21.084  0.00  0.00     0.279 C 
ATOM      3  O   UNL d   1     -43.102  12.849  20.512  0.00  0.00    -0.265 OA
ENDROOT
BRANCH   2   4
ATOM      4  C   UNL d   1     -41.916  13.543  20.898  0.00  0.00     0.059 A 
ATOM      5  C   UNL d   1     -41.772  13.866  20.149  0.00  0.00     0.019 A 
ATOM      6  C   UNL d   1     -41.027  14.167  19.964  0.00  0.00     0.115 A 
ATOM      7  C   UNL d   1     -40.426  14.147  20.529  0.00  0.00     0.070 A 
ATOM      8  C   UNL d   1     -40.568  13.829  21.269  0.00  0.00     0.012 A 
ATOM      9 CL   UNL d   1     -39.681  14.449  20.345  0.00  0.00    -0.082 Cl
ATOM     10  C   UNL d   1     -41.316  13.523  21.462  0.00  0.00     0.006 A 
BRANCH   6  11
ATOM     11  S   UNL d   1     -40.888  14.489  19.214  0.00  0.00     0.272 S 
ATOM     12  O   UNL d   1     -41.038  15.245  19.516  0.00  0.00    -0.200 OA
ATOM     13  O   UNL d   1     -40.739  13.737  18.914  0.00  0.00    -0.200 OA
BRANCH  11  14
ATOM     14  N   UNL d   1     -40.750  14.813  18.470  0.00  0.00    -0.229 N 
ATOM     15  C   UNL d   1     -40.940  15.596  18.333  0.00  0.00     0.092 A 
ATOM     16  C   UNL d   1     -40.801  15.921  17.586  0.00  0.00     0.020 A 
ATOM     17  C   UNL d   1     -40.475  15.458  16.987  0.00  0.00     0.003 A 
ATOM     18  C   UNL d   1     -40.288  14.668  17.136  0.00  0.00     0.020 A 
ATOM     19  C   UNL d   1     -40.425  14.345  17.879  0.00  0.00     0.092 A 
ENDBRANCH  11  14
ENDBRANCH   6  11
ENDBRANCH   2   4
BRANCH   1  20
ATOM     20  C   UNL d   1     -43.693  13.033  22.039  0.00  0.00     0.160 A 
ATOM     21  C   UNL d   1     -44.413  13.441  22.018  0.00  0.00     0.298 A 
ATOM     22  N   UNL d   1     -45.005  12.924  22.243  0.00  0.00    -0.209 N 
ATOM     23  O   UNL d   1     -44.509  14.227  21.807  0.00  0.00    -0.263 OA
ATOM     24  N   UNL d   1     -44.657  12.193  22.404  0.00  0.00    -0.238 N 
ATOM     25  C   UNL d   1     -43.850  12.257  22.280  0.00  0.00     0.104 A 
ATOM     26  C   UNL d   1     -45.050  11.520  22.647  0.00  0.00     0.120 C 
ATOM     27  C   UNL d   1     -43.295  11.665  22.375  0.00  0.00     0.022 C 
BRANCH  22  28
ATOM     28  C   UNL d   1     -45.799  13.102  22.297  0.00  0.00     0.085 A 
ATOM     29  C   UNL d   1     -46.087  13.471  22.968  0.00  0.00     0.019 A 
ATOM     30  C   UNL d   1     -46.886  13.649  23.021  0.00  0.00     0.002 A 
ATOM     31  C   UNL d   1     -47.394  13.461  22.413  0.00  0.00     0.000 A 
ATOM     32  C   UNL d   1     -47.100  13.087  21.736  0.00  0.00     0.002 A 
ATOM     33  C   UNL d   1     -46.301  12.909  21.683  0.00  0.00     0.019 A 
ENDBRANCH  22  28
ENDBRANCH   1  20
TORSDOF 5
ENDMDL
MODEL 6
REMARK VINA RESULT:      -3.0      6.673      9.529
REMARK  5 active torsions:
REMARK  status: ('A' for Active; 'I' for Inactive)
REMARK    1  A    between atoms: N_8  and  C_1 
REMARK    2  A    between atoms: S_2  and  C_7 
REMARK    3  A    between atoms: N_9  and  S_2 
REMARK    4  A    between atoms: C_17  and  N_5 
REMARK       I    between atoms: C_10  and  N_8 
REMARK    5  A    between atoms: C_12  and  C_10 
ROOT
ATOM      1  N   UNL d   1     -39.852  14.325  18.316  0.00  0.00    -0.202 NA
ATOM      2  C   UNL d   1     -39.536  14.738  18.968  0.00  0.00     0.279 C 
ATOM      3  O   UNL d   1     -38.731  14.927  18.983  0.00  0.00    -0.265 OA
ENDROOT
BRANCH   2   4
ATOM      4  C   UNL d   1     -40.024  14.954  19.587  0.00  0.00     0.059 A 
ATOM      5  C   UNL d   1     -40.585  14.422  19.883  0.00  0.00     0.019 A 
ATOM      6  C   UNL d   1     -41.075  14.643  20.508  0.00  0.00     0.115 A 
ATOM      7  C   UNL d   1     -41.005  15.397  20.837  0.00  0.00     0.070 A 
ATOM      8  C   UNL d   1     -40.450  15.922  20.545  0.00  0.00     0.012 A 
ATOM      9 CL   UNL d   1     -41.495  15.618  21.462  0.00  0.00    -0.082 Cl
ATOM     10  C   UNL d   1     -39.952  15.706  19.916  0.00  0.00     0.006 A 
BRANCH   6  11
ATOM     11  S   UNL d   1     -41.636  14.108  20.801  0.00  0.00     0.272 S 
ATOM     12  O   UNL d   1     -42.238  14.551  20.444  0.00  0.00    -0.200 OA
ATOM     13  O   UNL d   1     -41.037  13.668  21.156  0.00  0.00    -0.200 OA
BRANCH  11  14
ATOM     14  N   UNL d   1     -42.196  13.579  21.090  0.00  0.00    -0.229 N 
ATOM     15  C   UNL d   1     -42.989  13.726  20.959  0.00  0.00     0.092 A 
ATOM     16  C   UNL d   1     -43.552  13.194  21.249  0.00  0.00     0.020 A 
ATOM     17  C   UNL d   1     -43.313  12.524  21.666  0.00  0.00     0.003 A 
ATOM     18  C   UNL d   1     -42.509  12.386  21.793  0.00  0.00     0.020 A 
ATOM     19  C   UNL d   1     -41.950  12.915  21.504  0.00  0.00     0.092 A 
ENDBRANCH  11  14
ENDBRANCH   6  11
ENDBRANCH   2   4
BRANCH   1  20
ATOM     20  C   UNL d   1     -39.360  14.111  17.698  0.00  0.00     0.160 A 
ATOM     21  C   UNL d   1     -39.259  14.516  16.983  0.00  0.00     0.298 A 
ATOM     22  N   UNL d   1     -38.717  14.104  16.532  0.00  0.00    -0.209 N 
ATOM     23  O   UNL d   1     -39.641  15.210  16.771  0.00  0.00    -0.263 OA
ATOM     24  N   UNL d   1     -38.478  13.441  16.963  0.00  0.00    -0.238 N 
ATOM     25  C   UNL d   1     -38.872  13.443  17.681  0.00  0.00     0.104 A 
ATOM     26  C   UNL d   1     -37.940  12.879  16.715  0.00  0.00     0.120 C 
ATOM     27  C   UNL d   1     -38.800  12.888  18.276  0.00  0.00     0.022 C 
BRANCH  22  28
ATOM     28  C   UNL d   1     -38.459  14.312  15.786  0.00  0.00     0.085 A 
ATOM     29  C   UNL d   1     -38.241  15.086  15.635  0.00  0.00     0.019 A 
ATOM     30  C   UNL d   1     -37.982  15.294  14.885  0.00  0.00     0.002 A 
ATOM     31  C   UNL d   1     -37.940  14.738  14.291  0.00  0.00     0.000 A 
ATOM     32  C   UNL d   1     -38.161  13.956  14.448  0.00  0.00     0.002 A 
ATOM     33  C   UNL d   1     -38.421  13.748  15.198  0.00  0.00     0.019 A 
ENDBRANCH  22  28
ENDBRANCH   1  20
TORSDOF 5
ENDMDL
