MODEL 1
REMARK VINA RESULT:      57.4      0.000      0.000
REMARK  3 active torsions:
REMARK  status: ('A' for Active; 'I' for Inactive)
REMARK    1  A    between atoms: C_7  and  C_1 
REMARK    2  A    between atoms: N_5  and  C_9 
REMARK    3  A    between atoms: C_14  and  C_7 
ROOT
ATOM      1  C   UNL d   1     -51.945  24.947  33.320  0.00  0.00     0.139 A 
ATOM      2  C   UNL d   1     -52.822  23.943  33.318  0.00  0.00     0.064 A 
ATOM      3  C   UNL d   1     -52.018  24.123  33.315  0.00  0.00     0.220 A 
ATOM      4  C   UNL d   1     -53.250  24.650  33.326  0.00  0.00     0.106 A 
ATOM      5  O   UNL d   1     -52.704  25.273  33.327  0.00  0.00    -0.304 OA
ATOM      6  C   UNL d   1     -54.066  24.629  33.331  0.00  0.00     0.067 A 
ATOM      7  C   UNL d   1     -53.218  23.220  33.316  0.00  0.00     0.009 A 
ATOM      8  O   UNL d   1     -51.389  23.586  33.307  0.00  0.00    -0.284 OA
ATOM      9  C   UNL d   1     -54.463  23.905  33.328  0.00  0.00     0.198 A 
ATOM     10  C   UNL d   1     -54.039  23.206  33.321  0.00  0.00     0.042 A 
ATOM     11  O   UNL d   1     -55.288  23.889  33.333  0.00  0.00    -0.286 OA
ENDROOT
BRANCH   1  12
ATOM     12  C   UNL d   1     -51.239  25.375  33.318  0.00  0.00     0.028 C 
BRANCH  12  13
ATOM     13  C   UNL d   1     -51.044  25.871  33.955  0.00  0.00     0.002 A 
ATOM     14  C   UNL d   1     -50.743  26.620  33.802  0.00  0.00     0.002 A 
ATOM     15  C   UNL d   1     -50.547  27.120  34.422  0.00  0.00     0.024 A 
ATOM     16  C   UNL d   1     -50.653  26.867  35.211  0.00  0.00     0.127 A 
ATOM     17  C   UNL d   1     -50.957  26.111  35.360  0.00  0.00     0.024 A 
ATOM     18  C   UNL d   1     -51.152  25.615  34.725  0.00  0.00     0.002 A 
BRANCH  16  19
ATOM     19  N   UNL d   1     -50.454  27.374  35.834  0.00  0.00    -0.114 N 
ATOM     20  O   UNL d   1     -50.285  27.055  36.578  0.00  0.00    -0.532 OA
ATOM     21  O   UNL d   1     -50.421  28.187  35.725  0.00  0.00    -0.532 OA
ENDBRANCH  16  19
ENDBRANCH  12  13
ENDBRANCH   1  12
TORSDOF 3
ENDMDL
MODEL 2
REMARK VINA RESULT:      59.1      4.711      6.939
REMARK  3 active torsions:
REMARK  status: ('A' for Active; 'I' for Inactive)
REMARK    1  A    between atoms: C_7  and  C_1 
REMARK    2  A    between atoms: N_5  and  C_9 
REMARK    3  A    between atoms: C_14  and  C_7 
ROOT
ATOM      1  C   UNL d   1     -47.653  29.996  35.500  0.00  0.00     0.139 A 
ATOM      2  C   UNL d   1     -48.274  28.837  35.721  0.00  0.00     0.064 A 
ATOM      3  C   UNL d   1     -47.896  29.469  36.091  0.00  0.00     0.220 A 
ATOM      4  C   UNL d   1     -48.267  28.966  34.905  0.00  0.00     0.106 A 
ATOM      5  O   UNL d   1     -47.882  29.687  34.769  0.00  0.00    -0.304 OA
ATOM      6  C   UNL d   1     -48.609  28.418  34.405  0.00  0.00     0.067 A 
ATOM      7  C   UNL d   1     -48.623  28.157  36.029  0.00  0.00     0.009 A 
ATOM      8  O   UNL d   1     -47.776  29.570  36.902  0.00  0.00    -0.284 OA
ATOM      9  C   UNL d   1     -48.959  27.737  34.714  0.00  0.00     0.198 A 
ATOM     10  C   UNL d   1     -48.965  27.609  35.522  0.00  0.00     0.042 A 
ATOM     11  O   UNL d   1     -49.303  27.186  34.205  0.00  0.00    -0.286 OA
ENDROOT
BRANCH   1  12
ATOM     12  C   UNL d   1     -47.252  30.708  35.616  0.00  0.00     0.028 C 
BRANCH  12  13
ATOM     13  C   UNL d   1     -47.378  31.351  35.107  0.00  0.00     0.002 A 
ATOM     14  C   UNL d   1     -46.733  31.786  34.843  0.00  0.00     0.002 A 
ATOM     15  C   UNL d   1     -46.843  32.424  34.339  0.00  0.00     0.024 A 
ATOM     16  C   UNL d   1     -47.614  32.632  34.094  0.00  0.00     0.127 A 
ATOM     17  C   UNL d   1     -48.262  32.192  34.362  0.00  0.00     0.024 A 
ATOM     18  C   UNL d   1     -48.137  31.549  34.871  0.00  0.00     0.002 A 
BRANCH  16  19
ATOM     19  N   UNL d   1     -47.721  33.277  33.586  0.00  0.00    -0.114 N 
ATOM     20  O   UNL d   1     -47.059  33.687  33.307  0.00  0.00    -0.532 OA
ATOM     21  O   UNL d   1     -48.471  33.516  33.355  0.00  0.00    -0.532 OA
ENDBRANCH  16  19
ENDBRANCH  12  13
ENDBRANCH   1  12
TORSDOF 3
ENDMDL
