MODEL 1
REMARK VINA RESULT:      44.1      0.000      0.000
REMARK  6 active torsions:
REMARK  status: ('A' for Active; 'I' for Inactive)
REMARK    1  A    between atoms: N_2  and  S_1 
REMARK    2  A    between atoms: C_5  and  S_1 
REMARK    3  A    between atoms: S_6  and  C_3 
REMARK    4  A    between atoms: C_18  and  S_6 
REMARK       I    between atoms: C_9  and  N_11 
REMARK    5  A    between atoms: N_11  and  C_19 
REMARK    6  A    between atoms: C_17  and  C_18 
ROOT
ATOM      1  N   UNL d   1      14.698  12.781  -0.878  0.00  0.00    -0.208 N 
ATOM      2  C   UNL d   1      15.351  13.254  -0.671  0.00  0.00     0.189 A 
ATOM      3  N   UNL d   1      16.041  12.831  -0.846  0.00  0.00    -0.219 NA
ATOM      4  C   UNL d   1      14.988  12.062  -1.181  0.00  0.00     0.114 A 
ATOM      5  C   UNL d   1      15.813  12.097  -1.160  0.00  0.00     0.121 A 
ENDROOT
BRANCH   1   6
ATOM      6  S   UNL d   1      13.900  12.993  -0.794  0.00  0.00     0.273 S 
ATOM      7  O   UNL d   1      13.183  13.263  -0.476  0.00  0.00    -0.200 OA
ATOM      8  O   UNL d   1      14.075  13.207  -0.022  0.00  0.00    -0.200 OA
BRANCH   6   9
ATOM      9  C   UNL d   1      13.704  12.783  -1.570  0.00  0.00     0.104 A 
ATOM     10  C   UNL d   1      13.577  13.366  -2.122  0.00  0.00     0.014 A 
ATOM     11  C   UNL d   1      13.380  13.167  -2.904  0.00  0.00     0.020 A 
ATOM     12  C   UNL d   1      13.315  12.373  -3.107  0.00  0.00     0.085 A 
ATOM     13  C   UNL d   1      13.445  11.787  -2.542  0.00  0.00     0.020 A 
ATOM     14  C   UNL d   1      13.641  11.987  -1.766  0.00  0.00     0.014 A 
BRANCH  12  15
ATOM     15  N   UNL d   1      13.119  12.163  -3.882  0.00  0.00    -0.208 NA
ATOM     16  C   UNL d   1      13.635  12.347  -4.497  0.00  0.00     0.279 C 
ATOM     17  O   UNL d   1      14.343  12.736  -4.355  0.00  0.00    -0.265 OA
ATOM     18  C   UNL d   1      13.438  12.135  -5.284  0.00  0.00     0.068 C 
ENDBRANCH  12  15
ENDBRANCH   6   9
ENDBRANCH   1   6
BRANCH   2  19
ATOM     19  S   UNL d   1      15.315  14.019  -0.346  0.00  0.00    -0.049 SA
BRANCH  19  20
ATOM     20  C   UNL d   1      14.987  14.636  -0.786  0.00  0.00     0.040 C 
BRANCH  20  21
ATOM     21  C   UNL d   1      15.244  15.409  -0.663  0.00  0.00     0.026 A 
ATOM     22  C   UNL d   1      15.897  15.559  -0.155  0.00  0.00     0.099 A 
ATOM     23  N   UNL d   1      16.167  16.324  -0.023  0.00  0.00    -0.242 NA
ATOM     24  C   UNL d   1      15.781  16.948  -0.400  0.00  0.00     0.099 A 
ATOM     25  C   UNL d   1      15.141  16.808  -0.900  0.00  0.00     0.021 A 
ATOM     26  C   UNL d   1      14.874  16.038  -1.030  0.00  0.00     0.004 A 
ENDBRANCH  20  21
ENDBRANCH  19  20
ENDBRANCH   2  19
TORSDOF 6
ENDMDL
