MODEL 1
REMARK VINA RESULT:      14.3      0.000      0.000
REMARK  4 active torsions:
REMARK  status: ('A' for Active; 'I' for Inactive)
REMARK    1  A    between atoms: N_2  and  S_1 
REMARK    2  A    between atoms: N_3  and  S_1 
REMARK    3  A    between atoms: C_8  and  N_3 
REMARK    4  A    between atoms: C_7  and  C_6 
ROOT
ATOM      1  N   UNL d   1      45.902 -16.789  44.953  0.00  0.00    -0.144 NA
ENDROOT
BRANCH   1   2
ATOM      2  S   UNL d   1      45.753 -16.004  44.750  0.00  0.00     0.351 S 
ATOM      3  O   UNL d   1      46.548 -15.793  44.700  0.00  0.00    -0.180 OA
ATOM      4  O   UNL d   1      44.960 -16.215  44.801  0.00  0.00    -0.180 OA
BRANCH   2   5
ATOM      5  N   UNL d   1      45.536 -15.235  44.551  0.00  0.00    -0.215 N 
ATOM      6  C   UNL d   1      46.120 -14.689  44.328  0.00  0.00     0.093 C 
ATOM      7  C   UNL d   1      45.901 -13.928  44.131  0.00  0.00     0.020 C 
ATOM      8  C   UNL d   1      45.137 -13.665  44.255  0.00  0.00     0.003 C 
ATOM      9  C   UNL d   1      44.581 -14.178  44.582  0.00  0.00     0.020 C 
ATOM     10  C   UNL d   1      44.789 -14.951  44.785  0.00  0.00     0.093 C 
ENDBRANCH   2   5
ENDBRANCH   1   2
BRANCH   1  11
ATOM     11  C   UNL d   1      46.039 -17.363  44.354  0.00  0.00     0.095 A 
ATOM     12  C   UNL d   1      46.090 -18.169  44.555  0.00  0.00     0.023 A 
ATOM     13  C   UNL d   1      46.212 -18.736  43.963  0.00  0.00     0.041 A 
ATOM     14  C   UNL d   1      46.290 -18.494  43.170  0.00  0.00     0.003 A 
ATOM     15  C   UNL d   1      46.239 -17.689  42.954  0.00  0.00     0.002 A 
ATOM     16  C   UNL d   1      46.109 -17.120  43.558  0.00  0.00     0.020 A 
BRANCH  13  17
ATOM     17  C   UNL d   1      46.407 -19.513  44.170  0.00  0.00     0.196 C 
ATOM     18  O   UNL d   1      46.605 -19.691  44.948  0.00  0.00    -0.287 OA
ATOM     19  C   UNL d   1      46.401 -20.105  43.594  0.00  0.00     0.045 C 
ENDBRANCH  13  17
ENDBRANCH   1  11
TORSDOF 4
ENDMDL
MODEL 2
REMARK VINA RESULT:      14.8      1.179      4.137
REMARK  4 active torsions:
REMARK  status: ('A' for Active; 'I' for Inactive)
REMARK    1  A    between atoms: N_2  and  S_1 
REMARK    2  A    between atoms: N_3  and  S_1 
REMARK    3  A    between atoms: C_8  and  N_3 
REMARK    4  A    between atoms: C_7  and  C_6 
ROOT
ATOM      1  N   UNL d   1      46.591 -16.643  44.390  0.00  0.00    -0.144 NA
ENDROOT
BRANCH   1   2
ATOM      2  S   UNL d   1      46.418 -17.389  44.086  0.00  0.00     0.351 S 
ATOM      3  O   UNL d   1      46.224 -17.718  44.816  0.00  0.00    -0.180 OA
ATOM      4  O   UNL d   1      46.612 -17.060  43.358  0.00  0.00    -0.180 OA
BRANCH   2   5
ATOM      5  N   UNL d   1      46.262 -18.109  43.719  0.00  0.00    -0.215 N 
ATOM      6  C   UNL d   1      46.323 -18.814  44.155  0.00  0.00     0.093 C 
ATOM      7  C   UNL d   1      46.168 -19.525  43.787  0.00  0.00     0.020 C 
ATOM      8  C   UNL d   1      46.061 -19.566  42.978  0.00  0.00     0.003 C 
ATOM      9  C   UNL d   1      46.111 -18.878  42.528  0.00  0.00     0.020 C 
ATOM     10  C   UNL d   1      46.267 -18.150  42.888  0.00  0.00     0.093 C 
ENDBRANCH   2   5
ENDBRANCH   1   2
BRANCH   1  11
ATOM     11  C   UNL d   1      45.974 -16.086  44.521  0.00  0.00     0.095 A 
ATOM     12  C   UNL d   1      46.092 -15.283  44.332  0.00  0.00     0.023 A 
ATOM     13  C   UNL d   1      45.480 -14.737  44.450  0.00  0.00     0.041 A 
ATOM     14  C   UNL d   1      44.752 -14.993  44.763  0.00  0.00     0.003 A 
ATOM     15  C   UNL d   1      44.620 -15.796  44.955  0.00  0.00     0.002 A 
ATOM     16  C   UNL d   1      45.241 -16.346  44.828  0.00  0.00     0.020 A 
BRANCH  13  17
ATOM     17  C   UNL d   1      45.636 -13.926  44.402  0.00  0.00     0.196 C 
ATOM     18  O   UNL d   1      46.246 -13.601  44.849  0.00  0.00    -0.287 OA
ATOM     19  C   UNL d   1      45.180 -13.448  43.908  0.00  0.00     0.045 C 
ENDBRANCH  13  17
ENDBRANCH   1  11
TORSDOF 4
ENDMDL
MODEL 3
REMARK VINA RESULT:      16.4      1.465      2.177
REMARK  4 active torsions:
REMARK  status: ('A' for Active; 'I' for Inactive)
REMARK    1  A    between atoms: N_2  and  S_1 
REMARK    2  A    between atoms: N_3  and  S_1 
REMARK    3  A    between atoms: C_8  and  N_3 
REMARK    4  A    between atoms: C_7  and  C_6 
ROOT
ATOM      1  N   UNL d   1      46.300 -14.801  44.714  0.00  0.00    -0.144 NA
ENDROOT
BRANCH   1   2
ATOM      2  S   UNL d   1      45.953 -14.127  44.390  0.00  0.00     0.351 S 
ATOM      3  O   UNL d   1      45.356 -14.077  44.954  0.00  0.00    -0.180 OA
ATOM      4  O   UNL d   1      46.551 -14.177  43.826  0.00  0.00    -0.180 OA
BRANCH   2   5
ATOM      5  N   UNL d   1      45.657 -13.456  44.017  0.00  0.00    -0.215 N 
ATOM      6  C   UNL d   1      45.650 -13.416  43.187  0.00  0.00     0.093 C 
ATOM      7  C   UNL d   1      45.357 -12.749  42.821  0.00  0.00     0.020 C 
ATOM      8  C   UNL d   1      45.171 -12.080  43.253  0.00  0.00     0.003 C 
ATOM      9  C   UNL d   1      45.283 -12.081  44.069  0.00  0.00     0.020 C 
ATOM     10  C   UNL d   1      45.580 -12.750  44.453  0.00  0.00     0.093 C 
ENDBRANCH   2   5
ENDBRANCH   1   2
BRANCH   1  11
ATOM     11  C   UNL d   1      45.876 -15.527  44.734  0.00  0.00     0.095 A 
ATOM     12  C   UNL d   1      46.271 -16.243  44.575  0.00  0.00     0.023 A 
ATOM     13  C   UNL d   1      45.856 -16.959  44.607  0.00  0.00     0.041 A 
ATOM     14  C   UNL d   1      45.044 -16.958  44.792  0.00  0.00     0.003 A 
ATOM     15  C   UNL d   1      44.636 -16.248  44.955  0.00  0.00     0.002 A 
ATOM     16  C   UNL d   1      45.063 -15.525  44.927  0.00  0.00     0.020 A 
BRANCH  13  17
ATOM     17  C   UNL d   1      46.202 -17.650  44.312  0.00  0.00     0.196 C 
ATOM     18  O   UNL d   1      46.539 -17.650  43.561  0.00  0.00    -0.287 OA
ATOM     19  C   UNL d   1      46.209 -18.336  44.773  0.00  0.00     0.045 C 
ENDBRANCH  13  17
ENDBRANCH   1  11
TORSDOF 4
ENDMDL
