MODEL 1
REMARK VINA RESULT:       9.9      0.000      0.000
REMARK  4 active torsions:
REMARK  status: ('A' for Active; 'I' for Inactive)
REMARK    1  A    between atoms: C_7  and  C_1 
REMARK    2  A    between atoms: C_8  and  C_4 
REMARK    3  A    between atoms: O_9  and  C_7 
REMARK    4  A    between atoms: C_16  and  O_9 
ROOT
ATOM      1  C   UNL d   1     -41.556-121.656 -52.488  0.00  0.00     0.098 A 
ATOM      2  C   UNL d   1     -41.398-120.940 -52.109  0.00  0.00     0.075 A 
ATOM      3  C   UNL d   1     -41.337-120.282 -53.378  0.00  0.00     0.354 A 
ATOM      4  C   UNL d   1     -41.600-121.666 -53.301  0.00  0.00     0.093 A 
ATOM      5  N   UNL d   1     -41.285-120.234 -52.544  0.00  0.00    -0.256 N 
ATOM      6  N   UNL d   1     -41.495-120.998 -53.756  0.00  0.00    -0.192 NA
ATOM      7  O   UNL d   1     -41.224-119.574 -53.817  0.00  0.00    -0.244 OA
ATOM      8  C   UNL d   1     -41.345-120.891 -51.275  0.00  0.00     0.019 C 
ATOM      9  C   UNL d   1     -41.127-119.518 -52.165  0.00  0.00     0.104 C 
ENDROOT
BRANCH   1  10
ATOM     10  C   UNL d   1     -41.660-122.323 -52.033  0.00  0.00     0.303 C 
ATOM     11  O   UNL d   1     -41.123-122.944 -52.112  0.00  0.00    -0.259 OA
BRANCH  10  12
ATOM     12  O   UNL d   1     -42.274-122.403 -51.503  0.00  0.00    -0.273 OA
BRANCH  12  13
ATOM     13  C   UNL d   1     -42.199-122.809 -50.800  0.00  0.00     0.103 A 
ATOM     14  C   UNL d   1     -41.494-123.209 -50.648  0.00  0.00     0.025 A 
ATOM     15  C   UNL d   1     -41.276-123.665 -49.972  0.00  0.00     0.002 A 
ATOM     16  C   UNL d   1     -41.734-123.805 -49.314  0.00  0.00     0.000 A 
ATOM     17  C   UNL d   1     -42.482-123.566 -49.124  0.00  0.00     0.000 A 
ATOM     18  C   UNL d   1     -43.003-123.084 -49.588  0.00  0.00     0.002 A 
ATOM     19  C   UNL d   1     -42.859-122.766 -50.314  0.00  0.00     0.025 A 
ENDBRANCH  12  13
ENDBRANCH  10  12
ENDBRANCH   1  10
BRANCH   4  20
ATOM     20  C   UNL d   1     -41.757-122.381 -53.680  0.00  0.00     0.023 A 
ATOM     21  C   UNL d   1     -42.094-122.403 -54.445  0.00  0.00     0.032 A 
ATOM     22  I   UNL d   1     -42.265-121.671 -54.812  0.00  0.00    -0.043 I 
ATOM     23  C   UNL d   1     -42.252-123.119 -54.824  0.00  0.00     0.006 A 
ATOM     24  C   UNL d   1     -42.074-123.811 -54.441  0.00  0.00     0.000 A 
ATOM     25  C   UNL d   1     -41.743-123.816 -53.690  0.00  0.00     0.000 A 
ATOM     26  C   UNL d   1     -41.586-123.100 -53.311  0.00  0.00     0.002 A 
ENDBRANCH   4  20
TORSDOF 4
ENDMDL
MODEL 2
REMARK VINA RESULT:      10.6      2.401      4.332
REMARK  4 active torsions:
REMARK  status: ('A' for Active; 'I' for Inactive)
REMARK    1  A    between atoms: C_7  and  C_1 
REMARK    2  A    between atoms: C_8  and  C_4 
REMARK    3  A    between atoms: O_9  and  C_7 
REMARK    4  A    between atoms: C_16  and  O_9 
ROOT
ATOM      1  C   UNL d   1     -42.313-123.120 -49.442  0.00  0.00     0.098 A 
ATOM      2  C   UNL d   1     -41.818-123.376 -48.834  0.00  0.00     0.075 A 
ATOM      3  C   UNL d   1     -42.685-122.768 -47.873  0.00  0.00     0.354 A 
ATOM      4  C   UNL d   1     -42.980-122.695 -49.249  0.00  0.00     0.093 A 
ATOM      5  N   UNL d   1     -41.990-123.207 -48.032  0.00  0.00    -0.256 N 
ATOM      6  N   UNL d   1     -43.180-122.512 -48.481  0.00  0.00    -0.192 NA
ATOM      7  O   UNL d   1     -42.860-122.597 -47.068  0.00  0.00    -0.244 OA
ATOM      8  C   UNL d   1     -41.123-123.815 -48.993  0.00  0.00     0.019 C 
ATOM      9  C   UNL d   1     -41.495-123.463 -47.424  0.00  0.00     0.104 C 
ENDROOT
BRANCH   1  10
ATOM     10  C   UNL d   1     -42.113-123.303 -50.210  0.00  0.00     0.303 C 
ATOM     11  O   UNL d   1     -42.632-123.766 -50.654  0.00  0.00    -0.259 OA
BRANCH  10  12
ATOM     12  O   UNL d   1     -41.423-123.048 -50.559  0.00  0.00    -0.273 OA
BRANCH  12  13
ATOM     13  C   UNL d   1     -41.342-122.961 -51.365  0.00  0.00     0.103 A 
ATOM     14  C   UNL d   1     -41.341-122.199 -51.682  0.00  0.00     0.025 A 
ATOM     15  C   UNL d   1     -41.267-121.958 -52.487  0.00  0.00     0.002 A 
ATOM     16  C   UNL d   1     -41.179-122.446 -53.133  0.00  0.00     0.000 A 
ATOM     17  C   UNL d   1     -41.138-123.251 -53.192  0.00  0.00     0.000 A 
ATOM     18  C   UNL d   1     -41.180-123.817 -52.562  0.00  0.00     0.002 A 
ATOM     19  C   UNL d   1     -41.269-123.668 -51.775  0.00  0.00     0.025 A 
ENDBRANCH  12  13
ENDBRANCH  10  12
ENDBRANCH   1  10
BRANCH   4  20
ATOM     20  C   UNL d   1     -43.475-122.439 -49.858  0.00  0.00     0.023 A 
ATOM     21  C   UNL d   1     -44.196-122.830 -50.025  0.00  0.00     0.032 A 
ATOM     22  I   UNL d   1     -44.395-123.490 -49.552  0.00  0.00    -0.043 I 
ATOM     23  C   UNL d   1     -44.691-122.574 -50.634  0.00  0.00     0.006 A 
ATOM     24  C   UNL d   1     -44.468-121.931 -51.073  0.00  0.00     0.000 A 
ATOM     25  C   UNL d   1     -43.766-121.530 -50.929  0.00  0.00     0.000 A 
ATOM     26  C   UNL d   1     -43.271-121.786 -50.321  0.00  0.00     0.002 A 
ENDBRANCH   4  20
TORSDOF 4
ENDMDL
MODEL 3
REMARK VINA RESULT:      11.7      1.069      2.532
REMARK  4 active torsions:
REMARK  status: ('A' for Active; 'I' for Inactive)
REMARK    1  A    between atoms: C_7  and  C_1 
REMARK    2  A    between atoms: C_8  and  C_4 
REMARK    3  A    between atoms: O_9  and  C_7 
REMARK    4  A    between atoms: C_16  and  O_9 
ROOT
ATOM      1  C   UNL d   1     -41.679-122.393 -52.248  0.00  0.00     0.098 A 
ATOM      2  C   UNL d   1     -41.764-123.089 -52.683  0.00  0.00     0.075 A 
ATOM      3  C   UNL d   1     -41.467-122.374 -53.885  0.00  0.00     0.354 A 
ATOM      4  C   UNL d   1     -41.490-121.706 -52.643  0.00  0.00     0.093 A 
ATOM      5  N   UNL d   1     -41.660-123.098 -53.513  0.00  0.00    -0.256 N 
ATOM      6  N   UNL d   1     -41.382-121.678 -53.450  0.00  0.00    -0.192 NA
ATOM      7  O   UNL d   1     -41.362-122.381 -54.720  0.00  0.00    -0.244 OA
ATOM      8  C   UNL d   1     -41.958-123.813 -52.311  0.00  0.00     0.019 C 
ATOM      9  C   UNL d   1     -41.745-123.794 -53.948  0.00  0.00     0.104 C 
ENDROOT
BRANCH   1  10
ATOM     10  C   UNL d   1     -41.788-122.421 -51.441  0.00  0.00     0.303 C 
ATOM     11  O   UNL d   1     -41.144-122.615 -50.963  0.00  0.00    -0.259 OA
BRANCH  10  12
ATOM     12  O   UNL d   1     -42.505-122.267 -51.087  0.00  0.00    -0.273 OA
BRANCH  12  13
ATOM     13  C   UNL d   1     -42.731-122.606 -50.382  0.00  0.00     0.103 A 
ATOM     14  C   UNL d   1     -42.225-122.544 -49.734  0.00  0.00     0.025 A 
ATOM     15  C   UNL d   1     -42.325-122.842 -48.951  0.00  0.00     0.002 A 
ATOM     16  C   UNL d   1     -42.961-123.264 -48.671  0.00  0.00     0.000 A 
ATOM     17  C   UNL d   1     -43.642-123.508 -49.032  0.00  0.00     0.000 A 
ATOM     18  C   UNL d   1     -43.872-123.376 -49.838  0.00  0.00     0.002 A 
ATOM     19  C   UNL d   1     -43.461-122.982 -50.407  0.00  0.00     0.025 A 
ENDBRANCH  12  13
ENDBRANCH  10  12
ENDBRANCH   1  10
BRANCH   4  20
ATOM     20  C   UNL d   1     -41.405-121.010 -52.209  0.00  0.00     0.023 A 
ATOM     21  C   UNL d   1     -41.514-120.260 -52.563  0.00  0.00     0.032 A 
ATOM     22  I   UNL d   1     -41.712-120.243 -53.376  0.00  0.00    -0.043 I 
ATOM     23  C   UNL d   1     -41.429-119.564 -52.128  0.00  0.00     0.006 A 
ATOM     24  C   UNL d   1     -41.237-119.616 -51.343  0.00  0.00     0.000 A 
ATOM     25  C   UNL d   1     -41.125-120.339 -50.972  0.00  0.00     0.000 A 
ATOM     26  C   UNL d   1     -41.210-121.035 -51.407  0.00  0.00     0.002 A 
ENDBRANCH   4  20
TORSDOF 4
ENDMDL
