MODEL 1
REMARK VINA RESULT:      59.0      0.000      0.000
REMARK  5 active torsions:
REMARK  status: ('A' for Active; 'I' for Inactive)
REMARK    1  A    between atoms: N_4  and  C_2 
REMARK    2  A    between atoms: S_8  and  C_3 
REMARK    3  A    between atoms: C_10  and  S_8 
REMARK    4  A    between atoms: C_9  and  C_10 
REMARK    5  A    between atoms: C_12  and  C_9 
ROOT
ATOM      1  N   UNL d   1      58.957  49.467  50.713  0.00  0.00    -0.203 NA
ATOM      2  C   UNL d   1      58.215  49.573  51.074  0.00  0.00     0.152 A 
ATOM      3  C   UNL d   1      59.626  49.440  51.172  0.00  0.00     0.196 A 
ATOM      4  C   UNL d   1      58.145  49.646  51.851  0.00  0.00     0.057 A 
ATOM      5  N   UNL d   1      59.553  49.517  51.989  0.00  0.00    -0.221 NA
ATOM      6  C   UNL d   1      58.811  49.623  52.349  0.00  0.00     0.087 A 
ATOM      7  C   UNL d   1      58.703  49.704  53.171  0.00  0.00     0.021 C 
ENDROOT
BRANCH   3   8
ATOM      8  S   UNL d   1      60.371  49.338  50.852  0.00  0.00    -0.045 SA
BRANCH   8   9
ATOM      9  C   UNL d   1      60.568  48.603  50.531  0.00  0.00     0.080 C 
BRANCH   9  10
ATOM     10  C   UNL d   1      61.349  48.300  50.557  0.00  0.00     0.202 C 
ATOM     11  O   UNL d   1      61.999  48.782  50.675  0.00  0.00    -0.286 OA
BRANCH  10  12
ATOM     12  C   UNL d   1      61.405  47.493  50.455  0.00  0.00     0.040 A 
ATOM     13  C   UNL d   1      61.710  47.196  49.715  0.00  0.00     0.003 A 
ATOM     14  C   UNL d   1      61.775  46.420  49.590  0.00  0.00     0.000 A 
ATOM     15  C   UNL d   1      61.551  45.876  50.168  0.00  0.00     0.000 A 
ATOM     16  C   UNL d   1      61.260  46.151  50.874  0.00  0.00     0.000 A 
ATOM     17  C   UNL d   1      61.181  46.949  51.033  0.00  0.00     0.003 A 
ENDBRANCH  10  12
ENDBRANCH   9  10
ENDBRANCH   8   9
ENDBRANCH   3   8
BRANCH   2  18
ATOM     18  N   UNL d   1      57.536  49.598  50.574  0.00  0.00    -0.285 N 
ATOM     19  C   UNL d   1      57.610  49.680  49.798  0.00  0.00     0.108 A 
ATOM     20  C   UNL d   1      56.946  49.707  49.285  0.00  0.00     0.142 A 
ATOM     21  O   UNL d   1      56.191  49.640  49.658  0.00  0.00    -0.300 OA
ATOM     22  C   UNL d   1      56.157  49.559  50.438  0.00  0.00     0.142 A 
ATOM     23  C   UNL d   1      56.788  49.532  50.933  0.00  0.00     0.108 A 
ENDBRANCH   2  18
TORSDOF 5
ENDMDL
MODEL 2
REMARK VINA RESULT:      60.5      1.446      4.337
REMARK  5 active torsions:
REMARK  status: ('A' for Active; 'I' for Inactive)
REMARK    1  A    between atoms: N_4  and  C_2 
REMARK    2  A    between atoms: S_8  and  C_3 
REMARK    3  A    between atoms: C_10  and  S_8 
REMARK    4  A    between atoms: C_9  and  C_10 
REMARK    5  A    between atoms: C_12  and  C_9 
ROOT
ATOM      1  N   UNL d   1      60.195  48.490  50.681  0.00  0.00    -0.203 NA
ATOM      2  C   UNL d   1      60.922  48.100  50.785  0.00  0.00     0.152 A 
ATOM      3  C   UNL d   1      60.149  49.292  50.801  0.00  0.00     0.196 A 
ATOM      4  C   UNL d   1      61.568  48.490  50.997  0.00  0.00     0.057 A 
ATOM      5  N   UNL d   1      60.828  49.702  51.024  0.00  0.00    -0.221 NA
ATOM      6  C   UNL d   1      61.555  49.312  51.128  0.00  0.00     0.087 A 
ATOM      7  C   UNL d   1      62.258  49.697  51.352  0.00  0.00     0.021 C 
ENDROOT
BRANCH   3   8
ATOM      8  S   UNL d   1      59.451  49.708  50.709  0.00  0.00    -0.045 SA
BRANCH   8   9
ATOM      9  C   UNL d   1      58.793  49.315  50.402  0.00  0.00     0.080 C 
BRANCH   9  10
ATOM     10  C   UNL d   1      58.030  49.393  50.739  0.00  0.00     0.202 C 
ATOM     11  O   UNL d   1      57.917  49.486  51.544  0.00  0.00    -0.286 OA
BRANCH  10  12
ATOM     12  C   UNL d   1      57.416  49.369  50.203  0.00  0.00     0.040 A 
ATOM     13  C   UNL d   1      57.602  49.381  49.370  0.00  0.00     0.003 A 
ATOM     14  C   UNL d   1      57.028  49.359  48.830  0.00  0.00     0.000 A 
ATOM     15  C   UNL d   1      56.235  49.323  49.054  0.00  0.00     0.000 A 
ATOM     16  C   UNL d   1      56.050  49.311  49.844  0.00  0.00     0.000 A 
ATOM     17  C   UNL d   1      56.622  49.333  50.427  0.00  0.00     0.003 A 
ENDBRANCH  10  12
ENDBRANCH   9  10
ENDBRANCH   8   9
ENDBRANCH   3   8
BRANCH   2  18
ATOM     18  N   UNL d   1      60.943  47.267  50.654  0.00  0.00    -0.285 N 
ATOM     19  C   UNL d   1      61.543  46.934  50.273  0.00  0.00     0.108 A 
ATOM     20  C   UNL d   1      61.580  46.108  50.134  0.00  0.00     0.142 A 
ATOM     21  O   UNL d   1      60.931  45.655  50.429  0.00  0.00    -0.300 OA
ATOM     22  C   UNL d   1      60.349  46.024  50.805  0.00  0.00     0.142 A 
ATOM     23  C   UNL d   1      60.308  46.814  50.941  0.00  0.00     0.108 A 
ENDBRANCH   2  18
TORSDOF 5
ENDMDL
MODEL 3
REMARK VINA RESULT:      61.7      1.227      1.852
REMARK  5 active torsions:
REMARK  status: ('A' for Active; 'I' for Inactive)
REMARK    1  A    between atoms: N_4  and  C_2 
REMARK    2  A    between atoms: S_8  and  C_3 
REMARK    3  A    between atoms: C_10  and  S_8 
REMARK    4  A    between atoms: C_9  and  C_10 
REMARK    5  A    between atoms: C_12  and  C_9 
ROOT
ATOM      1  N   UNL d   1      60.308  48.745  50.329  0.00  0.00    -0.203 NA
ATOM      2  C   UNL d   1      59.830  49.231  50.805  0.00  0.00     0.152 A 
ATOM      3  C   UNL d   1      61.066  48.574  50.564  0.00  0.00     0.196 A 
ATOM      4  C   UNL d   1      60.096  49.530  51.480  0.00  0.00     0.057 A 
ATOM      5  N   UNL d   1      61.345  48.889  51.272  0.00  0.00    -0.221 NA
ATOM      6  C   UNL d   1      60.867  49.375  51.748  0.00  0.00     0.087 A 
ATOM      7  C   UNL d   1      61.119  49.708  52.469  0.00  0.00     0.021 C 
ENDROOT
BRANCH   3   8
ATOM      8  S   UNL d   1      61.564  48.100  50.121  0.00  0.00    -0.045 SA
BRANCH   8   9
ATOM      9  C   UNL d   1      61.478  47.281  50.169  0.00  0.00     0.080 C 
BRANCH   9  10
ATOM     10  C   UNL d   1      62.036  46.754  49.830  0.00  0.00     0.202 C 
ATOM     11  O   UNL d   1      62.787  46.994  49.614  0.00  0.00    -0.286 OA
BRANCH  10  12
ATOM     12  C   UNL d   1      61.768  45.989  49.736  0.00  0.00     0.040 A 
ATOM     13  C   UNL d   1      61.737  45.663  48.948  0.00  0.00     0.003 A 
ATOM     14  C   UNL d   1      61.482  44.926  48.828  0.00  0.00     0.000 A 
ATOM     15  C   UNL d   1      61.240  44.452  49.459  0.00  0.00     0.000 A 
ATOM     16  C   UNL d   1      61.267  44.755  50.211  0.00  0.00     0.000 A 
ATOM     17  C   UNL d   1      61.526  45.515  50.367  0.00  0.00     0.003 A 
ENDBRANCH  10  12
ENDBRANCH   9  10
ENDBRANCH   8   9
ENDBRANCH   3   8
BRANCH   2  18
ATOM     18  N   UNL d   1      59.046  49.393  50.539  0.00  0.00    -0.285 N 
ATOM     19  C   UNL d   1      58.461  49.498  51.050  0.00  0.00     0.108 A 
ATOM     20  C   UNL d   1      57.676  49.660  50.803  0.00  0.00     0.142 A 
ATOM     21  O   UNL d   1      57.553  49.703  49.968  0.00  0.00    -0.300 OA
ATOM     22  C   UNL d   1      58.165  49.591  49.488  0.00  0.00     0.142 A 
ATOM     23  C   UNL d   1      58.918  49.436  49.718  0.00  0.00     0.108 A 
ENDBRANCH   2  18
TORSDOF 5
ENDMDL
