MODEL 1
REMARK VINA RESULT:      64.2      0.000      0.000
REMARK  3 active torsions:
REMARK  status: ('A' for Active; 'I' for Inactive)
REMARK    1  A    between atoms: S_7  and  C_1 
REMARK    2  A    between atoms: C_16  and  N_2 
REMARK    3  A    between atoms: C_4  and  S_7 
ROOT
ATOM      1  S   UNL d   1     -52.091  24.578  34.399  0.00  0.00    -0.028 SA
ENDROOT
BRANCH   1   2
ATOM      2  C   UNL d   1     -51.316  24.627  34.022  0.00  0.00     0.117 A 
ATOM      3  C   UNL d   1     -51.016  25.360  33.813  0.00  0.00     0.048 A 
ATOM      4  C   UNL d   1     -50.268  25.407  33.448  0.00  0.00     0.114 A 
ATOM      5  C   UNL d   1     -51.298  26.132  33.879  0.00  0.00     0.010 A 
ATOM      6  S   UNL d   1     -50.121  26.206  33.307  0.00  0.00    -0.068 SA
ATOM      7  N   UNL d   1     -49.846  24.719  33.307  0.00  0.00    -0.217 NA
ATOM      8  C   UNL d   1     -50.782  26.642  33.586  0.00  0.00     0.031 A 
ATOM      9  C   UNL d   1     -50.878  27.494  33.556  0.00  0.00     0.007 C 
ATOM     10  C   UNL d   1     -50.144  23.966  33.517  0.00  0.00     0.200 A 
ATOM     11  N   UNL d   1     -50.893  23.919  33.881  0.00  0.00    -0.217 NA
ATOM     12  C   UNL d   1     -52.048  26.368  34.219  0.00  0.00     0.001 C 
ENDBRANCH   1   2
BRANCH   1  13
ATOM     13  C   UNL d   1     -52.658  24.047  34.086  0.00  0.00     0.220 A 
ATOM     14  N   UNL d   1     -53.261  23.674  34.561  0.00  0.00    -0.186 N 
ATOM     15  N   UNL d   1     -53.719  23.189  34.074  0.00  0.00    -0.038 NA
ATOM     16  N   UNL d   1     -53.414  23.253  33.307  0.00  0.00    -0.022 NA
ATOM     17  N   UNL d   1     -52.765  23.778  33.313  0.00  0.00    -0.101 NA
BRANCH  14  18
ATOM     18  C   UNL d   1     -53.284  23.849  35.376  0.00  0.00     0.087 A 
ATOM     19  C   UNL d   1     -52.965  23.442  35.817  0.00  0.00     0.019 A 
ATOM     20  C   UNL d   1     -52.984  23.608  36.609  0.00  0.00     0.002 A 
ATOM     21  C   UNL d   1     -53.394  24.283  36.919  0.00  0.00     0.000 A 
ATOM     22  C   UNL d   1     -53.693  24.661  36.484  0.00  0.00     0.002 A 
ATOM     23  C   UNL d   1     -53.693  24.524  35.686  0.00  0.00     0.019 A 
ENDBRANCH  14  18
ENDBRANCH   1  13
TORSDOF 3
ENDMDL
