MODEL 1
REMARK VINA RESULT:      -5.9      0.000      0.000
REMARK  7 active torsions:
REMARK  status: ('A' for Active; 'I' for Inactive)
REMARK    1  A    between atoms: N_4  and  C_1 
REMARK       I    between atoms: C_3  and  N_4 
REMARK    2  A    between atoms: C_8  and  C_3 
REMARK    3  A    between atoms: S_10  and  C_5 
REMARK    4  A    between atoms: C_9  and  C_15 
REMARK       I    between atoms: N_12  and  C_9 
REMARK    5  A    between atoms: C_15  and  S_10 
REMARK    6  A    between atoms: C_17  and  N_12 
REMARK    7  A    between atoms: O_18  and  C_13 
ROOT
ATOM      1  C   UNL d   1     -44.636  12.901  21.885  0.00  0.00     0.219 A 
ATOM      2  S   UNL d   1     -44.071  13.260  21.404  0.00  0.00    -0.019 SA
ATOM      3  C   UNL d   1     -43.372  12.833  21.452  0.00  0.00     0.165 A 
ATOM      4  N   UNL d   1     -44.278  12.241  22.237  0.00  0.00    -0.120 NA
ATOM      5  N   UNL d   1     -43.497  12.199  21.969  0.00  0.00    -0.133 NA
ENDROOT
BRANCH   1   6
ATOM      6  N   UNL d   1     -45.417  13.156  21.995  0.00  0.00    -0.181 NA
ATOM      7  C   UNL d   1     -45.793  13.009  22.719  0.00  0.00     0.283 C 
ATOM      8  O   UNL d   1     -45.395  12.615  23.321  0.00  0.00    -0.265 OA
BRANCH   7   9
ATOM      9  C   UNL d   1     -46.574  13.263  22.833  0.00  0.00     0.080 A 
ATOM     10  C   UNL d   1     -47.141  12.729  23.065  0.00  0.00     0.099 A 
ATOM     11  C   UNL d   1     -47.924  12.979  23.180  0.00  0.00     0.024 A 
ATOM     12  C   UNL d   1     -48.120  13.763  23.059  0.00  0.00     0.002 A 
ATOM     13  C   UNL d   1     -47.537  14.306  22.821  0.00  0.00     0.000 A 
ATOM     14  C   UNL d   1     -46.765  14.048  22.710  0.00  0.00     0.007 A 
BRANCH  10  15
ATOM     15  O   UNL d   1     -46.948  11.932  23.190  0.00  0.00    -0.328 OA
ATOM     16  C   UNL d   1     -47.517  11.395  23.437  0.00  0.00     0.181 C 
ENDBRANCH  10  15
ENDBRANCH   7   9
ENDBRANCH   1   6
BRANCH   3  17
ATOM     17  S   UNL d   1     -42.670  13.008  21.054  0.00  0.00    -0.054 SA
BRANCH  17  18
ATOM     18  C   UNL d   1     -42.201  13.644  21.314  0.00  0.00     0.100 C 
BRANCH  18  19
ATOM     19  C   UNL d   1     -41.580  13.914  20.846  0.00  0.00     0.286 C 
ATOM     20  N   UNL d   1     -41.193  14.621  21.036  0.00  0.00    -0.208 NA
ATOM     21  O   UNL d   1     -41.333  13.484  20.180  0.00  0.00    -0.265 OA
BRANCH  20  22
ATOM     22  C   UNL d   1     -40.576  14.898  20.579  0.00  0.00     0.085 A 
ATOM     23  C   UNL d   1     -39.775  14.686  20.650  0.00  0.00     0.019 A 
ATOM     24  C   UNL d   1     -39.351  15.097  20.079  0.00  0.00     0.002 A 
ATOM     25  C   UNL d   1     -39.880  15.567  19.647  0.00  0.00     0.002 A 
ATOM     26  C   UNL d   1     -40.637  15.440  19.961  0.00  0.00     0.019 A 
ENDBRANCH  20  22
ENDBRANCH  18  19
ENDBRANCH  17  18
ENDBRANCH   3  17
TORSDOF 7
ENDMDL
MODEL 2
REMARK VINA RESULT:      -5.7      3.641      4.582
REMARK  7 active torsions:
REMARK  status: ('A' for Active; 'I' for Inactive)
REMARK    1  A    between atoms: N_4  and  C_1 
REMARK       I    between atoms: C_3  and  N_4 
REMARK    2  A    between atoms: C_8  and  C_3 
REMARK    3  A    between atoms: S_10  and  C_5 
REMARK    4  A    between atoms: C_9  and  C_15 
REMARK       I    between atoms: N_12  and  C_9 
REMARK    5  A    between atoms: C_15  and  S_10 
REMARK    6  A    between atoms: C_17  and  N_12 
REMARK    7  A    between atoms: O_18  and  C_13 
ROOT
ATOM      1  C   UNL d   1     -47.322  14.204  22.802  0.00  0.00     0.219 A 
ATOM      2  S   UNL d   1     -46.972  13.458  22.776  0.00  0.00    -0.019 SA
ATOM      3  C   UNL d   1     -46.182  13.543  22.569  0.00  0.00     0.165 A 
ATOM      4  N   UNL d   1     -46.737  14.759  22.606  0.00  0.00    -0.120 NA
ATOM      5  N   UNL d   1     -46.034  14.351  22.462  0.00  0.00    -0.133 NA
ENDROOT
BRANCH   1   6
ATOM      6  N   UNL d   1     -48.113  14.367  22.989  0.00  0.00    -0.181 NA
ATOM      7  C   UNL d   1     -48.549  14.878  22.503  0.00  0.00     0.283 C 
ATOM      8  O   UNL d   1     -48.199  15.220  21.842  0.00  0.00    -0.265 OA
BRANCH   7   9
ATOM      9  C   UNL d   1     -49.339  15.042  22.687  0.00  0.00     0.080 A 
ATOM     10  C   UNL d   1     -49.934  14.658  22.288  0.00  0.00     0.099 A 
ATOM     11  C   UNL d   1     -50.727  14.819  22.469  0.00  0.00     0.024 A 
ATOM     12  C   UNL d   1     -50.906  15.367  23.050  0.00  0.00     0.002 A 
ATOM     13  C   UNL d   1     -50.295  15.757  23.456  0.00  0.00     0.000 A 
ATOM     14  C   UNL d   1     -49.513  15.590  23.268  0.00  0.00     0.007 A 
BRANCH  10  15
ATOM     15  O   UNL d   1     -49.759  14.102  21.698  0.00  0.00    -0.328 OA
ATOM     16  C   UNL d   1     -50.321  13.556  21.453  0.00  0.00     0.181 C 
ENDBRANCH  10  15
ENDBRANCH   7   9
ENDBRANCH   1   6
BRANCH   3  17
ATOM     17  S   UNL d   1     -45.637  12.929  22.482  0.00  0.00    -0.054 SA
BRANCH  17  18
ATOM     18  C   UNL d   1     -45.620  12.316  23.044  0.00  0.00     0.100 C 
BRANCH  18  19
ATOM     19  C   UNL d   1     -44.983  11.795  23.063  0.00  0.00     0.286 C 
ATOM     20  N   UNL d   1     -45.031  11.097  23.505  0.00  0.00    -0.208 NA
ATOM     21  O   UNL d   1     -44.287  11.961  22.642  0.00  0.00    -0.265 OA
BRANCH  20  22
ATOM     22  C   UNL d   1     -44.406  10.573  23.531  0.00  0.00     0.085 A 
ATOM     23  C   UNL d   1     -44.450   9.759  23.694  0.00  0.00     0.019 A 
ATOM     24  C   UNL d   1     -43.689   9.450  23.662  0.00  0.00     0.002 A 
ATOM     25  C   UNL d   1     -43.164  10.066  23.480  0.00  0.00     0.002 A 
ATOM     26  C   UNL d   1     -43.613  10.759  23.401  0.00  0.00     0.019 A 
ENDBRANCH  20  22
ENDBRANCH  18  19
ENDBRANCH  17  18
ENDBRANCH   3  17
TORSDOF 7
ENDMDL
MODEL 3
REMARK VINA RESULT:      -5.5      1.168      1.709
REMARK  7 active torsions:
REMARK  status: ('A' for Active; 'I' for Inactive)
REMARK    1  A    between atoms: N_4  and  C_1 
REMARK       I    between atoms: C_3  and  N_4 
REMARK    2  A    between atoms: C_8  and  C_3 
REMARK    3  A    between atoms: S_10  and  C_5 
REMARK    4  A    between atoms: C_9  and  C_15 
REMARK       I    between atoms: N_12  and  C_9 
REMARK    5  A    between atoms: C_15  and  S_10 
REMARK    6  A    between atoms: C_17  and  N_12 
REMARK    7  A    between atoms: O_18  and  C_13 
ROOT
ATOM      1  C   UNL d   1     -45.968  13.300  22.655  0.00  0.00     0.219 A 
ATOM      2  S   UNL d   1     -45.461  13.480  22.031  0.00  0.00    -0.019 SA
ATOM      3  C   UNL d   1     -44.847  12.935  22.023  0.00  0.00     0.165 A 
ATOM      4  N   UNL d   1     -45.662  12.632  23.039  0.00  0.00    -0.120 NA
ATOM      5  N   UNL d   1     -44.970  12.406  22.649  0.00  0.00    -0.133 NA
ENDROOT
BRANCH   1   6
ATOM      6  N   UNL d   1     -46.657  13.714  22.859  0.00  0.00    -0.181 NA
ATOM      7  C   UNL d   1     -47.379  13.494  22.515  0.00  0.00     0.283 C 
ATOM      8  O   UNL d   1     -47.410  12.873  21.977  0.00  0.00    -0.265 OA
BRANCH   7   9
ATOM      9  C   UNL d   1     -48.069  13.905  22.716  0.00  0.00     0.080 A 
ATOM     10  C   UNL d   1     -48.686  13.509  23.066  0.00  0.00     0.099 A 
ATOM     11  C   UNL d   1     -49.380  13.917  23.269  0.00  0.00     0.024 A 
ATOM     12  C   UNL d   1     -49.438  14.718  23.115  0.00  0.00     0.002 A 
ATOM     13  C   UNL d   1     -48.805  15.120  22.757  0.00  0.00     0.000 A 
ATOM     14  C   UNL d   1     -48.122  14.706  22.560  0.00  0.00     0.007 A 
BRANCH  10  15
ATOM     15  O   UNL d   1     -48.634  12.697  23.224  0.00  0.00    -0.328 OA
ATOM     16  C   UNL d   1     -49.258  12.294  23.572  0.00  0.00     0.181 C 
ENDBRANCH  10  15
ENDBRANCH   7   9
ENDBRANCH   1   6
BRANCH   3  17
ATOM     17  S   UNL d   1     -44.221  12.919  21.485  0.00  0.00    -0.054 SA
BRANCH  17  18
ATOM     18  C   UNL d   1     -43.439  12.892  21.769  0.00  0.00     0.100 C 
BRANCH  18  19
ATOM     19  C   UNL d   1     -42.821  13.151  21.293  0.00  0.00     0.286 C 
ATOM     20  N   UNL d   1     -42.263  13.685  21.591  0.00  0.00    -0.208 NA
ATOM     21  O   UNL d   1     -42.747  12.884  20.510  0.00  0.00    -0.265 OA
BRANCH  20  22
ATOM     22  C   UNL d   1     -41.645  13.949  21.128  0.00  0.00     0.085 A 
ATOM     23  C   UNL d   1     -41.633  14.645  20.671  0.00  0.00     0.019 A 
ATOM     24  C   UNL d   1     -40.903  14.691  20.296  0.00  0.00     0.002 A 
ATOM     25  C   UNL d   1     -40.455  14.028  20.513  0.00  0.00     0.002 A 
ATOM     26  C   UNL d   1     -40.919  13.572  21.028  0.00  0.00     0.019 A 
ENDBRANCH  20  22
ENDBRANCH  18  19
ENDBRANCH  17  18
ENDBRANCH   3  17
TORSDOF 7
ENDMDL
MODEL 4
REMARK VINA RESULT:      -5.5      2.000      3.193
REMARK  7 active torsions:
REMARK  status: ('A' for Active; 'I' for Inactive)
REMARK    1  A    between atoms: N_4  and  C_1 
REMARK       I    between atoms: C_3  and  N_4 
REMARK    2  A    between atoms: C_8  and  C_3 
REMARK    3  A    between atoms: S_10  and  C_5 
REMARK    4  A    between atoms: C_9  and  C_15 
REMARK       I    between atoms: N_12  and  C_9 
REMARK    5  A    between atoms: C_15  and  S_10 
REMARK    6  A    between atoms: C_17  and  N_12 
REMARK    7  A    between atoms: O_18  and  C_13 
ROOT
ATOM      1  C   UNL d   1     -47.295  12.383  23.229  0.00  0.00     0.219 A 
ATOM      2  S   UNL d   1     -46.807  12.929  22.850  0.00  0.00    -0.019 SA
ATOM      3  C   UNL d   1     -46.033  12.657  22.880  0.00  0.00     0.165 A 
ATOM      4  N   UNL d   1     -46.813  11.764  23.497  0.00  0.00    -0.120 NA
ATOM      5  N   UNL d   1     -46.034  11.934  23.282  0.00  0.00    -0.133 NA
ENDROOT
BRANCH   1   6
ATOM      6  N   UNL d   1     -48.117  12.445  23.323  0.00  0.00    -0.181 NA
ATOM      7  C   UNL d   1     -48.615  11.987  22.844  0.00  0.00     0.283 C 
ATOM      8  O   UNL d   1     -48.298  11.478  22.282  0.00  0.00    -0.265 OA
BRANCH   7   9
ATOM      9  C   UNL d   1     -49.436  12.047  22.935  0.00  0.00     0.080 A 
ATOM     10  C   UNL d   1     -49.877  12.433  22.372  0.00  0.00     0.099 A 
ATOM     11  C   UNL d   1     -50.700  12.495  22.459  0.00  0.00     0.024 A 
ATOM     12  C   UNL d   1     -51.063  12.165  23.113  0.00  0.00     0.002 A 
ATOM     13  C   UNL d   1     -50.609  11.771  23.686  0.00  0.00     0.000 A 
ATOM     14  C   UNL d   1     -49.795  11.716  23.591  0.00  0.00     0.007 A 
BRANCH  10  15
ATOM     15  O   UNL d   1     -49.515  12.769  21.706  0.00  0.00    -0.328 OA
ATOM     16  C   UNL d   1     -49.958  13.161  21.138  0.00  0.00     0.181 C 
ENDBRANCH  10  15
ENDBRANCH   7   9
ENDBRANCH   1   6
BRANCH   3  17
ATOM     17  S   UNL d   1     -45.374  13.041  22.564  0.00  0.00    -0.054 SA
BRANCH  17  18
ATOM     18  C   UNL d   1     -44.834  12.610  22.100  0.00  0.00     0.100 C 
BRANCH  18  19
ATOM     19  C   UNL d   1     -44.166  12.983  21.796  0.00  0.00     0.286 C 
ATOM     20  N   UNL d   1     -43.482  12.544  21.638  0.00  0.00    -0.208 NA
ATOM     21  O   UNL d   1     -44.168  13.800  21.645  0.00  0.00    -0.265 OA
BRANCH  20  22
ATOM     22  C   UNL d   1     -42.814  12.904  21.336  0.00  0.00     0.085 A 
ATOM     23  C   UNL d   1     -42.721  13.207  20.567  0.00  0.00     0.019 A 
ATOM     24  C   UNL d   1     -41.962  13.517  20.505  0.00  0.00     0.002 A 
ATOM     25  C   UNL d   1     -41.576  13.411  21.231  0.00  0.00     0.002 A 
ATOM     26  C   UNL d   1     -42.108  13.031  21.742  0.00  0.00     0.019 A 
ENDBRANCH  20  22
ENDBRANCH  18  19
ENDBRANCH  17  18
ENDBRANCH   3  17
TORSDOF 7
ENDMDL
MODEL 5
REMARK VINA RESULT:      -4.8      1.065      6.133
REMARK  7 active torsions:
REMARK  status: ('A' for Active; 'I' for Inactive)
REMARK    1  A    between atoms: N_4  and  C_1 
REMARK       I    between atoms: C_3  and  N_4 
REMARK    2  A    between atoms: C_8  and  C_3 
REMARK    3  A    between atoms: S_10  and  C_5 
REMARK    4  A    between atoms: C_9  and  C_15 
REMARK       I    between atoms: N_12  and  C_9 
REMARK    5  A    between atoms: C_15  and  S_10 
REMARK    6  A    between atoms: C_17  and  N_12 
REMARK    7  A    between atoms: O_18  and  C_13 
ROOT
ATOM      1  C   UNL d   1     -42.676  12.925  21.166  0.00  0.00     0.219 A 
ATOM      2  S   UNL d   1     -43.457  13.151  21.029  0.00  0.00    -0.019 SA
ATOM      3  C   UNL d   1     -43.942  12.770  21.570  0.00  0.00     0.165 A 
ATOM      4  N   UNL d   1     -42.680  12.394  21.803  0.00  0.00    -0.120 NA
ATOM      5  N   UNL d   1     -43.461  12.298  22.053  0.00  0.00    -0.133 NA
ENDROOT
BRANCH   1   6
ATOM      6  N   UNL d   1     -42.012  13.183  20.742  0.00  0.00    -0.181 NA
ATOM      7  C   UNL d   1     -41.599  13.853  21.003  0.00  0.00     0.283 C 
ATOM      8  O   UNL d   1     -41.846  14.256  21.675  0.00  0.00    -0.265 OA
BRANCH   7   9
ATOM      9  C   UNL d   1     -40.935  14.113  20.583  0.00  0.00     0.080 A 
ATOM     10  C   UNL d   1     -40.208  14.129  20.946  0.00  0.00     0.099 A 
ATOM     11  C   UNL d   1     -39.540  14.389  20.528  0.00  0.00     0.024 A 
ATOM     12  C   UNL d   1     -39.618  14.629  19.750  0.00  0.00     0.002 A 
ATOM     13  C   UNL d   1     -40.362  14.611  19.382  0.00  0.00     0.000 A 
ATOM     14  C   UNL d   1     -41.018  14.351  19.805  0.00  0.00     0.007 A 
BRANCH  10  15
ATOM     15  O   UNL d   1     -40.123  13.887  21.735  0.00  0.00    -0.328 OA
ATOM     16  C   UNL d   1     -39.383  13.860  22.090  0.00  0.00     0.181 C 
ENDBRANCH  10  15
ENDBRANCH   7   9
ENDBRANCH   1   6
BRANCH   3  17
ATOM     17  S   UNL d   1     -44.763  12.845  21.621  0.00  0.00    -0.054 SA
BRANCH  17  18
ATOM     18  C   UNL d   1     -45.101  13.165  22.311  0.00  0.00     0.100 C 
BRANCH  18  19
ATOM     19  C   UNL d   1     -45.902  13.354  22.324  0.00  0.00     0.286 C 
ATOM     20  N   UNL d   1     -46.180  13.949  22.829  0.00  0.00    -0.208 NA
ATOM     21  O   UNL d   1     -46.441  12.952  21.836  0.00  0.00    -0.265 OA
BRANCH  20  22
ATOM     22  C   UNL d   1     -46.972  14.144  22.851  0.00  0.00     0.085 A 
ATOM     23  C   UNL d   1     -47.314  14.852  22.578  0.00  0.00     0.019 A 
ATOM     24  C   UNL d   1     -48.124  14.810  22.709  0.00  0.00     0.002 A 
ATOM     25  C   UNL d   1     -48.296  14.080  23.063  0.00  0.00     0.002 A 
ATOM     26  C   UNL d   1     -47.579  13.672  23.148  0.00  0.00     0.019 A 
ENDBRANCH  20  22
ENDBRANCH  18  19
ENDBRANCH  17  18
ENDBRANCH   3  17
TORSDOF 7
ENDMDL
MODEL 6
REMARK VINA RESULT:      -3.9      1.098      6.572
REMARK  7 active torsions:
REMARK  status: ('A' for Active; 'I' for Inactive)
REMARK    1  A    between atoms: N_4  and  C_1 
REMARK       I    between atoms: C_3  and  N_4 
REMARK    2  A    between atoms: C_8  and  C_3 
REMARK    3  A    between atoms: S_10  and  C_5 
REMARK    4  A    between atoms: C_9  and  C_15 
REMARK       I    between atoms: N_12  and  C_9 
REMARK    5  A    between atoms: C_15  and  S_10 
REMARK    6  A    between atoms: C_17  and  N_12 
REMARK    7  A    between atoms: O_18  and  C_13 
ROOT
ATOM      1  C   UNL d   1     -41.585  13.851  20.605  0.00  0.00     0.219 A 
ATOM      2  S   UNL d   1     -42.067  13.827  21.273  0.00  0.00    -0.019 SA
ATOM      3  C   UNL d   1     -42.649  13.260  21.159  0.00  0.00     0.165 A 
ATOM      4  N   UNL d   1     -41.875  13.288  20.070  0.00  0.00    -0.120 NA
ATOM      5  N   UNL d   1     -42.532  12.923  20.412  0.00  0.00    -0.133 NA
ENDROOT
BRANCH   1   6
ATOM      6  N   UNL d   1     -40.930  14.348  20.492  0.00  0.00    -0.181 NA
ATOM      7  C   UNL d   1     -40.596  14.413  19.737  0.00  0.00     0.283 C 
ATOM      8  O   UNL d   1     -40.910  13.988  19.106  0.00  0.00    -0.265 OA
BRANCH   7   9
ATOM      9  C   UNL d   1     -39.942  14.908  19.620  0.00  0.00     0.080 A 
ATOM     10  C   UNL d   1     -39.922  15.404  18.977  0.00  0.00     0.099 A 
ATOM     11  C   UNL d   1     -39.269  15.902  18.857  0.00  0.00     0.024 A 
ATOM     12  C   UNL d   1     -38.648  15.890  19.389  0.00  0.00     0.002 A 
ATOM     13  C   UNL d   1     -38.673  15.382  20.045  0.00  0.00     0.000 A 
ATOM     14  C   UNL d   1     -39.324  14.893  20.155  0.00  0.00     0.007 A 
BRANCH  10  15
ATOM     15  O   UNL d   1     -40.549  15.420  18.434  0.00  0.00    -0.328 OA
ATOM     16  C   UNL d   1     -40.529  15.919  17.783  0.00  0.00     0.181 C 
ENDBRANCH  10  15
ENDBRANCH   7   9
ENDBRANCH   1   6
BRANCH   3  17
ATOM     17  S   UNL d   1     -43.244  13.063  21.697  0.00  0.00    -0.054 SA
BRANCH  17  18
ATOM     18  C   UNL d   1     -44.012  12.910  21.418  0.00  0.00     0.100 C 
BRANCH  18  19
ATOM     19  C   UNL d   1     -44.639  12.859  21.950  0.00  0.00     0.286 C 
ATOM     20  N   UNL d   1     -45.300  13.350  21.860  0.00  0.00    -0.208 NA
ATOM     21  O   UNL d   1     -44.617  12.319  22.580  0.00  0.00    -0.265 OA
BRANCH  20  22
ATOM     22  C   UNL d   1     -45.927  13.308  22.381  0.00  0.00     0.085 A 
ATOM     23  C   UNL d   1     -46.469  12.681  22.453  0.00  0.00     0.019 A 
ATOM     24  C   UNL d   1     -47.005  12.873  23.045  0.00  0.00     0.002 A 
ATOM     25  C   UNL d   1     -46.805  13.619  23.347  0.00  0.00     0.002 A 
ATOM     26  C   UNL d   1     -46.137  13.883  22.933  0.00  0.00     0.019 A 
ENDBRANCH  20  22
ENDBRANCH  18  19
ENDBRANCH  17  18
ENDBRANCH   3  17
TORSDOF 7
ENDMDL
