MODEL 1
REMARK VINA RESULT:       6.2      0.000      0.000
REMARK  8 active torsions:
REMARK  status: ('A' for Active; 'I' for Inactive)
REMARK    1  A    between atoms: C_6  and  C_1 
REMARK    2  A    between atoms: S_11  and  C_3 
REMARK    3  A    between atoms: C_8  and  C_4 
REMARK       I    between atoms: N_10  and  C_6 
REMARK    4  A    between atoms: C_22  and  N_10 
REMARK    5  A    between atoms: C_21  and  S_11 
REMARK    6  A    between atoms: C_13  and  C_21 
REMARK    7  A    between atoms: O_20  and  C_13 
REMARK    8  A    between atoms: C_24  and  O_20 
ROOT
ATOM      1  C   UNL d   1     -42.309-122.939 -50.510  0.00  0.00     0.078 A 
ATOM      2  C   UNL d   1     -42.505-122.205 -51.695  0.00  0.00     0.094 A 
ATOM      3  C   UNL d   1     -41.813-122.527 -52.009  0.00  0.00     0.120 A 
ATOM      4  C   UNL d   1     -42.758-122.408 -50.943  0.00  0.00     0.041 A 
ATOM      5  C   UNL d   1     -41.617-123.261 -50.824  0.00  0.00     0.087 A 
ATOM      6  N   UNL d   1     -41.364-123.057 -51.576  0.00  0.00    -0.238 NA
ATOM      7  C   UNL d   1     -42.960-121.652 -52.163  0.00  0.00     0.103 C 
ATOM      8  N   UNL d   1     -43.415-121.109 -52.612  0.00  0.00    -0.191 NA
ATOM      9  C   UNL d   1     -41.144-123.812 -50.384  0.00  0.00     0.021 C 
ENDROOT
BRANCH   4  10
ATOM     10  C   UNL d   1     -43.432-122.094 -50.637  0.00  0.00     0.101 A 
ATOM     11  O   UNL d   1     -44.148-122.499 -50.578  0.00  0.00    -0.305 OA
ATOM     12  C   UNL d   1     -44.704-122.005 -50.241  0.00  0.00     0.123 A 
ATOM     13  C   UNL d   1     -44.333-121.306 -50.096  0.00  0.00     0.029 A 
ATOM     14  C   UNL d   1     -43.564-121.337 -50.327  0.00  0.00     0.027 A 
ENDBRANCH   4  10
BRANCH   3  15
ATOM     15  S   UNL d   1     -41.541-122.324 -52.785  0.00  0.00    -0.061 SA
BRANCH  15  16
ATOM     16  C   UNL d   1     -41.252-122.922 -53.287  0.00  0.00     0.105 C 
BRANCH  16  17
ATOM     17  C   UNL d   1     -41.381-122.878 -54.096  0.00  0.00     0.307 C 
ATOM     18  O   UNL d   1     -41.309-123.557 -54.552  0.00  0.00    -0.258 OA
BRANCH  17  19
ATOM     19  O   UNL d   1     -41.583-122.153 -54.444  0.00  0.00    -0.273 OA
BRANCH  19  20
ATOM     20  C   UNL d   1     -41.869-122.130 -55.210  0.00  0.00     0.103 C 
ATOM     21  C   UNL d   1     -42.570-122.521 -55.402  0.00  0.00     0.027 C 
ATOM     22  C   UNL d   1     -41.451-121.711 -55.784  0.00  0.00     0.027 C 
ENDBRANCH  19  20
ENDBRANCH  17  19
ENDBRANCH  16  17
ENDBRANCH  15  16
ENDBRANCH   3  15
BRANCH   1  23
ATOM     23  C   UNL d   1     -42.557-123.162 -49.727  0.00  0.00     0.281 C 
ATOM     24  N   UNL d   1     -42.074-122.998 -49.086  0.00  0.00    -0.208 NA
ATOM     25  O   UNL d   1     -43.282-123.540 -49.623  0.00  0.00    -0.265 OA
BRANCH  24  26
ATOM     26  C   UNL d   1     -42.324-123.220 -48.319  0.00  0.00     0.085 A 
ATOM     27  C   UNL d   1     -41.848-123.059 -47.666  0.00  0.00     0.019 A 
ATOM     28  C   UNL d   1     -42.112-123.287 -46.910  0.00  0.00     0.002 A 
ATOM     29  C   UNL d   1     -42.835-123.665 -46.822  0.00  0.00     0.000 A 
ATOM     30  C   UNL d   1     -43.292-123.815 -47.488  0.00  0.00     0.002 A 
ATOM     31  C   UNL d   1     -43.046-123.598 -48.229  0.00  0.00     0.019 A 
ENDBRANCH  24  26
ENDBRANCH   1  23
TORSDOF 8
ENDMDL
MODEL 2
REMARK VINA RESULT:       6.3      1.539      5.306
REMARK  8 active torsions:
REMARK  status: ('A' for Active; 'I' for Inactive)
REMARK    1  A    between atoms: C_6  and  C_1 
REMARK    2  A    between atoms: S_11  and  C_3 
REMARK    3  A    between atoms: C_8  and  C_4 
REMARK       I    between atoms: N_10  and  C_6 
REMARK    4  A    between atoms: C_22  and  N_10 
REMARK    5  A    between atoms: C_21  and  S_11 
REMARK    6  A    between atoms: C_13  and  C_21 
REMARK    7  A    between atoms: O_20  and  C_13 
REMARK    8  A    between atoms: C_24  and  O_20 
ROOT
ATOM      1  C   UNL d   1     -41.654-122.384 -52.675  0.00  0.00     0.078 A 
ATOM      2  C   UNL d   1     -41.404-121.927 -51.368  0.00  0.00     0.094 A 
ATOM      3  C   UNL d   1     -41.408-122.706 -51.095  0.00  0.00     0.120 A 
ATOM      4  C   UNL d   1     -41.527-121.760 -52.160  0.00  0.00     0.041 A 
ATOM      5  C   UNL d   1     -41.657-123.163 -52.402  0.00  0.00     0.087 A 
ATOM      6  N   UNL d   1     -41.535-123.330 -51.610  0.00  0.00    -0.238 NA
ATOM      7  C   UNL d   1     -41.270-121.289 -50.814  0.00  0.00     0.103 C 
ATOM      8  N   UNL d   1     -41.140-120.655 -50.280  0.00  0.00    -0.191 NA
ATOM      9  C   UNL d   1     -41.788-123.817 -52.928  0.00  0.00     0.021 C 
ENDROOT
BRANCH   4  10
ATOM     10  C   UNL d   1     -41.523-121.002 -52.426  0.00  0.00     0.101 A 
ATOM     11  O   UNL d   1     -41.944-120.384 -52.076  0.00  0.00    -0.305 OA
ATOM     12  C   UNL d   1     -41.806-119.698 -52.497  0.00  0.00     0.123 A 
ATOM     13  C   UNL d   1     -41.307-119.893 -53.096  0.00  0.00     0.029 A 
ATOM     14  C   UNL d   1     -41.123-120.675 -53.073  0.00  0.00     0.027 A 
ENDBRANCH   4  10
BRANCH   3  15
ATOM     15  S   UNL d   1     -41.282-122.890 -50.278  0.00  0.00    -0.061 SA
BRANCH  15  16
ATOM     16  C   UNL d   1     -41.746-123.478 -49.915  0.00  0.00     0.105 C 
BRANCH  16  17
ATOM     17  C   UNL d   1     -41.826-123.493 -49.099  0.00  0.00     0.307 C 
ATOM     18  O   UNL d   1     -41.206-123.775 -48.639  0.00  0.00    -0.258 OA
BRANCH  17  19
ATOM     19  O   UNL d   1     -42.527-123.225 -48.746  0.00  0.00    -0.273 OA
BRANCH  19  20
ATOM     20  C   UNL d   1     -42.824-123.599 -48.082  0.00  0.00     0.103 C 
ATOM     21  C   UNL d   1     -42.316-123.817 -47.468  0.00  0.00     0.027 C 
ATOM     22  C   UNL d   1     -43.633-123.755 -48.034  0.00  0.00     0.027 C 
ENDBRANCH  19  20
ENDBRANCH  17  19
ENDBRANCH  16  17
ENDBRANCH  15  16
ENDBRANCH   3  15
BRANCH   1  23
ATOM     23  C   UNL d   1     -41.783-122.230 -53.502  0.00  0.00     0.281 C 
ATOM     24  N   UNL d   1     -42.494-122.443 -53.849  0.00  0.00    -0.208 NA
ATOM     25  O   UNL d   1     -41.189-121.866 -53.945  0.00  0.00    -0.265 OA
BRANCH  24  26
ATOM     26  C   UNL d   1     -42.613-122.288 -54.663  0.00  0.00     0.085 A 
ATOM     27  C   UNL d   1     -43.342-122.006 -54.927  0.00  0.00     0.019 A 
ATOM     28  C   UNL d   1     -43.445-121.857 -55.739  0.00  0.00     0.002 A 
ATOM     29  C   UNL d   1     -42.827-121.989 -56.264  0.00  0.00     0.000 A 
ATOM     30  C   UNL d   1     -42.110-122.269 -55.977  0.00  0.00     0.002 A 
ATOM     31  C   UNL d   1     -41.999-122.418 -55.189  0.00  0.00     0.019 A 
ENDBRANCH  24  26
ENDBRANCH   1  23
TORSDOF 8
ENDMDL
