MODEL 1
REMARK VINA RESULT:      65.7      0.000      0.000
REMARK  4 active torsions:
REMARK  status: ('A' for Active; 'I' for Inactive)
REMARK    1  A    between atoms: N_2  and  S_1 
REMARK    2  A    between atoms: C_5  and  S_1 
REMARK    3  A    between atoms: C_4  and  C_3 
REMARK    4  A    between atoms: C_12  and  C_3 
ROOT
ATOM      1  N   UNL d   1     -50.034  25.997  33.664  0.00  0.00    -0.230 N 
ATOM      2  C   UNL d   1     -51.441  25.135  33.635  0.00  0.00     0.137 A 
ATOM      3  C   UNL d   1     -50.753  24.822  33.322  0.00  0.00     0.011 A 
ATOM      4  C   UNL d   1     -51.422  25.891  33.967  0.00  0.00     0.011 A 
ATOM      5  C   UNL d   1     -50.719  26.322  33.981  0.00  0.00     0.088 A 
ATOM      6  C   UNL d   1     -50.050  25.253  33.336  0.00  0.00     0.088 A 
ENDROOT
BRANCH   1   7
ATOM      7  S   UNL d   1     -49.331  26.428  33.679  0.00  0.00     0.271 S 
ATOM      8  O   UNL d   1     -48.608  26.040  33.624  0.00  0.00    -0.200 OA
ATOM      9  O   UNL d   1     -49.106  25.641  33.606  0.00  0.00    -0.200 OA
BRANCH   7  10
ATOM     10  C   UNL d   1     -49.352  27.249  33.749  0.00  0.00     0.104 A 
ATOM     11  C   UNL d   1     -49.887  27.683  33.310  0.00  0.00     0.013 A 
ATOM     12  C   UNL d   1     -49.914  28.507  33.375  0.00  0.00     0.001 A 
ATOM     13  C   UNL d   1     -49.387  28.891  33.895  0.00  0.00     0.000 A 
ATOM     14  C   UNL d   1     -48.849  28.446  34.335  0.00  0.00     0.001 A 
ATOM     15  C   UNL d   1     -49.414  29.716  33.960  0.00  0.00     0.000 C 
ATOM     16  C   UNL d   1     -48.834  27.630  34.261  0.00  0.00     0.013 A 
ENDBRANCH   7  10
ENDBRANCH   1   7
BRANCH   2  17
ATOM     17  C   UNL d   1     -51.953  25.679  34.006  0.00  0.00     0.196 C 
ATOM     18  O   UNL d   1     -52.411  26.190  33.561  0.00  0.00    -0.647 OA
ATOM     19  O   UNL d   1     -51.995  25.698  34.831  0.00  0.00    -0.647 OA
ENDBRANCH   2  17
BRANCH   2  20
ATOM     20  C   UNL d   1     -52.027  24.563  33.527  0.00  0.00    -0.005 A 
ATOM     21  C   UNL d   1     -51.812  23.769  33.523  0.00  0.00    -0.003 A 
ATOM     22  C   UNL d   1     -52.393  23.190  33.416  0.00  0.00    -0.000 A 
ATOM     23  C   UNL d   1     -53.186  23.407  33.314  0.00  0.00    -0.000 A 
ATOM     24  C   UNL d   1     -53.392  24.211  33.320  0.00  0.00    -0.000 A 
ATOM     25  C   UNL d   1     -52.813  24.779  33.426  0.00  0.00    -0.003 A 
ENDBRANCH   2  20
TORSDOF 4
ENDMDL
