MODEL 1
REMARK VINA RESULT:      -1.9      0.000      0.000
REMARK  5 active torsions:
REMARK  status: ('A' for Active; 'I' for Inactive)
REMARK    1  A    between atoms: N_2  and  S_1 
REMARK    2  A    between atoms: C_3  and  S_1 
REMARK    3  A    between atoms: C_15  and  C_11 
REMARK    4  A    between atoms: O_17  and  C_12 
REMARK    5  A    between atoms: C_21  and  O_17 
ROOT
ATOM      1  C   UNL d   1      32.440  22.338 -20.849  0.00  0.00     0.128 A 
ATOM      2  C   UNL d   1      32.632  22.351 -20.048  0.00  0.00     0.015 A 
ATOM      3  C   UNL d   1      32.482  23.027 -19.599  0.00  0.00     0.001 A 
ATOM      4  C   UNL d   1      32.098  22.998 -21.200  0.00  0.00     0.112 A 
ATOM      5  C   UNL d   1      32.140  23.689 -19.951  0.00  0.00     0.002 A 
ATOM      6  C   UNL d   1      31.948  23.674 -20.751  0.00  0.00     0.025 A 
ENDROOT
BRANCH   1   7
ATOM      7  S   UNL d   1      32.590  21.662 -21.298  0.00  0.00     0.288 S 
ATOM      8  O   UNL d   1      33.241  22.035 -21.642  0.00  0.00    -0.198 OA
ATOM      9  O   UNL d   1      31.940  21.289 -20.954  0.00  0.00    -0.198 OA
BRANCH   7  10
ATOM     10  N   UNL d   1      32.741  20.987 -21.747  0.00  0.00    -0.152 N 
ATOM     11  N   UNL d   1      32.627  20.906 -22.558  0.00  0.00    -0.155 NA
ATOM     12  C   UNL d   1      32.846  20.144 -22.779  0.00  0.00     0.104 A 
ATOM     13  C   UNL d   1      32.819  19.831 -23.543  0.00  0.00     0.022 C 
ATOM     14  C   UNL d   1      33.098  19.748 -22.100  0.00  0.00     0.041 A 
ATOM     15  C   UNL d   1      33.032  20.269 -21.464  0.00  0.00     0.096 A 
ATOM     16  C   UNL d   1      33.225  20.101 -20.680  0.00  0.00     0.022 C 
ENDBRANCH   7  10
ENDBRANCH   1   7
BRANCH   4  17
ATOM     17  O   UNL d   1      31.905  22.987 -22.004  0.00  0.00    -0.304 OA
BRANCH  17  18
ATOM     18  C   UNL d   1      31.940  23.680 -22.448  0.00  0.00     0.123 C 
ATOM     19  C   UNL d   1      31.684  23.684 -23.237  0.00  0.00     0.029 C 
ENDBRANCH  17  18
ENDBRANCH   4  17
BRANCH   3  20
ATOM     20  C   UNL d   1      32.673  23.042 -18.799  0.00  0.00     0.000 C 
ATOM     21  C   UNL d   1      33.060  22.394 -18.451  0.00  0.00     0.000 C 
ATOM     22  C   UNL d   1      32.481  23.700 -18.340  0.00  0.00     0.000 C 
ENDBRANCH   3  20
TORSDOF 5
ENDMDL
MODEL 2
REMARK VINA RESULT:      -1.0      1.656      4.354
REMARK  5 active torsions:
REMARK  status: ('A' for Active; 'I' for Inactive)
REMARK    1  A    between atoms: N_2  and  S_1 
REMARK    2  A    between atoms: C_3  and  S_1 
REMARK    3  A    between atoms: C_15  and  C_11 
REMARK    4  A    between atoms: O_17  and  C_12 
REMARK    5  A    between atoms: C_21  and  O_17 
ROOT
ATOM      1  C   UNL d   1      32.624  19.727 -23.180  0.00  0.00     0.128 A 
ATOM      2  C   UNL d   1      32.437  18.928 -23.110  0.00  0.00     0.015 A 
ATOM      3  C   UNL d   1      32.491  18.432 -23.767  0.00  0.00     0.001 A 
ATOM      4  C   UNL d   1      32.864  20.030 -23.906  0.00  0.00     0.112 A 
ATOM      5  C   UNL d   1      32.731  18.735 -24.494  0.00  0.00     0.002 A 
ATOM      6  C   UNL d   1      32.917  19.534 -24.564  0.00  0.00     0.025 A 
ENDROOT
BRANCH   1   7
ATOM      7  S   UNL d   1      32.570  20.223 -22.523  0.00  0.00     0.288 S 
ATOM      8  O   UNL d   1      31.900  20.580 -22.847  0.00  0.00    -0.198 OA
ATOM      9  O   UNL d   1      33.240  19.866 -22.199  0.00  0.00    -0.198 OA
BRANCH   7  10
ATOM     10  N   UNL d   1      32.516  20.719 -21.866  0.00  0.00    -0.152 N 
ATOM     11  N   UNL d   1      32.146  21.453 -21.839  0.00  0.00    -0.155 NA
ATOM     12  C   UNL d   1      32.222  21.758 -21.078  0.00  0.00     0.104 A 
ATOM     13  C   UNL d   1      31.930  22.483 -20.812  0.00  0.00     0.022 C 
ATOM     14  C   UNL d   1      32.643  21.209 -20.629  0.00  0.00     0.041 A 
ATOM     15  C   UNL d   1      32.824  20.568 -21.116  0.00  0.00     0.096 A 
ATOM     16  C   UNL d   1      33.241  19.894 -20.891  0.00  0.00     0.022 C 
ENDBRANCH   7  10
ENDBRANCH   1   7
BRANCH   4  17
ATOM     17  O   UNL d   1      33.051  20.832 -23.979  0.00  0.00    -0.304 OA
BRANCH  17  18
ATOM     18  C   UNL d   1      33.241  21.147 -24.716  0.00  0.00     0.123 C 
ATOM     19  C   UNL d   1      33.153  21.959 -24.858  0.00  0.00     0.029 C 
ENDBRANCH  17  18
ENDBRANCH   4  17
BRANCH   3  20
ATOM     20  C   UNL d   1      32.305  17.633 -23.698  0.00  0.00     0.000 C 
ATOM     21  C   UNL d   1      32.911  17.067 -23.657  0.00  0.00     0.000 C 
ATOM     22  C   UNL d   1      31.516  17.393 -23.669  0.00  0.00     0.000 C 
ENDBRANCH   3  20
TORSDOF 5
ENDMDL
