MODEL 1
REMARK VINA RESULT:      -4.1      0.000      0.000
REMARK  5 active torsions:
REMARK  status: ('A' for Active; 'I' for Inactive)
REMARK    1  A    between atoms: C_9  and  N_2 
REMARK    2  A    between atoms: C_7  and  O_10 
REMARK    3  A    between atoms: O_11  and  C_8 
REMARK    4  A    between atoms: C_12  and  C_9 
REMARK    5  A    between atoms: O_10  and  C_12 
ROOT
ATOM      1  C   UNL d   1      57.888  -0.567  29.904  0.00  0.00     0.110 C 
ENDROOT
BRANCH   1   2
ATOM      2  N   UNL d   1      58.606  -0.707  29.522  0.00  0.00    -0.266 N 
ATOM      3  C   UNL d   1      59.180  -0.144  29.351  0.00  0.00     0.296 A 
ATOM      4  S   UNL d   1      59.811  -0.535  28.963  0.00  0.00    -0.025 SA
ATOM      5  O   UNL d   1      59.146   0.657  29.526  0.00  0.00    -0.259 OA
ATOM      6  C   UNL d   1      59.612  -1.336  28.902  0.00  0.00     0.050 A 
ATOM      7  C   UNL d   1      60.021  -1.979  28.574  0.00  0.00     0.008 A 
ATOM      8  C   UNL d   1      58.874  -1.442  29.245  0.00  0.00     0.074 A 
ATOM      9  C   UNL d   1      59.670  -2.730  28.598  0.00  0.00     0.001 A 
ATOM     10  C   UNL d   1      58.932  -2.836  28.941  0.00  0.00     0.002 A 
ATOM     11  C   UNL d   1      58.527  -2.193  29.267  0.00  0.00     0.018 A 
ENDBRANCH   1   2
BRANCH   1  12
ATOM     12  C   UNL d   1      57.863  -0.455  30.718  0.00  0.00     0.142 C 
BRANCH  12  13
ATOM     13  O   UNL d   1      57.179  -0.623  31.151  0.00  0.00    -0.302 OA
BRANCH  13  14
ATOM     14  C   UNL d   1      57.080  -0.314  31.911  0.00  0.00     0.122 A 
ATOM     15  C   UNL d   1      56.585  -0.696  32.448  0.00  0.00     0.117 A 
ATOM     16  C   UNL d   1      56.487  -0.389  33.203  0.00  0.00     0.026 A 
ATOM     17  C   UNL d   1      56.886   0.301  33.419  0.00  0.00     0.002 A 
ATOM     18  C   UNL d   1      57.383   0.682  32.876  0.00  0.00     0.002 A 
ATOM     19  C   UNL d   1      57.474   0.367  32.123  0.00  0.00     0.027 A 
BRANCH  15  20
ATOM     20  O   UNL d   1      56.171  -1.391  32.261  0.00  0.00    -0.326 OA
ATOM     21  C   UNL d   1      55.644  -1.712  32.810  0.00  0.00     0.181 C 
ENDBRANCH  15  20
ENDBRANCH  13  14
ENDBRANCH  12  13
ENDBRANCH   1  12
TORSDOF 5
ENDMDL
MODEL 2
REMARK VINA RESULT:      -3.9      1.549      2.095
REMARK  5 active torsions:
REMARK  status: ('A' for Active; 'I' for Inactive)
REMARK    1  A    between atoms: C_9  and  N_2 
REMARK    2  A    between atoms: C_7  and  O_10 
REMARK    3  A    between atoms: O_11  and  C_8 
REMARK    4  A    between atoms: C_12  and  C_9 
REMARK    5  A    between atoms: O_10  and  C_12 
ROOT
ATOM      1  C   UNL d   1      57.998   0.581  30.410  0.00  0.00     0.110 C 
ENDROOT
BRANCH   1   2
ATOM      2  N   UNL d   1      58.564   0.399  29.838  0.00  0.00    -0.266 N 
ATOM      3  C   UNL d   1      58.410   0.139  29.073  0.00  0.00     0.296 A 
ATOM      4  S   UNL d   1      59.147   0.024  28.691  0.00  0.00    -0.025 SA
ATOM      5  O   UNL d   1      57.671   0.012  28.739  0.00  0.00    -0.259 OA
ATOM      6  C   UNL d   1      59.744   0.217  29.232  0.00  0.00     0.050 A 
ATOM      7  C   UNL d   1      60.570   0.208  29.162  0.00  0.00     0.008 A 
ATOM      8  C   UNL d   1      59.386   0.447  29.934  0.00  0.00     0.074 A 
ATOM      9  C   UNL d   1      61.029   0.436  29.814  0.00  0.00     0.001 A 
ATOM     10  C   UNL d   1      60.672   0.666  30.516  0.00  0.00     0.002 A 
ATOM     11  C   UNL d   1      59.847   0.673  30.583  0.00  0.00     0.018 A 
ENDBRANCH   1   2
BRANCH   1  12
ATOM     12  C   UNL d   1      57.697  -0.006  30.900  0.00  0.00     0.142 C 
BRANCH  12  13
ATOM     13  O   UNL d   1      57.566   0.135  31.705  0.00  0.00    -0.302 OA
BRANCH  13  14
ATOM     14  C   UNL d   1      57.004  -0.305  32.119  0.00  0.00     0.122 A 
ATOM     15  C   UNL d   1      56.791  -0.083  32.884  0.00  0.00     0.117 A 
ATOM     16  C   UNL d   1      56.231  -0.521  33.296  0.00  0.00     0.026 A 
ATOM     17  C   UNL d   1      55.886  -1.181  32.941  0.00  0.00     0.002 A 
ATOM     18  C   UNL d   1      56.103  -1.401  32.172  0.00  0.00     0.002 A 
ATOM     19  C   UNL d   1      56.664  -0.957  31.768  0.00  0.00     0.027 A 
BRANCH  15  20
ATOM     20  O   UNL d   1      57.120   0.576  33.268  0.00  0.00    -0.326 OA
ATOM     21  C   UNL d   1      56.995   0.680  34.078  0.00  0.00     0.181 C 
ENDBRANCH  15  20
ENDBRANCH  13  14
ENDBRANCH  12  13
ENDBRANCH   1  12
TORSDOF 5
ENDMDL
