MODEL 1
REMARK VINA RESULT:      -8.0      0.000      0.000
REMARK  6 active torsions:
REMARK  status: ('A' for Active; 'I' for Inactive)
REMARK       I    between atoms: C_2  and  N_1 
REMARK    1  A    between atoms: C_3  and  C_2 
REMARK    2  A    between atoms: C_12  and  C_4 
REMARK       I    between atoms: C_5  and  N_8 
REMARK    3  A    between atoms: C_6  and  C_5 
REMARK       I    between atoms: N_9  and  C_6 
REMARK    4  A    between atoms: N_8  and  C_12 
REMARK    5  A    between atoms: C_19  and  N_9 
REMARK    6  A    between atoms: C_21  and  C_19 
ROOT
ATOM      1  C   UNL d   1      51.496  34.295  53.019  0.00  0.00     0.337 C 
ATOM      2  N   UNL d   1      50.911  34.489  52.475  0.00  0.00    -0.199 NA
ATOM      3  O   UNL d   1      51.301  34.181  53.821  0.00  0.00    -0.260 OA
ENDROOT
BRANCH   2   4
ATOM      4  C   UNL d   1      50.129  34.570  52.726  0.00  0.00     0.146 C 
BRANCH   4   5
ATOM      5  C   UNL d   1      49.520  34.643  52.160  0.00  0.00     0.190 A 
ATOM      6  N   UNL d   1      48.830  35.083  52.264  0.00  0.00    -0.250 N 
ATOM      7  C   UNL d   1      48.553  35.544  52.898  0.00  0.00     0.272 C 
ATOM      8  C   UNL d   1      48.387  35.000  51.569  0.00  0.00     0.112 A 
ATOM      9  O   UNL d   1      49.009  35.617  53.586  0.00  0.00    -0.266 OA
ATOM     10  C   UNL d   1      48.802  34.515  51.049  0.00  0.00     0.144 A 
ATOM     11  O   UNL d   1      49.511  34.296  51.427  0.00  0.00    -0.285 OA
BRANCH   7  12
ATOM     12  C   UNL d   1      47.826  35.930  52.845  0.00  0.00     0.086 A 
ATOM     13  S   UNL d   1      47.533  36.475  52.289  0.00  0.00    -0.082 SA
ATOM     14  C   UNL d   1      46.753  36.677  52.523  0.00  0.00     0.036 A 
ATOM     15  C   UNL d   1      46.582  36.256  53.213  0.00  0.00     0.008 A 
ATOM     16  C   UNL d   1      47.236  35.796  53.416  0.00  0.00     0.012 A 
ENDBRANCH   7  12
ENDBRANCH   4   5
ENDBRANCH   2   4
BRANCH   1  17
ATOM     17  C   UNL d   1      52.266  34.216  52.773  0.00  0.00     0.337 C 
ATOM     18  N   UNL d   1      52.656  33.501  52.835  0.00  0.00    -0.202 NA
ATOM     19  O   UNL d   1      52.667  34.873  52.450  0.00  0.00    -0.260 OA
BRANCH  18  20
ATOM     20  C   UNL d   1      52.260  32.843  53.156  0.00  0.00     0.102 C 
BRANCH  20  21
ATOM     21  C   UNL d   1      52.671  32.118  53.232  0.00  0.00     0.019 A 
ATOM     22  C   UNL d   1      53.363  32.065  53.670  0.00  0.00     0.004 A 
ATOM     23  C   UNL d   1      53.756  31.343  53.735  0.00  0.00     0.030 A 
ATOM     24  C   UNL d   1      53.467  30.672  53.370  0.00  0.00     0.140 A 
ATOM     25  C   UNL d   1      52.775  30.716  52.930  0.00  0.00     0.030 A 
ATOM     26  F   UNL d   1      53.871  29.948  53.442  0.00  0.00    -0.204 F 
ATOM     27  C   UNL d   1      52.375  31.432  52.859  0.00  0.00     0.004 A 
ENDBRANCH  20  21
ENDBRANCH  18  20
ENDBRANCH   1  17
TORSDOF 6
ENDMDL
MODEL 2
REMARK VINA RESULT:      -7.3      1.405      1.735
REMARK  6 active torsions:
REMARK  status: ('A' for Active; 'I' for Inactive)
REMARK       I    between atoms: C_2  and  N_1 
REMARK    1  A    between atoms: C_3  and  C_2 
REMARK    2  A    between atoms: C_12  and  C_4 
REMARK       I    between atoms: C_5  and  N_8 
REMARK    3  A    between atoms: C_6  and  C_5 
REMARK       I    between atoms: N_9  and  C_6 
REMARK    4  A    between atoms: N_8  and  C_12 
REMARK    5  A    between atoms: C_19  and  N_9 
REMARK    6  A    between atoms: C_21  and  C_19 
ROOT
ATOM      1  C   UNL d   1      51.402  34.125  52.656  0.00  0.00     0.337 C 
ATOM      2  N   UNL d   1      50.595  34.066  52.509  0.00  0.00    -0.199 NA
ATOM      3  O   UNL d   1      51.728  34.849  52.909  0.00  0.00    -0.260 OA
ENDROOT
BRANCH   2   4
ATOM      4  C   UNL d   1      50.110  34.725  52.611  0.00  0.00     0.146 C 
BRANCH   4   5
ATOM      5  C   UNL d   1      49.409  34.794  52.165  0.00  0.00     0.190 A 
ATOM      6  N   UNL d   1      48.739  35.215  52.400  0.00  0.00    -0.250 N 
ATOM      7  C   UNL d   1      48.569  35.656  53.084  0.00  0.00     0.272 C 
ATOM      8  C   UNL d   1      48.181  35.136  51.792  0.00  0.00     0.112 A 
ATOM      9  O   UNL d   1      49.138  35.725  53.682  0.00  0.00    -0.266 OA
ATOM     10  C   UNL d   1      48.508  34.672  51.195  0.00  0.00     0.144 A 
ATOM     11  O   UNL d   1      49.277  34.463  51.436  0.00  0.00    -0.285 OA
BRANCH   7  12
ATOM     12  C   UNL d   1      47.837  36.024  53.170  0.00  0.00     0.086 A 
ATOM     13  S   UNL d   1      47.386  36.480  52.640  0.00  0.00    -0.082 SA
ATOM     14  C   UNL d   1      46.684  36.708  53.040  0.00  0.00     0.036 A 
ATOM     15  C   UNL d   1      46.716  36.391  53.802  0.00  0.00     0.008 A 
ATOM     16  C   UNL d   1      47.420  35.970  53.888  0.00  0.00     0.012 A 
ENDBRANCH   7  12
ENDBRANCH   4   5
ENDBRANCH   2   4
BRANCH   1  17
ATOM     17  C   UNL d   1      51.880  33.476  52.556  0.00  0.00     0.337 C 
ATOM     18  N   UNL d   1      52.462  33.294  53.099  0.00  0.00    -0.202 NA
ATOM     19  O   UNL d   1      51.777  32.987  51.887  0.00  0.00    -0.260 OA
BRANCH  18  20
ATOM     20  C   UNL d   1      52.568  33.779  53.766  0.00  0.00     0.102 C 
BRANCH  20  21
ATOM     21  C   UNL d   1      53.227  33.648  54.265  0.00  0.00     0.019 A 
ATOM     22  C   UNL d   1      53.527  32.893  54.383  0.00  0.00     0.004 A 
ATOM     23  C   UNL d   1      54.178  32.780  54.877  0.00  0.00     0.030 A 
ATOM     24  C   UNL d   1      54.533  33.410  55.256  0.00  0.00     0.140 A 
ATOM     25  C   UNL d   1      54.239  34.169  55.143  0.00  0.00     0.030 A 
ATOM     26  F   UNL d   1      55.189  33.287  55.753  0.00  0.00    -0.204 F 
ATOM     27  C   UNL d   1      53.590  34.292  54.652  0.00  0.00     0.004 A 
ENDBRANCH  20  21
ENDBRANCH  18  20
ENDBRANCH   1  17
TORSDOF 6
ENDMDL
MODEL 3
REMARK VINA RESULT:      -6.9      2.757      5.926
REMARK  6 active torsions:
REMARK  status: ('A' for Active; 'I' for Inactive)
REMARK       I    between atoms: C_2  and  N_1 
REMARK    1  A    between atoms: C_3  and  C_2 
REMARK    2  A    between atoms: C_12  and  C_4 
REMARK       I    between atoms: C_5  and  N_8 
REMARK    3  A    between atoms: C_6  and  C_5 
REMARK       I    between atoms: N_9  and  C_6 
REMARK    4  A    between atoms: N_8  and  C_12 
REMARK    5  A    between atoms: C_19  and  N_9 
REMARK    6  A    between atoms: C_21  and  C_19 
ROOT
ATOM      1  C   UNL d   1      50.429  34.465  52.504  0.00  0.00     0.337 C 
ATOM      2  N   UNL d   1      50.871  33.783  52.625  0.00  0.00    -0.199 NA
ATOM      3  O   UNL d   1      50.595  35.154  52.943  0.00  0.00    -0.260 OA
ENDROOT
BRANCH   2   4
ATOM      4  C   UNL d   1      51.480  33.781  53.181  0.00  0.00     0.146 C 
BRANCH   4   5
ATOM      5  C   UNL d   1      52.019  33.144  53.202  0.00  0.00     0.190 A 
ATOM      6  N   UNL d   1      52.732  33.143  53.616  0.00  0.00    -0.250 N 
ATOM      7  C   UNL d   1      53.102  33.715  54.093  0.00  0.00     0.272 C 
ATOM      8  C   UNL d   1      53.085  32.405  53.483  0.00  0.00     0.112 A 
ATOM      9  O   UNL d   1      52.736  34.448  54.216  0.00  0.00    -0.266 OA
ATOM     10  C   UNL d   1      52.591  31.963  52.994  0.00  0.00     0.144 A 
ATOM     11  O   UNL d   1      51.926  32.434  52.823  0.00  0.00    -0.285 OA
BRANCH   7  12
ATOM     12  C   UNL d   1      53.831  33.557  54.443  0.00  0.00     0.086 A 
ATOM     13  S   UNL d   1      54.583  33.429  54.113  0.00  0.00    -0.082 SA
ATOM     14  C   UNL d   1      55.116  33.294  54.747  0.00  0.00     0.036 A 
ATOM     15  C   UNL d   1      54.685  33.341  55.450  0.00  0.00     0.008 A 
ATOM     16  C   UNL d   1      53.896  33.502  55.271  0.00  0.00     0.012 A 
ENDBRANCH   7  12
ENDBRANCH   4   5
ENDBRANCH   2   4
BRANCH   1  17
ATOM     17  C   UNL d   1      49.830  34.467  51.956  0.00  0.00     0.337 C 
ATOM     18  N   UNL d   1      49.118  34.835  52.113  0.00  0.00    -0.202 NA
ATOM     19  O   UNL d   1      49.941  34.088  51.221  0.00  0.00    -0.260 OA
BRANCH  18  20
ATOM     20  C   UNL d   1      49.003  35.214  52.844  0.00  0.00     0.102 C 
BRANCH  20  21
ATOM     21  C   UNL d   1      48.270  35.586  52.999  0.00  0.00     0.019 A 
ATOM     22  C   UNL d   1      47.701  35.665  52.413  0.00  0.00     0.004 A 
ATOM     23  C   UNL d   1      46.982  36.035  52.582  0.00  0.00     0.030 A 
ATOM     24  C   UNL d   1      46.824  36.326  53.329  0.00  0.00     0.140 A 
ATOM     25  C   UNL d   1      47.388  36.251  53.921  0.00  0.00     0.030 A 
ATOM     26  F   UNL d   1      46.097  36.697  53.489  0.00  0.00    -0.204 F 
ATOM     27  C   UNL d   1      48.108  35.884  53.762  0.00  0.00     0.004 A 
ENDBRANCH  20  21
ENDBRANCH  18  20
ENDBRANCH   1  17
TORSDOF 6
ENDMDL
MODEL 4
REMARK VINA RESULT:      -6.6      2.650      5.951
REMARK  6 active torsions:
REMARK  status: ('A' for Active; 'I' for Inactive)
REMARK       I    between atoms: C_2  and  N_1 
REMARK    1  A    between atoms: C_3  and  C_2 
REMARK    2  A    between atoms: C_12  and  C_4 
REMARK       I    between atoms: C_5  and  N_8 
REMARK    3  A    between atoms: C_6  and  C_5 
REMARK       I    between atoms: N_9  and  C_6 
REMARK    4  A    between atoms: N_8  and  C_12 
REMARK    5  A    between atoms: C_19  and  N_9 
REMARK    6  A    between atoms: C_21  and  C_19 
ROOT
ATOM      1  C   UNL d   1      51.740  34.194  52.781  0.00  0.00     0.337 C 
ATOM      2  N   UNL d   1      52.140  33.644  53.244  0.00  0.00    -0.199 NA
ATOM      3  O   UNL d   1      51.729  34.114  51.953  0.00  0.00    -0.260 OA
ENDROOT
BRANCH   2   4
ATOM      4  C   UNL d   1      52.530  33.012  52.885  0.00  0.00     0.146 C 
BRANCH   4   5
ATOM      5  C   UNL d   1      53.192  32.668  53.259  0.00  0.00     0.190 A 
ATOM      6  N   UNL d   1      53.272  31.866  53.431  0.00  0.00    -0.250 N 
ATOM      7  C   UNL d   1      52.773  31.214  53.300  0.00  0.00     0.272 C 
ATOM      8  C   UNL d   1      54.008  31.773  53.801  0.00  0.00     0.112 A 
ATOM      9  O   UNL d   1      52.040  31.324  52.930  0.00  0.00    -0.266 OA
ATOM     10  C   UNL d   1      54.370  32.510  53.852  0.00  0.00     0.144 A 
ATOM     11  O   UNL d   1      53.852  33.065  53.511  0.00  0.00    -0.285 OA
BRANCH   7  12
ATOM     12  C   UNL d   1      53.003  30.459  53.536  0.00  0.00     0.086 A 
ATOM     13  S   UNL d   1      53.079  30.118  54.291  0.00  0.00    -0.082 SA
ATOM     14  C   UNL d   1      53.336  29.327  54.186  0.00  0.00     0.036 A 
ATOM     15  C   UNL d   1      53.414  29.196  53.374  0.00  0.00     0.008 A 
ATOM     16  C   UNL d   1      53.211  29.886  52.970  0.00  0.00     0.012 A 
ENDBRANCH   7  12
ENDBRANCH   4   5
ENDBRANCH   2   4
BRANCH   1  17
ATOM     17  C   UNL d   1      51.356  34.816  53.135  0.00  0.00     0.337 C 
ATOM     18  N   UNL d   1      50.574  34.978  52.966  0.00  0.00    -0.202 NA
ATOM     19  O   UNL d   1      51.765  35.298  53.679  0.00  0.00    -0.260 OA
BRANCH  18  20
ATOM     20  C   UNL d   1      50.163  34.500  52.424  0.00  0.00     0.102 C 
BRANCH  20  21
ATOM     21  C   UNL d   1      49.405  34.739  52.162  0.00  0.00     0.019 A 
ATOM     22  C   UNL d   1      48.902  35.167  52.650  0.00  0.00     0.004 A 
ATOM     23  C   UNL d   1      48.158  35.396  52.377  0.00  0.00     0.030 A 
ATOM     24  C   UNL d   1      47.909  35.205  51.622  0.00  0.00     0.140 A 
ATOM     25  C   UNL d   1      48.406  34.777  51.128  0.00  0.00     0.030 A 
ATOM     26  F   UNL d   1      47.157  35.440  51.356  0.00  0.00    -0.204 F 
ATOM     27  C   UNL d   1      49.151  34.544  51.391  0.00  0.00     0.004 A 
ENDBRANCH  20  21
ENDBRANCH  18  20
ENDBRANCH   1  17
TORSDOF 6
ENDMDL
MODEL 5
REMARK VINA RESULT:      -5.9      1.695      2.911
REMARK  6 active torsions:
REMARK  status: ('A' for Active; 'I' for Inactive)
REMARK       I    between atoms: C_2  and  N_1 
REMARK    1  A    between atoms: C_3  and  C_2 
REMARK    2  A    between atoms: C_12  and  C_4 
REMARK       I    between atoms: C_5  and  N_8 
REMARK    3  A    between atoms: C_6  and  C_5 
REMARK       I    between atoms: N_9  and  C_6 
REMARK    4  A    between atoms: N_8  and  C_12 
REMARK    5  A    between atoms: C_19  and  N_9 
REMARK    6  A    between atoms: C_21  and  C_19 
ROOT
ATOM      1  C   UNL d   1      53.333  32.304  53.061  0.00  0.00     0.337 C 
ATOM      2  N   UNL d   1      53.010  32.983  53.394  0.00  0.00    -0.199 NA
ATOM      3  O   UNL d   1      52.957  31.935  52.416  0.00  0.00    -0.260 OA
ENDROOT
BRANCH   2   4
ATOM      4  C   UNL d   1      52.313  33.299  53.087  0.00  0.00     0.146 C 
BRANCH   4   5
ATOM      5  C   UNL d   1      52.066  34.061  53.321  0.00  0.00     0.190 A 
ATOM      6  N   UNL d   1      51.320  34.381  53.176  0.00  0.00    -0.250 N 
ATOM      7  C   UNL d   1      50.648  34.077  52.791  0.00  0.00     0.272 C 
ATOM      8  C   UNL d   1      51.319  35.142  53.502  0.00  0.00     0.112 A 
ATOM      9  O   UNL d   1      50.666  33.314  52.470  0.00  0.00    -0.266 OA
ATOM     10  C   UNL d   1      52.056  35.283  53.841  0.00  0.00     0.144 A 
ATOM     11  O   UNL d   1      52.518  34.601  53.723  0.00  0.00    -0.285 OA
BRANCH   7  12
ATOM     12  C   UNL d   1      49.964  34.533  52.728  0.00  0.00     0.086 A 
ATOM     13  S   UNL d   1      49.504  34.917  53.305  0.00  0.00    -0.082 SA
ATOM     14  C   UNL d   1      48.870  35.297  52.908  0.00  0.00     0.036 A 
ATOM     15  C   UNL d   1      48.951  35.141  52.101  0.00  0.00     0.008 A 
ATOM     16  C   UNL d   1      49.620  34.673  51.983  0.00  0.00     0.012 A 
ENDBRANCH   7  12
ENDBRANCH   4   5
ENDBRANCH   2   4
BRANCH   1  17
ATOM     17  C   UNL d   1      54.019  31.993  53.364  0.00  0.00     0.337 C 
ATOM     18  N   UNL d   1      54.034  31.245  53.693  0.00  0.00    -0.202 NA
ATOM     19  O   UNL d   1      54.722  32.442  53.339  0.00  0.00    -0.260 OA
BRANCH  18  20
ATOM     20  C   UNL d   1      53.335  30.794  53.719  0.00  0.00     0.102 C 
BRANCH  20  21
ATOM     21  C   UNL d   1      53.342  30.055  54.111  0.00  0.00     0.019 A 
ATOM     22  C   UNL d   1      53.439  29.354  53.695  0.00  0.00     0.004 A 
ATOM     23  C   UNL d   1      53.444  28.633  54.097  0.00  0.00     0.030 A 
ATOM     24  C   UNL d   1      53.353  28.603  54.908  0.00  0.00     0.140 A 
ATOM     25  C   UNL d   1      53.256  29.300  55.331  0.00  0.00     0.030 A 
ATOM     26  F   UNL d   1      53.359  27.871  55.304  0.00  0.00    -0.204 F 
ATOM     27  C   UNL d   1      53.250  30.024  54.940  0.00  0.00     0.004 A 
ENDBRANCH  20  21
ENDBRANCH  18  20
ENDBRANCH   1  17
TORSDOF 6
ENDMDL
MODEL 6
REMARK VINA RESULT:      -5.1     10.162     11.288
REMARK  6 active torsions:
REMARK  status: ('A' for Active; 'I' for Inactive)
REMARK       I    between atoms: C_2  and  N_1 
REMARK    1  A    between atoms: C_3  and  C_2 
REMARK    2  A    between atoms: C_12  and  C_4 
REMARK       I    between atoms: C_5  and  N_8 
REMARK    3  A    between atoms: C_6  and  C_5 
REMARK       I    between atoms: N_9  and  C_6 
REMARK    4  A    between atoms: N_8  and  C_12 
REMARK    5  A    between atoms: C_19  and  N_9 
REMARK    6  A    between atoms: C_21  and  C_19 
ROOT
ATOM      1  C   UNL d   1      45.077  29.941  58.913  0.00  0.00     0.337 C 
ATOM      2  N   UNL d   1      44.691  29.241  58.720  0.00  0.00    -0.199 NA
ATOM      3  O   UNL d   1      45.909  29.966  58.936  0.00  0.00    -0.260 OA
ENDROOT
BRANCH   2   4
ATOM      4  C   UNL d   1      45.129  28.564  58.549  0.00  0.00     0.146 C 
BRANCH   4   5
ATOM      5  C   UNL d   1      44.833  27.815  58.766  0.00  0.00     0.190 A 
ATOM      6  N   UNL d   1      44.782  27.164  58.262  0.00  0.00    -0.250 N 
ATOM      7  C   UNL d   1      44.988  27.059  57.463  0.00  0.00     0.272 C 
ATOM      8  C   UNL d   1      44.458  26.543  58.705  0.00  0.00     0.112 A 
ATOM      9  O   UNL d   1      45.311  27.690  57.034  0.00  0.00    -0.266 OA
ATOM     10  C   UNL d   1      44.314  26.814  59.469  0.00  0.00     0.144 A 
ATOM     11  O   UNL d   1      44.552  27.611  59.499  0.00  0.00    -0.285 OA
BRANCH   7  12
ATOM     12  C   UNL d   1      44.872  26.330  57.096  0.00  0.00     0.086 A 
ATOM     13  S   UNL d   1      45.035  25.555  57.349  0.00  0.00    -0.082 SA
ATOM     14  C   UNL d   1      44.796  25.035  56.736  0.00  0.00     0.036 A 
ATOM     15  C   UNL d   1      44.493  25.496  56.121  0.00  0.00     0.008 A 
ATOM     16  C   UNL d   1      44.536  26.291  56.335  0.00  0.00     0.012 A 
ENDBRANCH   7  12
ENDBRANCH   4   5
ENDBRANCH   2   4
BRANCH   1  17
ATOM     17  C   UNL d   1      44.645  30.608  59.080  0.00  0.00     0.337 C 
ATOM     18  N   UNL d   1      44.528  30.851  59.851  0.00  0.00    -0.202 NA
ATOM     19  O   UNL d   1      44.314  31.054  58.457  0.00  0.00    -0.260 OA
BRANCH  18  20
ATOM     20  C   UNL d   1      44.855  30.409  60.476  0.00  0.00     0.102 C 
BRANCH  20  21
ATOM     21  C   UNL d   1      44.718  30.654  61.263  0.00  0.00     0.019 A 
ATOM     22  C   UNL d   1      44.558  31.439  61.443  0.00  0.00     0.004 A 
ATOM     23  C   UNL d   1      44.425  31.665  62.226  0.00  0.00     0.030 A 
ATOM     24  C   UNL d   1      44.450  31.117  62.832  0.00  0.00     0.140 A 
ATOM     25  C   UNL d   1      44.609  30.330  62.660  0.00  0.00     0.030 A 
ATOM     26  F   UNL d   1      44.314  31.355  63.618  0.00  0.00    -0.204 F 
ATOM     27  C   UNL d   1      44.743  30.095  61.883  0.00  0.00     0.004 A 
ENDBRANCH  20  21
ENDBRANCH  18  20
ENDBRANCH   1  17
TORSDOF 6
ENDMDL
