MODEL 1
REMARK VINA RESULT:      -3.3      0.000      0.000
REMARK  4 active torsions:
REMARK  status: ('A' for Active; 'I' for Inactive)
REMARK    1  A    between atoms: N_2  and  S_1 
REMARK    2  A    between atoms: C_3  and  S_1 
REMARK    3  A    between atoms: C_5  and  N_4 
REMARK    4  A    between atoms: O_16  and  C_13 
ROOT
ATOM      1  N   UNL d   1      57.784   0.065  30.091  0.00  0.00    -0.226 N 
ATOM      2  N   UNL d   1      57.045  -0.250  31.527  0.00  0.00    -0.300 N 
ATOM      3  C   UNL d   1      57.420   0.678  30.513  0.00  0.00     0.111 A 
ATOM      4  C   UNL d   1      57.778  -0.705  30.387  0.00  0.00     0.111 A 
ATOM      5  C   UNL d   1      57.048   0.522  31.236  0.00  0.00     0.100 A 
ATOM      6  C   UNL d   1      57.406  -0.861  31.110  0.00  0.00     0.100 A 
ENDROOT
BRANCH   1   7
ATOM      7  S   UNL d   1      58.147   0.225  29.384  0.00  0.00     0.272 S 
ATOM      8  O   UNL d   1      58.509   0.386  28.680  0.00  0.00    -0.200 OA
ATOM      9  O   UNL d   1      57.426   0.355  29.043  0.00  0.00    -0.200 OA
BRANCH   7  10
ATOM     10  C   UNL d   1      58.875   0.095  29.728  0.00  0.00     0.106 A 
ATOM     11  C   UNL d   1      59.240  -0.640  29.646  0.00  0.00     0.043 A 
ATOM     12  C   UNL d   1      59.975  -0.772  29.994  0.00  0.00     0.141 A 
ATOM     13  F   UNL d   1      60.340  -1.496  29.916  0.00  0.00    -0.204 F 
ATOM     14  C   UNL d   1      60.339  -0.167  30.420  0.00  0.00     0.030 A 
ATOM     15  C   UNL d   1      59.975   0.550  30.495  0.00  0.00     0.003 A 
ATOM     16  C   UNL d   1      59.239   0.682  30.148  0.00  0.00     0.013 A 
ENDBRANCH   7  10
ENDBRANCH   1   7
BRANCH   2  17
ATOM     17  C   UNL d   1      56.678  -0.413  32.242  0.00  0.00     0.086 A 
ATOM     18  C   UNL d   1      56.935  -0.034  32.928  0.00  0.00     0.110 A 
ATOM     19  C   UNL d   1      56.565  -0.198  33.650  0.00  0.00     0.026 A 
ATOM     20  C   UNL d   1      55.936  -0.742  33.687  0.00  0.00     0.002 A 
ATOM     21  C   UNL d   1      55.682  -1.120  32.996  0.00  0.00     0.002 A 
ATOM     22  C   UNL d   1      56.052  -0.956  32.274  0.00  0.00     0.019 A 
BRANCH  18  23
ATOM     23  O   UNL d   1      57.552   0.500  32.894  0.00  0.00    -0.327 OA
ATOM     24  C   UNL d   1      57.885   0.666  33.474  0.00  0.00     0.181 C 
ENDBRANCH  18  23
ENDBRANCH   2  17
TORSDOF 4
ENDMDL
MODEL 2
REMARK VINA RESULT:      -2.4      0.626      1.293
REMARK  4 active torsions:
REMARK  status: ('A' for Active; 'I' for Inactive)
REMARK    1  A    between atoms: N_2  and  S_1 
REMARK    2  A    between atoms: C_3  and  S_1 
REMARK    3  A    between atoms: C_5  and  N_4 
REMARK    4  A    between atoms: O_16  and  C_13 
ROOT
ATOM      1  N   UNL d   1      57.992  -0.058  30.008  0.00  0.00    -0.226 N 
ATOM      2  N   UNL d   1      57.540   0.036  31.587  0.00  0.00    -0.300 N 
ATOM      3  C   UNL d   1      58.107  -0.707  30.511  0.00  0.00     0.111 A 
ATOM      4  C   UNL d   1      57.652   0.636  30.294  0.00  0.00     0.111 A 
ATOM      5  C   UNL d   1      57.880  -0.661  31.306  0.00  0.00     0.100 A 
ATOM      6  C   UNL d   1      57.425   0.681  31.089  0.00  0.00     0.100 A 
ENDROOT
BRANCH   1   7
ATOM      7  S   UNL d   1      58.217  -0.110  29.230  0.00  0.00     0.272 S 
ATOM      8  O   UNL d   1      58.441  -0.162  28.455  0.00  0.00    -0.200 OA
ATOM      9  O   UNL d   1      57.441  -0.157  29.009  0.00  0.00    -0.200 OA
BRANCH   7  10
ATOM     10  C   UNL d   1      59.000  -0.063  29.453  0.00  0.00     0.106 A 
ATOM     11  C   UNL d   1      59.480  -0.733  29.404  0.00  0.00     0.043 A 
ATOM     12  C   UNL d   1      60.271  -0.685  29.629  0.00  0.00     0.141 A 
ATOM     13  F   UNL d   1      60.749  -1.343  29.582  0.00  0.00    -0.204 F 
ATOM     14  C   UNL d   1      60.575   0.032  29.902  0.00  0.00     0.030 A 
ATOM     15  C   UNL d   1      60.098   0.682  29.947  0.00  0.00     0.003 A 
ATOM     16  C   UNL d   1      59.307   0.634  29.722  0.00  0.00     0.013 A 
ENDBRANCH   7  10
ENDBRANCH   1   7
BRANCH   2  17
ATOM     17  C   UNL d   1      57.313   0.089  32.373  0.00  0.00     0.086 A 
ATOM     18  C   UNL d   1      56.705  -0.391  32.655  0.00  0.00     0.110 A 
ATOM     19  C   UNL d   1      56.475  -0.338  33.449  0.00  0.00     0.026 A 
ATOM     20  C   UNL d   1      56.854   0.196  33.961  0.00  0.00     0.002 A 
ATOM     21  C   UNL d   1      57.464   0.676  33.675  0.00  0.00     0.002 A 
ATOM     22  C   UNL d   1      57.693   0.623  32.881  0.00  0.00     0.019 A 
BRANCH  18  23
ATOM     23  O   UNL d   1      56.332  -0.916  32.152  0.00  0.00    -0.327 OA
ATOM     24  C   UNL d   1      55.737  -1.205  32.349  0.00  0.00     0.181 C 
ENDBRANCH  18  23
ENDBRANCH   2  17
TORSDOF 4
ENDMDL
MODEL 3
REMARK VINA RESULT:      -1.2      1.879      4.148
REMARK  4 active torsions:
REMARK  status: ('A' for Active; 'I' for Inactive)
REMARK    1  A    between atoms: N_2  and  S_1 
REMARK    2  A    between atoms: C_3  and  S_1 
REMARK    3  A    between atoms: C_5  and  N_4 
REMARK    4  A    between atoms: O_16  and  C_13 
ROOT
ATOM      1  N   UNL d   1      57.488   0.284  32.485  0.00  0.00    -0.226 N 
ATOM      2  N   UNL d   1      57.840   0.101  30.889  0.00  0.00    -0.300 N 
ATOM      3  C   UNL d   1      58.132  -0.183  32.254  0.00  0.00     0.111 A 
ATOM      4  C   UNL d   1      57.021   0.658  31.919  0.00  0.00     0.111 A 
ATOM      5  C   UNL d   1      58.311  -0.277  31.451  0.00  0.00     0.100 A 
ATOM      6  C   UNL d   1      57.199   0.565  31.116  0.00  0.00     0.100 A 
ENDROOT
BRANCH   1   7
ATOM      7  S   UNL d   1      57.319   0.371  33.274  0.00  0.00     0.272 S 
ATOM      8  O   UNL d   1      57.150   0.457  34.059  0.00  0.00    -0.200 OA
ATOM      9  O   UNL d   1      58.054   0.682  33.397  0.00  0.00    -0.200 OA
BRANCH   7  10
ATOM     10  C   UNL d   1      56.576   0.056  33.149  0.00  0.00     0.106 A 
ATOM     11  C   UNL d   1      56.477  -0.763  33.133  0.00  0.00     0.043 A 
ATOM     12  C   UNL d   1      55.727  -1.080  33.007  0.00  0.00     0.141 A 
ATOM     13  F   UNL d   1      55.623  -1.888  32.991  0.00  0.00    -0.204 F 
ATOM     14  C   UNL d   1      55.084  -0.575  32.899  0.00  0.00     0.030 A 
ATOM     15  C   UNL d   1      55.190   0.225  32.916  0.00  0.00     0.003 A 
ATOM     16  C   UNL d   1      55.940   0.542  33.042  0.00  0.00     0.013 A 
ENDBRANCH   7  10
ENDBRANCH   1   7
BRANCH   2  17
ATOM     17  C   UNL d   1      58.011   0.013  30.092  0.00  0.00     0.086 A 
ATOM     18  C   UNL d   1      58.070  -0.743  29.768  0.00  0.00     0.110 A 
ATOM     19  C   UNL d   1      58.243  -0.832  28.963  0.00  0.00     0.026 A 
ATOM     20  C   UNL d   1      58.356  -0.164  28.481  0.00  0.00     0.002 A 
ATOM     21  C   UNL d   1      58.296   0.593  28.809  0.00  0.00     0.002 A 
ATOM     22  C   UNL d   1      58.123   0.681  29.614  0.00  0.00     0.019 A 
BRANCH  18  23
ATOM     23  O   UNL d   1      57.959  -1.400  30.240  0.00  0.00    -0.327 OA
ATOM     24  C   UNL d   1      58.123  -2.023  29.994  0.00  0.00     0.181 C 
ENDBRANCH  18  23
ENDBRANCH   2  17
TORSDOF 4
ENDMDL
