MODEL 1
REMARK VINA RESULT:      -9.3      0.000      0.000
REMARK  8 active torsions:
REMARK  status: ('A' for Active; 'I' for Inactive)
REMARK    1  A    between atoms: C_6  and  N_1 
REMARK    2  A    between atoms: C_7  and  C_2 
REMARK    3  A    between atoms: C_3  and  C_9 
REMARK    4  A    between atoms: O_5  and  C_3 
REMARK    5  A    between atoms: C_4  and  O_5 
REMARK    6  A    between atoms: C_8  and  C_7 
REMARK    7  A    between atoms: C_12  and  C_8 
REMARK    8  A    between atoms: C_10  and  C_12 
ROOT
ATOM      1  C   UNL d   1      54.286  33.127  54.252  0.00  0.00     0.064 A 
ATOM      2  C   UNL d   1      53.758  33.756  54.161  0.00  0.00     0.106 A 
ATOM      3  C   UNL d   1      54.804  33.113  54.905  0.00  0.00     0.035 A 
ATOM      4  C   UNL d   1      53.748  34.372  54.721  0.00  0.00     0.027 A 
ATOM      5  C   UNL d   1      54.790  33.725  55.458  0.00  0.00     0.140 A 
ATOM      6  C   UNL d   1      54.262  34.354  55.366  0.00  0.00     0.032 A 
ATOM      7  F   UNL d   1      55.305  33.707  56.103  0.00  0.00    -0.204 F 
ENDROOT
BRANCH   2   8
ATOM      8  O   UNL d   1      53.241  33.777  53.515  0.00  0.00    -0.273 OA
BRANCH   8   9
ATOM      9  C   UNL d   1      52.790  34.456  53.373  0.00  0.00     0.300 C 
ATOM     10  O   UNL d   1      52.991  35.171  53.726  0.00  0.00    -0.259 OA
BRANCH   9  11
ATOM     11  C   UNL d   1      52.135  34.410  52.874  0.00  0.00     0.065 A 
ATOM     12  C   UNL d   1      51.377  34.393  53.195  0.00  0.00     0.029 A 
ATOM     13  C   UNL d   1      50.722  34.347  52.704  0.00  0.00     0.127 A 
ATOM     14  C   UNL d   1      50.847  34.318  51.866  0.00  0.00     0.024 A 
ATOM     15  C   UNL d   1      51.580  34.335  51.560  0.00  0.00     0.002 A 
ATOM     16  C   UNL d   1      52.242  34.381  52.057  0.00  0.00     0.005 A 
BRANCH  13  17
ATOM     17  N   UNL d   1      49.947  34.329  53.015  0.00  0.00    -0.114 N 
ATOM     18  O   UNL d   1      49.467  34.991  52.963  0.00  0.00    -0.532 OA
ATOM     19  O   UNL d   1      49.671  33.638  53.373  0.00  0.00    -0.532 OA
ENDBRANCH  13  17
ENDBRANCH   9  11
ENDBRANCH   8   9
ENDBRANCH   2   8
BRANCH   1  20
ATOM     20  C   UNL d   1      54.298  32.513  53.696  0.00  0.00     0.198 C 
ATOM     21  O   UNL d   1      54.769  32.578  53.020  0.00  0.00    -0.286 OA
BRANCH  20  22
ATOM     22  C   UNL d   1      53.841  31.837  53.819  0.00  0.00     0.043 C 
BRANCH  22  23
ATOM     23  C   UNL d   1      53.924  31.188  53.315  0.00  0.00     0.010 C 
BRANCH  23  24
ATOM     24  C   UNL d   1      53.448  30.523  53.422  0.00  0.00     0.030 A 
ATOM     25  S   UNL d   1      52.748  30.346  53.018  0.00  0.00    -0.086 SA
ATOM     26  C   UNL d   1      52.455  29.628  53.299  0.00  0.00     0.035 A 
ATOM     27  C   UNL d   1      52.972  29.352  53.881  0.00  0.00     0.007 A 
ATOM     28  C   UNL d   1      53.586  29.903  53.958  0.00  0.00     0.007 A 
ENDBRANCH  23  24
ENDBRANCH  22  23
ENDBRANCH  20  22
ENDBRANCH   1  20
TORSDOF 8
ENDMDL
MODEL 2
REMARK VINA RESULT:      -8.3      2.082      4.198
REMARK  8 active torsions:
REMARK  status: ('A' for Active; 'I' for Inactive)
REMARK    1  A    between atoms: C_6  and  N_1 
REMARK    2  A    between atoms: C_7  and  C_2 
REMARK    3  A    between atoms: C_3  and  C_9 
REMARK    4  A    between atoms: O_5  and  C_3 
REMARK    5  A    between atoms: C_4  and  O_5 
REMARK    6  A    between atoms: C_8  and  C_7 
REMARK    7  A    between atoms: C_12  and  C_8 
REMARK    8  A    between atoms: C_10  and  C_12 
ROOT
ATOM      1  C   UNL d   1      53.383  33.648  53.929  0.00  0.00     0.064 A 
ATOM      2  C   UNL d   1      53.583  32.867  54.109  0.00  0.00     0.106 A 
ATOM      3  C   UNL d   1      53.606  34.262  54.446  0.00  0.00     0.035 A 
ATOM      4  C   UNL d   1      54.006  32.699  54.807  0.00  0.00     0.027 A 
ATOM      5  C   UNL d   1      54.025  34.091  55.136  0.00  0.00     0.140 A 
ATOM      6  C   UNL d   1      54.225  33.310  55.316  0.00  0.00     0.032 A 
ATOM      7  F   UNL d   1      54.244  34.703  55.645  0.00  0.00    -0.204 F 
ENDROOT
BRANCH   2   8
ATOM      8  O   UNL d   1      53.365  32.252  53.601  0.00  0.00    -0.273 OA
BRANCH   8   9
ATOM      9  C   UNL d   1      53.812  31.556  53.584  0.00  0.00     0.300 C 
ATOM     10  O   UNL d   1      54.633  31.587  53.635  0.00  0.00    -0.259 OA
BRANCH   9  11
ATOM     11  C   UNL d   1      53.428  30.829  53.515  0.00  0.00     0.065 A 
ATOM     12  C   UNL d   1      53.530  30.257  54.098  0.00  0.00     0.029 A 
ATOM     13  C   UNL d   1      53.152  29.532  54.036  0.00  0.00     0.127 A 
ATOM     14  C   UNL d   1      52.657  29.393  53.362  0.00  0.00     0.024 A 
ATOM     15  C   UNL d   1      52.561  29.948  52.802  0.00  0.00     0.002 A 
ATOM     16  C   UNL d   1      52.944  30.680  52.865  0.00  0.00     0.005 A 
BRANCH  13  17
ATOM     17  N   UNL d   1      53.246  28.941  54.619  0.00  0.00    -0.114 N 
ATOM     18  O   UNL d   1      53.679  28.267  54.454  0.00  0.00    -0.532 OA
ATOM     19  O   UNL d   1      52.897  29.046  55.360  0.00  0.00    -0.532 OA
ENDBRANCH  13  17
ENDBRANCH   9  11
ENDBRANCH   8   9
ENDBRANCH   2   8
BRANCH   1  20
ATOM     20  C   UNL d   1      52.963  33.818  53.235  0.00  0.00     0.198 C 
ATOM     21  O   UNL d   1      53.359  33.858  52.512  0.00  0.00    -0.286 OA
BRANCH  20  22
ATOM     22  C   UNL d   1      52.148  33.947  53.269  0.00  0.00     0.043 C 
BRANCH  22  23
ATOM     23  C   UNL d   1      51.762  34.296  52.629  0.00  0.00     0.010 C 
BRANCH  23  24
ATOM     24  C   UNL d   1      50.939  34.369  52.636  0.00  0.00     0.030 A 
ATOM     25  S   UNL d   1      50.417  34.130  52.042  0.00  0.00    -0.086 SA
ATOM     26  C   UNL d   1      49.647  34.308  52.280  0.00  0.00     0.035 A 
ATOM     27  C   UNL d   1      49.685  34.661  53.025  0.00  0.00     0.007 A 
ATOM     28  C   UNL d   1      50.483  34.699  53.247  0.00  0.00     0.007 A 
ENDBRANCH  23  24
ENDBRANCH  22  23
ENDBRANCH  20  22
ENDBRANCH   1  20
TORSDOF 8
ENDMDL
MODEL 3
REMARK VINA RESULT:      -7.5      2.167      4.001
REMARK  8 active torsions:
REMARK  status: ('A' for Active; 'I' for Inactive)
REMARK    1  A    between atoms: C_6  and  N_1 
REMARK    2  A    between atoms: C_7  and  C_2 
REMARK    3  A    between atoms: C_3  and  C_9 
REMARK    4  A    between atoms: O_5  and  C_3 
REMARK    5  A    between atoms: C_4  and  O_5 
REMARK    6  A    between atoms: C_8  and  C_7 
REMARK    7  A    between atoms: C_12  and  C_8 
REMARK    8  A    between atoms: C_10  and  C_12 
ROOT
ATOM      1  C   UNL d   1      52.872  31.334  53.128  0.00  0.00     0.064 A 
ATOM      2  C   UNL d   1      53.396  31.445  53.757  0.00  0.00     0.106 A 
ATOM      3  C   UNL d   1      52.591  30.569  52.953  0.00  0.00     0.035 A 
ATOM      4  C   UNL d   1      53.642  30.791  54.211  0.00  0.00     0.027 A 
ATOM      5  C   UNL d   1      52.837  29.924  53.405  0.00  0.00     0.140 A 
ATOM      6  C   UNL d   1      53.362  30.035  54.033  0.00  0.00     0.032 A 
ATOM      7  F   UNL d   1      52.557  29.169  53.228  0.00  0.00    -0.204 F 
ENDROOT
BRANCH   2   8
ATOM      8  O   UNL d   1      53.679  32.201  53.937  0.00  0.00    -0.273 OA
BRANCH   8   9
ATOM      9  C   UNL d   1      53.933  32.371  54.705  0.00  0.00     0.300 C 
ATOM     10  O   UNL d   1      53.892  31.798  55.294  0.00  0.00    -0.259 OA
BRANCH   9  11
ATOM     11  C   UNL d   1      54.229  33.122  54.877  0.00  0.00     0.065 A 
ATOM     12  C   UNL d   1      53.720  33.768  54.896  0.00  0.00     0.029 A 
ATOM     13  C   UNL d   1      54.007  34.517  55.066  0.00  0.00     0.127 A 
ATOM     14  C   UNL d   1      54.836  34.604  55.221  0.00  0.00     0.024 A 
ATOM     15  C   UNL d   1      55.325  33.978  55.202  0.00  0.00     0.002 A 
ATOM     16  C   UNL d   1      55.034  33.221  55.030  0.00  0.00     0.005 A 
BRANCH  13  17
ATOM     17  N   UNL d   1      53.502  35.181  55.088  0.00  0.00    -0.114 N 
ATOM     18  O   UNL d   1      53.473  35.697  54.453  0.00  0.00    -0.532 OA
ATOM     19  O   UNL d   1      53.035  35.311  55.756  0.00  0.00    -0.532 OA
ENDBRANCH  13  17
ENDBRANCH   9  11
ENDBRANCH   8   9
ENDBRANCH   2   8
BRANCH   1  20
ATOM     20  C   UNL d   1      52.626  31.983  52.675  0.00  0.00     0.198 C 
ATOM     21  O   UNL d   1      53.090  32.245  52.043  0.00  0.00    -0.286 OA
BRANCH  20  22
ATOM     22  C   UNL d   1      51.918  32.367  52.855  0.00  0.00     0.043 C 
BRANCH  22  23
ATOM     23  C   UNL d   1      51.627  32.950  52.349  0.00  0.00     0.010 C 
BRANCH  23  24
ATOM     24  C   UNL d   1      51.086  33.506  52.631  0.00  0.00     0.030 A 
ATOM     25  S   UNL d   1      50.911  34.240  52.294  0.00  0.00    -0.086 SA
ATOM     26  C   UNL d   1      50.341  34.615  52.757  0.00  0.00     0.035 A 
ATOM     27  C   UNL d   1      50.156  34.115  53.387  0.00  0.00     0.007 A 
ATOM     28  C   UNL d   1      50.615  33.430  53.311  0.00  0.00     0.007 A 
ENDBRANCH  23  24
ENDBRANCH  22  23
ENDBRANCH  20  22
ENDBRANCH   1  20
TORSDOF 8
ENDMDL
MODEL 4
REMARK VINA RESULT:      -6.4      1.846      3.197
REMARK  8 active torsions:
REMARK  status: ('A' for Active; 'I' for Inactive)
REMARK    1  A    between atoms: C_6  and  N_1 
REMARK    2  A    between atoms: C_7  and  C_2 
REMARK    3  A    between atoms: C_3  and  C_9 
REMARK    4  A    between atoms: O_5  and  C_3 
REMARK    5  A    between atoms: C_4  and  O_5 
REMARK    6  A    between atoms: C_8  and  C_7 
REMARK    7  A    between atoms: C_12  and  C_8 
REMARK    8  A    between atoms: C_10  and  C_12 
ROOT
ATOM      1  C   UNL d   1      53.233  31.366  53.257  0.00  0.00     0.064 A 
ATOM      2  C   UNL d   1      52.425  31.514  53.171  0.00  0.00     0.106 A 
ATOM      3  C   UNL d   1      53.503  30.585  53.358  0.00  0.00     0.035 A 
ATOM      4  C   UNL d   1      51.885  30.879  53.184  0.00  0.00     0.027 A 
ATOM      5  C   UNL d   1      52.965  29.959  53.370  0.00  0.00     0.140 A 
ATOM      6  C   UNL d   1      52.157  30.106  53.284  0.00  0.00     0.032 A 
ATOM      7  F   UNL d   1      53.237  29.186  53.470  0.00  0.00    -0.204 F 
ENDROOT
BRANCH   2   8
ATOM      8  O   UNL d   1      52.150  32.287  53.071  0.00  0.00    -0.273 OA
BRANCH   8   9
ATOM      9  C   UNL d   1      51.347  32.454  53.183  0.00  0.00     0.300 C 
ATOM     10  O   UNL d   1      50.825  31.860  53.408  0.00  0.00    -0.259 OA
BRANCH   9  11
ATOM     11  C   UNL d   1      51.074  33.224  53.067  0.00  0.00     0.065 A 
ATOM     12  C   UNL d   1      50.620  33.401  52.404  0.00  0.00     0.029 A 
ATOM     13  C   UNL d   1      50.345  34.163  52.282  0.00  0.00     0.127 A 
ATOM     14  C   UNL d   1      50.540  34.758  52.854  0.00  0.00     0.024 A 
ATOM     15  C   UNL d   1      50.978  34.584  53.493  0.00  0.00     0.002 A 
ATOM     16  C   UNL d   1      51.256  33.812  53.615  0.00  0.00     0.005 A 
BRANCH  13  17
ATOM     17  N   UNL d   1      49.883  34.358  51.614  0.00  0.00    -0.114 N 
ATOM     18  O   UNL d   1      50.224  34.376  50.869  0.00  0.00    -0.532 OA
ATOM     19  O   UNL d   1      49.082  34.531  51.713  0.00  0.00    -0.532 OA
ENDBRANCH  13  17
ENDBRANCH   9  11
ENDBRANCH   8   9
ENDBRANCH   2   8
BRANCH   1  20
ATOM     20  C   UNL d   1      53.773  31.996  53.244  0.00  0.00     0.198 C 
ATOM     21  O   UNL d   1      53.996  32.333  52.524  0.00  0.00    -0.286 OA
BRANCH  20  22
ATOM     22  C   UNL d   1      54.086  32.284  53.951  0.00  0.00     0.043 C 
BRANCH  22  23
ATOM     23  C   UNL d   1      54.671  32.866  53.933  0.00  0.00     0.010 C 
BRANCH  23  24
ATOM     24  C   UNL d   1      54.848  33.291  54.618  0.00  0.00     0.030 A 
ATOM     25  S   UNL d   1      55.389  33.913  54.688  0.00  0.00    -0.086 SA
ATOM     26  C   UNL d   1      55.390  34.176  55.470  0.00  0.00     0.035 A 
ATOM     27  C   UNL d   1      54.848  33.719  55.893  0.00  0.00     0.007 A 
ATOM     28  C   UNL d   1      54.513  33.172  55.369  0.00  0.00     0.007 A 
ENDBRANCH  23  24
ENDBRANCH  22  23
ENDBRANCH  20  22
ENDBRANCH   1  20
TORSDOF 8
ENDMDL
MODEL 5
REMARK VINA RESULT:      -6.4      2.370      4.320
REMARK  8 active torsions:
REMARK  status: ('A' for Active; 'I' for Inactive)
REMARK    1  A    between atoms: C_6  and  N_1 
REMARK    2  A    between atoms: C_7  and  C_2 
REMARK    3  A    between atoms: C_3  and  C_9 
REMARK    4  A    between atoms: O_5  and  C_3 
REMARK    5  A    between atoms: C_4  and  O_5 
REMARK    6  A    between atoms: C_8  and  C_7 
REMARK    7  A    between atoms: C_12  and  C_8 
REMARK    8  A    between atoms: C_10  and  C_12 
ROOT
ATOM      1  C   UNL d   1      51.882  33.906  53.160  0.00  0.00     0.064 A 
ATOM      2  C   UNL d   1      51.643  33.120  53.080  0.00  0.00     0.106 A 
ATOM      3  C   UNL d   1      51.312  34.514  53.159  0.00  0.00     0.035 A 
ATOM      4  C   UNL d   1      50.834  32.939  52.998  0.00  0.00     0.027 A 
ATOM      5  C   UNL d   1      50.512  34.331  53.078  0.00  0.00     0.140 A 
ATOM      6  C   UNL d   1      50.273  33.544  52.998  0.00  0.00     0.032 A 
ATOM      7  F   UNL d   1      49.951  34.936  53.078  0.00  0.00    -0.204 F 
ENDROOT
BRANCH   2   8
ATOM      8  O   UNL d   1      52.204  32.511  53.080  0.00  0.00    -0.273 OA
BRANCH   8   9
ATOM      9  C   UNL d   1      51.953  31.723  53.104  0.00  0.00     0.300 C 
ATOM     10  O   UNL d   1      51.151  31.540  53.080  0.00  0.00    -0.259 OA
BRANCH   9  11
ATOM     11  C   UNL d   1      52.514  31.120  53.153  0.00  0.00     0.065 A 
ATOM     12  C   UNL d   1      52.545  30.644  53.823  0.00  0.00     0.029 A 
ATOM     13  C   UNL d   1      53.100  30.043  53.877  0.00  0.00     0.127 A 
ATOM     14  C   UNL d   1      53.636  29.929  53.230  0.00  0.00     0.024 A 
ATOM     15  C   UNL d   1      53.603  30.391  52.585  0.00  0.00     0.002 A 
ATOM     16  C   UNL d   1      53.041  30.998  52.530  0.00  0.00     0.005 A 
BRANCH  13  17
ATOM     17  N   UNL d   1      53.144  29.551  54.551  0.00  0.00    -0.114 N 
ATOM     18  O   UNL d   1      53.339  29.868  55.280  0.00  0.00    -0.532 OA
ATOM     19  O   UNL d   1      52.988  28.744  54.472  0.00  0.00    -0.532 OA
ENDBRANCH  13  17
ENDBRANCH   9  11
ENDBRANCH   8   9
ENDBRANCH   2   8
BRANCH   1  20
ATOM     20  C   UNL d   1      52.687  34.089  53.241  0.00  0.00     0.198 C 
ATOM     21  O   UNL d   1      53.130  34.304  52.579  0.00  0.00    -0.286 OA
BRANCH  20  22
ATOM     22  C   UNL d   1      53.043  34.055  53.985  0.00  0.00     0.043 C 
BRANCH  22  23
ATOM     23  C   UNL d   1      53.813  34.337  54.084  0.00  0.00     0.010 C 
BRANCH  23  24
ATOM     24  C   UNL d   1      54.294  34.017  54.673  0.00  0.00     0.030 A 
ATOM     25  S   UNL d   1      55.112  33.900  54.634  0.00  0.00    -0.086 SA
ATOM     26  C   UNL d   1      55.366  33.567  55.344  0.00  0.00     0.035 A 
ATOM     27  C   UNL d   1      54.707  33.474  55.832  0.00  0.00     0.007 A 
ATOM     28  C   UNL d   1      54.044  33.751  55.419  0.00  0.00     0.007 A 
ENDBRANCH  23  24
ENDBRANCH  22  23
ENDBRANCH  20  22
ENDBRANCH   1  20
TORSDOF 8
ENDMDL
