MODEL 1
REMARK VINA RESULT:      -8.2      0.000      0.000
REMARK  3 active torsions:
REMARK  status: ('A' for Active; 'I' for Inactive)
REMARK    1  A    between atoms: C_9  and  C_1 
REMARK    2  A    between atoms: C_4  and  C_9 
REMARK       I    between atoms: N_5  and  C_4 
REMARK    3  A    between atoms: C_10  and  N_8 
ROOT
ATOM      1  C   UNL d   1     -48.069  12.598  23.287  0.00  0.00     0.265 C 
ATOM      2  N   UNL d   1     -47.337  12.217  23.298  0.00  0.00    -0.269 N 
ATOM      3  N   UNL d   1     -45.855  11.457  23.314  0.00  0.00    -0.299 N 
ATOM      4  C   UNL d   1     -46.687  12.564  22.902  0.00  0.00     0.102 A 
ATOM      5  C   UNL d   1     -47.243  11.507  23.691  0.00  0.00     0.102 A 
ATOM      6  C   UNL d   1     -46.508  11.134  23.697  0.00  0.00     0.100 A 
ATOM      7  C   UNL d   1     -45.951  12.190  22.908  0.00  0.00     0.100 A 
ATOM      8  O   UNL d   1     -48.710  12.258  23.676  0.00  0.00    -0.267 OA
ENDROOT
BRANCH   1   9
ATOM      9  C   UNL d   1     -48.165  13.321  22.887  0.00  0.00     0.063 C 
BRANCH   9  10
ATOM     10  C   UNL d   1     -48.913  13.532  22.600  0.00  0.00     0.024 A 
ATOM     11  C   UNL d   1     -49.361  13.087  22.081  0.00  0.00     0.080 A 
ATOM     12  N   UNL d   1     -50.066  13.497  21.938  0.00  0.00    -0.303 N 
ATOM     13  C   UNL d   1     -50.684  13.258  21.450  0.00  0.00     0.100 C 
ATOM     14  C   UNL d   1     -50.039  14.194  22.375  0.00  0.00     0.064 A 
ATOM     15  C   UNL d   1     -49.331  14.211  22.779  0.00  0.00     0.018 A 
ATOM     16  C   UNL d   1     -50.581  14.816  22.450  0.00  0.00     0.018 A 
ATOM     17  C   UNL d   1     -49.153  14.853  23.266  0.00  0.00     0.002 A 
ATOM     18  C   UNL d   1     -49.686  15.469  23.344  0.00  0.00     0.000 A 
ATOM     19  C   UNL d   1     -50.402  15.453  22.936  0.00  0.00     0.002 A 
ENDBRANCH   9  10
ENDBRANCH   1   9
BRANCH   3  20
ATOM     20  C   UNL d   1     -45.128  11.092  23.317  0.00  0.00     0.092 A 
ATOM     21  C   UNL d   1     -44.478  11.448  22.948  0.00  0.00     0.156 A 
ATOM     22  F   UNL d   1     -44.571  12.171  22.579  0.00  0.00    -0.203 F 
ATOM     23  C   UNL d   1     -43.742  11.068  22.957  0.00  0.00     0.031 A 
ATOM     24  C   UNL d   1     -43.664  10.335  23.336  0.00  0.00     0.002 A 
ATOM     25  C   UNL d   1     -44.308   9.988  23.698  0.00  0.00     0.002 A 
ATOM     26  C   UNL d   1     -45.040  10.369  23.688  0.00  0.00     0.020 A 
ENDBRANCH   3  20
TORSDOF 3
ENDMDL
MODEL 2
REMARK VINA RESULT:      -8.1      1.621      5.605
REMARK  3 active torsions:
REMARK  status: ('A' for Active; 'I' for Inactive)
REMARK    1  A    between atoms: C_9  and  C_1 
REMARK    2  A    between atoms: C_4  and  C_9 
REMARK       I    between atoms: N_5  and  C_4 
REMARK    3  A    between atoms: C_10  and  N_8 
ROOT
ATOM      1  C   UNL d   1     -46.400  13.510  22.720  0.00  0.00     0.265 C 
ATOM      2  N   UNL d   1     -47.176  13.793  22.743  0.00  0.00    -0.269 N 
ATOM      3  N   UNL d   1     -48.743  14.353  22.790  0.00  0.00    -0.299 N 
ATOM      4  C   UNL d   1     -47.806  13.256  22.858  0.00  0.00     0.102 A 
ATOM      5  C   UNL d   1     -47.330  14.590  22.654  0.00  0.00     0.102 A 
ATOM      6  C   UNL d   1     -48.107  14.864  22.678  0.00  0.00     0.100 A 
ATOM      7  C   UNL d   1     -48.584  13.530  22.882  0.00  0.00     0.100 A 
ATOM      8  O   UNL d   1     -45.778  14.037  22.607  0.00  0.00    -0.267 OA
ENDROOT
BRANCH   1   9
ATOM      9  C   UNL d   1     -46.242  12.699  22.810  0.00  0.00     0.063 C 
BRANCH   9  10
ATOM     10  C   UNL d   1     -45.477  12.414  22.673  0.00  0.00     0.024 A 
ATOM     11  C   UNL d   1     -44.915  12.779  22.203  0.00  0.00     0.080 A 
ATOM     12  N   UNL d   1     -44.231  12.314  22.217  0.00  0.00    -0.303 N 
ATOM     13  C   UNL d   1     -43.524  12.466  21.823  0.00  0.00     0.100 C 
ATOM     14  C   UNL d   1     -44.384  11.664  22.699  0.00  0.00     0.064 A 
ATOM     15  C   UNL d   1     -45.148  11.730  22.976  0.00  0.00     0.018 A 
ATOM     16  C   UNL d   1     -43.912  11.019  22.917  0.00  0.00     0.018 A 
ATOM     17  C   UNL d   1     -45.453  11.150  23.477  0.00  0.00     0.002 A 
ATOM     18  C   UNL d   1     -44.990  10.511  23.694  0.00  0.00     0.000 A 
ATOM     19  C   UNL d   1     -44.218  10.443  23.415  0.00  0.00     0.002 A 
ENDBRANCH   9  10
ENDBRANCH   1   9
BRANCH   3  20
ATOM     20  C   UNL d   1     -49.511  14.619  22.815  0.00  0.00     0.092 A 
ATOM     21  C   UNL d   1     -50.041  14.431  22.207  0.00  0.00     0.156 A 
ATOM     22  F   UNL d   1     -49.786  13.975  21.578  0.00  0.00    -0.203 F 
ATOM     23  C   UNL d   1     -50.821  14.706  22.242  0.00  0.00     0.031 A 
ATOM     24  C   UNL d   1     -51.064  15.168  22.886  0.00  0.00     0.002 A 
ATOM     25  C   UNL d   1     -50.538  15.350  23.483  0.00  0.00     0.002 A 
ATOM     26  C   UNL d   1     -49.761  15.074  23.446  0.00  0.00     0.020 A 
ENDBRANCH   3  20
TORSDOF 3
ENDMDL
MODEL 3
REMARK VINA RESULT:      -8.1      1.570      2.235
REMARK  3 active torsions:
REMARK  status: ('A' for Active; 'I' for Inactive)
REMARK    1  A    between atoms: C_9  and  C_1 
REMARK    2  A    between atoms: C_4  and  C_9 
REMARK       I    between atoms: N_5  and  C_4 
REMARK    3  A    between atoms: C_10  and  N_8 
ROOT
ATOM      1  C   UNL d   1     -47.798  13.853  22.764  0.00  0.00     0.265 C 
ATOM      2  N   UNL d   1     -47.028  13.617  22.579  0.00  0.00    -0.269 N 
ATOM      3  N   UNL d   1     -45.480  13.134  22.199  0.00  0.00    -0.299 N 
ATOM      4  C   UNL d   1     -46.909  12.944  22.096  0.00  0.00     0.102 A 
ATOM      5  C   UNL d   1     -46.387  14.035  22.862  0.00  0.00     0.102 A 
ATOM      6  C   UNL d   1     -45.621  13.793  22.672  0.00  0.00     0.100 A 
ATOM      7  C   UNL d   1     -46.144  12.702  21.906  0.00  0.00     0.100 A 
ATOM      8  O   UNL d   1     -47.917  14.515  23.239  0.00  0.00    -0.267 OA
ENDROOT
BRANCH   1   9
ATOM      9  C   UNL d   1     -48.452  13.428  22.476  0.00  0.00     0.063 C 
BRANCH   9  10
ATOM     10  C   UNL d   1     -49.208  13.593  22.772  0.00  0.00     0.024 A 
ATOM     11  C   UNL d   1     -49.542  14.337  22.823  0.00  0.00     0.080 A 
ATOM     12  N   UNL d   1     -50.299  14.254  23.149  0.00  0.00    -0.303 N 
ATOM     13  C   UNL d   1     -50.838  14.857  23.302  0.00  0.00     0.100 C 
ATOM     14  C   UNL d   1     -50.419  13.453  23.294  0.00  0.00     0.064 A 
ATOM     15  C   UNL d   1     -49.747  13.051  23.061  0.00  0.00     0.018 A 
ATOM     16  C   UNL d   1     -51.064  13.043  23.612  0.00  0.00     0.018 A 
ATOM     17  C   UNL d   1     -49.712  12.231  23.144  0.00  0.00     0.002 A 
ATOM     18  C   UNL d   1     -50.348  11.823  23.458  0.00  0.00     0.000 A 
ATOM     19  C   UNL d   1     -51.027  12.227  23.694  0.00  0.00     0.002 A 
ENDBRANCH   9  10
ENDBRANCH   1   9
BRANCH   3  20
ATOM     20  C   UNL d   1     -44.728  12.891  22.009  0.00  0.00     0.092 A 
ATOM     21  C   UNL d   1     -44.396  12.227  22.374  0.00  0.00     0.156 A 
ATOM     22  F   UNL d   1     -44.830  11.813  22.929  0.00  0.00    -0.203 F 
ATOM     23  C   UNL d   1     -43.629  11.988  22.174  0.00  0.00     0.031 A 
ATOM     24  C   UNL d   1     -43.201  12.418  21.609  0.00  0.00     0.002 A 
ATOM     25  C   UNL d   1     -43.533  13.072  21.252  0.00  0.00     0.002 A 
ATOM     26  C   UNL d   1     -44.297  13.308  21.454  0.00  0.00     0.020 A 
ENDBRANCH   3  20
TORSDOF 3
ENDMDL
MODEL 4
REMARK VINA RESULT:      -5.4      3.744      5.116
REMARK  3 active torsions:
REMARK  status: ('A' for Active; 'I' for Inactive)
REMARK    1  A    between atoms: C_9  and  C_1 
REMARK    2  A    between atoms: C_4  and  C_9 
REMARK       I    between atoms: N_5  and  C_4 
REMARK    3  A    between atoms: C_10  and  N_8 
ROOT
ATOM      1  C   UNL d   1     -43.672  12.781  21.712  0.00  0.00     0.265 C 
ATOM      2  N   UNL d   1     -42.995  13.177  21.457  0.00  0.00    -0.269 N 
ATOM      3  N   UNL d   1     -41.633  13.985  20.940  0.00  0.00    -0.299 N 
ATOM      4  C   UNL d   1     -43.046  13.983  21.240  0.00  0.00     0.102 A 
ATOM      5  C   UNL d   1     -42.278  12.789  21.415  0.00  0.00     0.102 A 
ATOM      6  C   UNL d   1     -41.605  13.192  21.158  0.00  0.00     0.100 A 
ATOM      7  C   UNL d   1     -42.374  14.387  20.984  0.00  0.00     0.100 A 
ATOM      8  O   UNL d   1     -43.624  11.987  21.926  0.00  0.00    -0.267 OA
ENDROOT
BRANCH   1   9
ATOM      9  C   UNL d   1     -44.403  13.175  21.755  0.00  0.00     0.063 C 
BRANCH   9  10
ATOM     10  C   UNL d   1     -45.000  12.877  22.246  0.00  0.00     0.024 A 
ATOM     11  C   UNL d   1     -45.007  12.130  22.579  0.00  0.00     0.080 A 
ATOM     12  N   UNL d   1     -45.699  12.058  23.028  0.00  0.00    -0.303 N 
ATOM     13  C   UNL d   1     -45.938  11.401  23.462  0.00  0.00     0.100 C 
ATOM     14  C   UNL d   1     -46.110  12.768  22.963  0.00  0.00     0.064 A 
ATOM     15  C   UNL d   1     -45.678  13.267  22.483  0.00  0.00     0.018 A 
ATOM     16  C   UNL d   1     -46.831  13.017  23.287  0.00  0.00     0.018 A 
ATOM     17  C   UNL d   1     -45.961  14.024  22.320  0.00  0.00     0.002 A 
ATOM     18  C   UNL d   1     -46.672  14.274  22.638  0.00  0.00     0.000 A 
ATOM     19  C   UNL d   1     -47.110  13.771  23.123  0.00  0.00     0.002 A 
ENDBRANCH   9  10
ENDBRANCH   1   9
BRANCH   3  20
ATOM     20  C   UNL d   1     -40.973  14.387  20.687  0.00  0.00     0.092 A 
ATOM     21  C   UNL d   1     -40.730  14.340  19.898  0.00  0.00     0.156 A 
ATOM     22  F   UNL d   1     -41.158  13.885  19.371  0.00  0.00    -0.203 F 
ATOM     23  C   UNL d   1     -40.056  14.753  19.650  0.00  0.00     0.031 A 
ATOM     24  C   UNL d   1     -39.632  15.211  20.197  0.00  0.00     0.002 A 
ATOM     25  C   UNL d   1     -39.877  15.254  20.974  0.00  0.00     0.002 A 
ATOM     26  C   UNL d   1     -40.548  14.841  21.218  0.00  0.00     0.020 A 
ENDBRANCH   3  20
TORSDOF 3
ENDMDL
