MODEL 1
REMARK VINA RESULT:      35.6      0.000      0.000
REMARK  4 active torsions:
REMARK  status: ('A' for Active; 'I' for Inactive)
REMARK    1  A    between atoms: N_2  and  S_1 
REMARK    2  A    between atoms: C_3  and  S_1 
REMARK    3  A    between atoms: C_11  and  N_2 
REMARK    4  A    between atoms: C_6  and  C_7 
ROOT
ATOM      1  S   UNL d   1      14.204  12.928  -2.204  0.00  0.00     0.285 S 
ATOM      2  O   UNL d   1      13.784  12.338  -1.812  0.00  0.00    -0.198 OA
ATOM      3  O   UNL d   1      14.626  13.524  -2.615  0.00  0.00    -0.198 OA
ENDROOT
BRANCH   1   4
ATOM      4  N   UNL d   1      14.558  13.154  -1.503  0.00  0.00    -0.158 NA
BRANCH   4   5
ATOM      5  C   UNL d   1      14.723  13.946  -1.357  0.00  0.00     0.094 A 
ATOM      6  C   UNL d   1      15.006  14.146  -0.605  0.00  0.00     0.020 A 
ATOM      7  C   UNL d   1      15.178  14.950  -0.444  0.00  0.00     0.005 A 
ATOM      8  C   UNL d   1      15.064  15.520  -1.030  0.00  0.00     0.039 A 
ATOM      9  C   UNL d   1      14.784  15.318  -1.776  0.00  0.00     0.005 A 
ATOM     10  C   UNL d   1      14.614  14.529  -1.936  0.00  0.00     0.020 A 
BRANCH   8  11
ATOM     11  C   UNL d   1      15.239  16.326  -0.860  0.00  0.00     0.196 C 
ATOM     12  O   UNL d   1      15.529  16.520  -0.113  0.00  0.00    -0.287 OA
ATOM     13  C   UNL d   1      15.115  16.893  -1.446  0.00  0.00     0.045 C 
ENDBRANCH   8  11
ENDBRANCH   4   5
ENDBRANCH   1   4
BRANCH   1  14
ATOM     14  C   UNL d   1      13.832  12.693  -2.949  0.00  0.00     0.105 A 
ATOM     15  C   UNL d   1      14.104  12.026  -3.329  0.00  0.00     0.015 A 
ATOM     16  C   UNL d   1      13.763  11.783  -4.042  0.00  0.00     0.022 A 
ATOM     17  C   UNL d   1      13.150  12.217  -4.363  0.00  0.00     0.103 A 
ATOM     18  C   UNL d   1      12.867  12.908  -3.971  0.00  0.00     0.022 A 
ATOM     19  N   UNL d   1      12.799  11.968  -5.095  0.00  0.00    -0.148 N 
ATOM     20  C   UNL d   1      13.232  13.126  -3.256  0.00  0.00     0.015 A 
ENDBRANCH   1  14
TORSDOF 4
ENDMDL
MODEL 2
REMARK VINA RESULT:      36.6      1.726      4.373
REMARK  4 active torsions:
REMARK  status: ('A' for Active; 'I' for Inactive)
REMARK    1  A    between atoms: N_2  and  S_1 
REMARK    2  A    between atoms: C_3  and  S_1 
REMARK    3  A    between atoms: C_11  and  N_2 
REMARK    4  A    between atoms: C_6  and  C_7 
ROOT
ATOM      1  S   UNL d   1      15.226  14.514  -0.517  0.00  0.00     0.285 S 
ATOM      2  O   UNL d   1      15.863  14.349  -1.013  0.00  0.00    -0.198 OA
ATOM      3  O   UNL d   1      14.581  14.696  -0.015  0.00  0.00    -0.198 OA
ENDROOT
BRANCH   1   4
ATOM      4  N   UNL d   1      15.071  13.716  -0.435  0.00  0.00    -0.158 NA
BRANCH   4   5
ATOM      5  C   UNL d   1      14.697  13.301  -1.038  0.00  0.00     0.094 A 
ATOM      6  C   UNL d   1      14.690  12.475  -0.988  0.00  0.00     0.020 A 
ATOM      7  C   UNL d   1      14.311  12.041  -1.597  0.00  0.00     0.005 A 
ATOM      8  C   UNL d   1      13.957  12.440  -2.227  0.00  0.00     0.039 A 
ATOM      9  C   UNL d   1      13.966  13.260  -2.274  0.00  0.00     0.005 A 
ATOM     10  C   UNL d   1      14.337  13.689  -1.677  0.00  0.00     0.020 A 
BRANCH   8  11
ATOM     11  C   UNL d   1      13.578  11.996  -2.834  0.00  0.00     0.196 C 
ATOM     12  O   UNL d   1      12.787  11.789  -2.738  0.00  0.00    -0.287 OA
ATOM     13  C   UNL d   1      14.012  11.785  -3.503  0.00  0.00     0.045 C 
ENDBRANCH   8  11
ENDBRANCH   4   5
ENDBRANCH   1   4
BRANCH   1  14
ATOM     14  C   UNL d   1      15.386  15.361  -0.601  0.00  0.00     0.105 A 
ATOM     15  C   UNL d   1      14.956  15.789  -1.144  0.00  0.00     0.015 A 
ATOM     16  C   UNL d   1      15.093  16.599  -1.240  0.00  0.00     0.022 A 
ATOM     17  C   UNL d   1      15.663  16.967  -0.786  0.00  0.00     0.103 A 
ATOM     18  C   UNL d   1      16.110  16.525  -0.223  0.00  0.00     0.022 A 
ATOM     19  N   UNL d   1      15.804  17.799  -0.884  0.00  0.00    -0.148 N 
ATOM     20  C   UNL d   1      15.948  15.713  -0.151  0.00  0.00     0.015 A 
ENDBRANCH   1  14
TORSDOF 4
ENDMDL
