MODEL 1
REMARK VINA RESULT:      -4.9      0.000      0.000
REMARK  9 active torsions:
REMARK  status: ('A' for Active; 'I' for Inactive)
REMARK    1  A    between atoms: C_5  and  C_1 
REMARK    2  A    between atoms: C_10  and  C_2 
REMARK    3  A    between atoms: S_11  and  C_3 
REMARK    4  A    between atoms: C_9  and  C_4 
REMARK       I    between atoms: N_8  and  C_5 
REMARK    5  A    between atoms: C_13  and  N_8 
REMARK    6  A    between atoms: C_18  and  S_11 
REMARK    7  A    between atoms: C_16  and  C_18 
REMARK    8  A    between atoms: C_23  and  C_16 
REMARK    9  A    between atoms: O_25  and  C_20 
ROOT
ATOM      1  C   UNL d   1      52.629  32.464  53.342  0.00  0.00     0.077 A 
ATOM      2  C   UNL d   1      52.302  33.785  53.768  0.00  0.00     0.047 A 
ATOM      3  C   UNL d   1      51.588  33.743  53.349  0.00  0.00     0.112 A 
ATOM      4  C   UNL d   1      52.823  33.145  53.765  0.00  0.00     0.032 A 
ATOM      5  C   UNL d   1      51.915  32.422  52.922  0.00  0.00     0.087 A 
ATOM      6  N   UNL d   1      51.394  33.062  52.925  0.00  0.00    -0.239 NA
ATOM      7  C   UNL d   1      51.709  31.735  52.489  0.00  0.00     0.021 C 
ENDROOT
BRANCH   1   8
ATOM      8  C   UNL d   1      53.166  31.819  53.346  0.00  0.00     0.281 C 
ATOM      9  N   UNL d   1      52.916  31.089  53.617  0.00  0.00    -0.206 NA
ATOM     10  O   UNL d   1      53.930  31.926  53.079  0.00  0.00    -0.265 OA
BRANCH   9  11
ATOM     11  C   UNL d   1      53.433  30.458  53.623  0.00  0.00     0.107 A 
ATOM     12  C   UNL d   1      53.389  29.887  54.208  0.00  0.00     0.112 A 
ATOM     13  C   UNL d   1      53.920  29.256  54.199  0.00  0.00     0.026 A 
ATOM     14  C   UNL d   1      54.497  29.204  53.597  0.00  0.00     0.002 A 
ATOM     15  C   UNL d   1      54.537  29.777  53.015  0.00  0.00     0.002 A 
ATOM     16  C   UNL d   1      54.005  30.408  53.024  0.00  0.00     0.021 A 
BRANCH  12  17
ATOM     17  O   UNL d   1      52.817  29.929  54.815  0.00  0.00    -0.327 OA
ATOM     18  C   UNL d   1      52.634  29.397  55.629  0.00  0.00     0.181 C 
ENDBRANCH  12  17
ENDBRANCH   9  11
ENDBRANCH   1   8
BRANCH   4  19
ATOM     19  C   UNL d   1      53.541  33.187  54.188  0.00  0.00     0.100 A 
ATOM     20  O   UNL d   1      53.549  33.044  54.997  0.00  0.00    -0.305 OA
ATOM     21  C   UNL d   1      54.337  33.126  55.255  0.00  0.00     0.123 A 
ATOM     22  C   UNL d   1      54.797  33.313  54.627  0.00  0.00     0.029 A 
ATOM     23  C   UNL d   1      54.333  33.356  53.961  0.00  0.00     0.027 A 
ENDBRANCH   4  19
BRANCH   2  24
ATOM     24  C   UNL d   1      52.507  34.478  54.204  0.00  0.00     0.124 C 
ATOM     25  N   UNL d   1      52.673  35.174  53.810  0.00  0.00    -0.146 N 
ENDBRANCH   2  24
BRANCH   3  26
ATOM     26  S   UNL d   1      51.050  34.393  53.347  0.00  0.00    -0.064 SA
BRANCH  26  27
ATOM     27  C   UNL d   1      50.396  34.383  52.859  0.00  0.00     0.079 C 
BRANCH  27  28
ATOM     28  C   UNL d   1      49.812  34.928  52.975  0.00  0.00     0.202 C 
ATOM     29  O   UNL d   1      49.831  35.410  53.651  0.00  0.00    -0.286 OA
BRANCH  28  30
ATOM     30  C   UNL d   1      49.206  35.005  52.431  0.00  0.00     0.040 A 
ATOM     31  C   UNL d   1      49.272  34.657  51.679  0.00  0.00     0.003 A 
ATOM     32  C   UNL d   1      48.663  34.732  51.128  0.00  0.00     0.000 A 
ATOM     33  C   UNL d   1      47.967  35.171  51.340  0.00  0.00     0.000 A 
ATOM     34  C   UNL d   1      47.922  35.509  52.091  0.00  0.00     0.000 A 
ATOM     35  C   UNL d   1      48.531  35.429  52.632  0.00  0.00     0.003 A 
ENDBRANCH  28  30
ENDBRANCH  27  28
ENDBRANCH  26  27
ENDBRANCH   3  26
TORSDOF 9
ENDMDL
MODEL 2
REMARK VINA RESULT:      -3.9      1.460      2.884
REMARK  9 active torsions:
REMARK  status: ('A' for Active; 'I' for Inactive)
REMARK    1  A    between atoms: C_5  and  C_1 
REMARK    2  A    between atoms: C_10  and  C_2 
REMARK    3  A    between atoms: S_11  and  C_3 
REMARK    4  A    between atoms: C_9  and  C_4 
REMARK       I    between atoms: N_8  and  C_5 
REMARK    5  A    between atoms: C_13  and  N_8 
REMARK    6  A    between atoms: C_18  and  S_11 
REMARK    7  A    between atoms: C_16  and  C_18 
REMARK    8  A    between atoms: C_23  and  C_16 
REMARK    9  A    between atoms: O_25  and  C_20 
ROOT
ATOM      1  C   UNL d   1      52.516  33.772  53.144  0.00  0.00     0.077 A 
ATOM      2  C   UNL d   1      51.257  33.190  52.814  0.00  0.00     0.047 A 
ATOM      3  C   UNL d   1      50.934  33.947  52.711  0.00  0.00     0.112 A 
ATOM      4  C   UNL d   1      52.048  33.102  53.030  0.00  0.00     0.032 A 
ATOM      5  C   UNL d   1      52.194  34.529  53.041  0.00  0.00     0.087 A 
ATOM      6  N   UNL d   1      51.403  34.617  52.824  0.00  0.00    -0.239 NA
ATOM      7  C   UNL d   1      52.661  35.216  53.153  0.00  0.00     0.021 C 
ENDROOT
BRANCH   1   8
ATOM      8  C   UNL d   1      53.319  33.671  53.364  0.00  0.00     0.281 C 
ATOM      9  N   UNL d   1      53.573  33.937  54.095  0.00  0.00    -0.206 NA
ATOM     10  O   UNL d   1      53.839  33.310  52.848  0.00  0.00    -0.265 OA
BRANCH   9  11
ATOM     11  C   UNL d   1      54.353  33.842  54.315  0.00  0.00     0.107 A 
ATOM     12  C   UNL d   1      54.576  33.901  55.100  0.00  0.00     0.112 A 
ATOM     13  C   UNL d   1      55.369  33.801  55.305  0.00  0.00     0.026 A 
ATOM     14  C   UNL d   1      55.936  33.642  54.713  0.00  0.00     0.002 A 
ATOM     15  C   UNL d   1      55.708  33.585  53.930  0.00  0.00     0.002 A 
ATOM     16  C   UNL d   1      54.915  33.684  53.725  0.00  0.00     0.021 A 
BRANCH  12  17
ATOM     17  O   UNL d   1      54.017  34.059  55.701  0.00  0.00    -0.327 OA
ATOM     18  C   UNL d   1      53.878  34.806  56.334  0.00  0.00     0.181 C 
ENDBRANCH  12  17
ENDBRANCH   9  11
ENDBRANCH   1   8
BRANCH   4  19
ATOM     19  C   UNL d   1      52.373  32.340  53.134  0.00  0.00     0.100 A 
ATOM     20  O   UNL d   1      52.688  31.939  52.490  0.00  0.00    -0.305 OA
ATOM     21  C   UNL d   1      52.964  31.204  52.768  0.00  0.00     0.123 A 
ATOM     22  C   UNL d   1      52.825  31.155  53.555  0.00  0.00     0.029 A 
ATOM     23  C   UNL d   1      52.463  31.840  53.803  0.00  0.00     0.027 A 
ENDBRANCH   4  19
BRANCH   2  24
ATOM     24  C   UNL d   1      50.785  32.500  52.700  0.00  0.00     0.124 C 
ATOM     25  N   UNL d   1      50.199  32.312  53.237  0.00  0.00    -0.146 N 
ENDBRANCH   2  24
BRANCH   3  26
ATOM     26  S   UNL d   1      50.126  34.045  52.489  0.00  0.00    -0.064 SA
BRANCH  26  27
ATOM     27  C   UNL d   1      49.750  34.758  52.617  0.00  0.00     0.079 C 
BRANCH  27  28
ATOM     28  C   UNL d   1      49.076  34.924  52.205  0.00  0.00     0.202 C 
ATOM     29  O   UNL d   1      48.937  34.548  51.477  0.00  0.00    -0.286 OA
BRANCH  28  30
ATOM     30  C   UNL d   1      48.532  35.459  52.503  0.00  0.00     0.040 A 
ATOM     31  C   UNL d   1      48.583  35.711  53.292  0.00  0.00     0.003 A 
ATOM     32  C   UNL d   1      48.037  36.249  53.596  0.00  0.00     0.000 A 
ATOM     33  C   UNL d   1      47.422  36.544  53.088  0.00  0.00     0.000 A 
ATOM     34  C   UNL d   1      47.390  36.281  52.307  0.00  0.00     0.000 A 
ATOM     35  C   UNL d   1      47.936  35.746  52.015  0.00  0.00     0.003 A 
ENDBRANCH  28  30
ENDBRANCH  27  28
ENDBRANCH  26  27
ENDBRANCH   3  26
TORSDOF 9
ENDMDL
MODEL 3
REMARK VINA RESULT:      -3.9      1.282      5.493
REMARK  9 active torsions:
REMARK  status: ('A' for Active; 'I' for Inactive)
REMARK    1  A    between atoms: C_5  and  C_1 
REMARK    2  A    between atoms: C_10  and  C_2 
REMARK    3  A    between atoms: S_11  and  C_3 
REMARK    4  A    between atoms: C_9  and  C_4 
REMARK       I    between atoms: N_8  and  C_5 
REMARK    5  A    between atoms: C_13  and  N_8 
REMARK    6  A    between atoms: C_18  and  S_11 
REMARK    7  A    between atoms: C_16  and  C_18 
REMARK    8  A    between atoms: C_23  and  C_16 
REMARK    9  A    between atoms: O_25  and  C_20 
ROOT
ATOM      1  C   UNL d   1      51.508  33.280  53.411  0.00  0.00     0.077 A 
ATOM      2  C   UNL d   1      52.880  32.891  53.439  0.00  0.00     0.047 A 
ATOM      3  C   UNL d   1      52.658  32.101  53.324  0.00  0.00     0.112 A 
ATOM      4  C   UNL d   1      52.305  33.481  53.483  0.00  0.00     0.032 A 
ATOM      5  C   UNL d   1      51.287  32.490  53.296  0.00  0.00     0.087 A 
ATOM      6  N   UNL d   1      51.862  31.900  53.252  0.00  0.00    -0.239 NA
ATOM      7  C   UNL d   1      50.480  32.275  53.221  0.00  0.00     0.021 C 
ENDROOT
BRANCH   1   8
ATOM      8  C   UNL d   1      50.932  33.888  53.456  0.00  0.00     0.281 C 
ATOM      9  N   UNL d   1      50.403  33.988  52.840  0.00  0.00    -0.206 NA
ATOM     10  O   UNL d   1      50.904  34.373  54.113  0.00  0.00    -0.265 OA
BRANCH   9  11
ATOM     11  C   UNL d   1      49.840  34.578  52.878  0.00  0.00     0.107 A 
ATOM     12  C   UNL d   1      49.452  34.829  52.204  0.00  0.00     0.112 A 
ATOM     13  C   UNL d   1      48.886  35.426  52.260  0.00  0.00     0.026 A 
ATOM     14  C   UNL d   1      48.713  35.769  53.002  0.00  0.00     0.002 A 
ATOM     15  C   UNL d   1      49.104  35.514  53.674  0.00  0.00     0.002 A 
ATOM     16  C   UNL d   1      49.670  34.916  53.617  0.00  0.00     0.021 A 
BRANCH  12  17
ATOM     17  O   UNL d   1      49.617  34.494  51.456  0.00  0.00    -0.327 OA
ATOM     18  C   UNL d   1      49.064  34.252  50.672  0.00  0.00     0.181 C 
ENDBRANCH  12  17
ENDBRANCH   9  11
ENDBRANCH   1   8
BRANCH   4  19
ATOM     19  C   UNL d   1      52.528  34.278  53.599  0.00  0.00     0.100 A 
ATOM     20  O   UNL d   1      52.653  34.561  54.360  0.00  0.00    -0.305 OA
ATOM     21  C   UNL d   1      52.866  35.363  54.293  0.00  0.00     0.123 A 
ATOM     22  C   UNL d   1      52.873  35.567  53.518  0.00  0.00     0.029 A 
ATOM     23  C   UNL d   1      52.669  34.918  53.072  0.00  0.00     0.027 A 
ENDBRANCH   4  19
BRANCH   2  24
ATOM     24  C   UNL d   1      53.693  33.106  53.514  0.00  0.00     0.124 C 
ATOM     25  N   UNL d   1      54.214  32.952  52.904  0.00  0.00    -0.146 N 
ENDBRANCH   2  24
BRANCH   3  26
ATOM     26  S   UNL d   1      53.241  31.492  53.279  0.00  0.00    -0.064 SA
BRANCH  26  27
ATOM     27  C   UNL d   1      53.044  30.723  53.469  0.00  0.00     0.079 C 
BRANCH  27  28
ATOM     28  C   UNL d   1      53.635  30.185  53.584  0.00  0.00     0.202 C 
ATOM     29  O   UNL d   1      54.343  30.256  53.155  0.00  0.00    -0.286 OA
BRANCH  28  30
ATOM     30  C   UNL d   1      53.538  29.574  54.120  0.00  0.00     0.040 A 
ATOM     31  C   UNL d   1      53.541  28.785  53.860  0.00  0.00     0.003 A 
ATOM     32  C   UNL d   1      53.443  28.167  54.396  0.00  0.00     0.000 A 
ATOM     33  C   UNL d   1      53.340  28.349  55.221  0.00  0.00     0.000 A 
ATOM     34  C   UNL d   1      53.341  29.139  55.458  0.00  0.00     0.000 A 
ATOM     35  C   UNL d   1      53.438  29.746  54.917  0.00  0.00     0.003 A 
ENDBRANCH  28  30
ENDBRANCH  27  28
ENDBRANCH  26  27
ENDBRANCH   3  26
TORSDOF 9
ENDMDL
MODEL 4
REMARK VINA RESULT:      -3.8      2.989      7.284
REMARK  9 active torsions:
REMARK  status: ('A' for Active; 'I' for Inactive)
REMARK    1  A    between atoms: C_5  and  C_1 
REMARK    2  A    between atoms: C_10  and  C_2 
REMARK    3  A    between atoms: S_11  and  C_3 
REMARK    4  A    between atoms: C_9  and  C_4 
REMARK       I    between atoms: N_8  and  C_5 
REMARK    5  A    between atoms: C_13  and  N_8 
REMARK    6  A    between atoms: C_18  and  S_11 
REMARK    7  A    between atoms: C_16  and  C_18 
REMARK    8  A    between atoms: C_23  and  C_16 
REMARK    9  A    between atoms: O_25  and  C_20 
ROOT
ATOM      1  C   UNL d   1      47.339  35.702  53.238  0.00  0.00     0.077 A 
ATOM      2  C   UNL d   1      47.945  35.350  51.996  0.00  0.00     0.047 A 
ATOM      3  C   UNL d   1      48.667  35.226  52.383  0.00  0.00     0.112 A 
ATOM      4  C   UNL d   1      47.280  35.588  52.423  0.00  0.00     0.032 A 
ATOM      5  C   UNL d   1      48.062  35.578  53.625  0.00  0.00     0.087 A 
ATOM      6  N   UNL d   1      48.726  35.340  53.198  0.00  0.00    -0.239 NA
ATOM      7  C   UNL d   1      48.132  35.691  54.453  0.00  0.00     0.021 C 
ENDROOT
BRANCH   1   8
ATOM      8  C   UNL d   1      46.657  35.944  53.663  0.00  0.00     0.281 C 
ATOM      9  N   UNL d   1      46.301  35.422  54.183  0.00  0.00    -0.206 NA
ATOM     10  O   UNL d   1      46.356  36.695  53.553  0.00  0.00    -0.265 OA
BRANCH   9  11
ATOM     11  C   UNL d   1      45.638  35.652  54.599  0.00  0.00     0.107 A 
ATOM     12  C   UNL d   1      45.091  35.098  54.851  0.00  0.00     0.112 A 
ATOM     13  C   UNL d   1      44.426  35.347  55.271  0.00  0.00     0.026 A 
ATOM     14  C   UNL d   1      44.315  36.159  55.435  0.00  0.00     0.002 A 
ATOM     15  C   UNL d   1      44.865  36.708  55.180  0.00  0.00     0.002 A 
ATOM     16  C   UNL d   1      45.530  36.459  54.761  0.00  0.00     0.021 A 
BRANCH  12  17
ATOM     17  O   UNL d   1      45.191  34.284  54.693  0.00  0.00    -0.327 OA
ATOM     18  C   UNL d   1      44.573  33.514  54.620  0.00  0.00     0.181 C 
ENDBRANCH  12  17
ENDBRANCH   9  11
ENDBRANCH   1   8
BRANCH   4  19
ATOM     19  C   UNL d   1      46.553  35.712  52.033  0.00  0.00     0.100 A 
ATOM     20  O   UNL d   1      46.069  35.072  51.855  0.00  0.00    -0.305 OA
ATOM     21  C   UNL d   1      45.393  35.372  51.472  0.00  0.00     0.123 A 
ATOM     22  C   UNL d   1      45.458  36.168  51.417  0.00  0.00     0.029 A 
ATOM     23  C   UNL d   1      46.160  36.401  51.754  0.00  0.00     0.027 A 
ENDBRANCH   4  19
BRANCH   2  24
ATOM     24  C   UNL d   1      47.876  35.235  51.163  0.00  0.00     0.124 C 
ATOM     25  N   UNL d   1      48.144  34.543  50.822  0.00  0.00    -0.146 N 
ENDBRANCH   2  24
BRANCH   3  26
ATOM     26  S   UNL d   1      49.351  34.983  51.953  0.00  0.00    -0.064 SA
BRANCH  26  27
ATOM     27  C   UNL d   1      49.867  34.440  52.278  0.00  0.00     0.079 C 
BRANCH  27  28
ATOM     28  C   UNL d   1      50.617  34.389  51.983  0.00  0.00     0.202 C 
ATOM     29  O   UNL d   1      50.753  34.547  51.179  0.00  0.00    -0.286 OA
BRANCH  28  30
ATOM     30  C   UNL d   1      51.239  34.183  52.473  0.00  0.00     0.040 A 
ATOM     31  C   UNL d   1      51.798  34.753  52.702  0.00  0.00     0.003 A 
ATOM     32  C   UNL d   1      52.427  34.550  53.196  0.00  0.00     0.000 A 
ATOM     33  C   UNL d   1      52.494  33.747  53.468  0.00  0.00     0.000 A 
ATOM     34  C   UNL d   1      51.928  33.196  53.228  0.00  0.00     0.000 A 
ATOM     35  C   UNL d   1      51.308  33.408  52.738  0.00  0.00     0.003 A 
ENDBRANCH  28  30
ENDBRANCH  27  28
ENDBRANCH  26  27
ENDBRANCH   3  26
TORSDOF 9
ENDMDL
