MODEL 1
REMARK VINA RESULT:      60.7      0.000      0.000
REMARK  4 active torsions:
REMARK  status: ('A' for Active; 'I' for Inactive)
REMARK    1  A    between atoms: C_2  and  S_1 
REMARK    2  A    between atoms: N_3  and  S_1 
REMARK    3  A    between atoms: C_12  and  N_3 
REMARK    4  A    between atoms: N_4  and  C_8 
ROOT
ATOM      1  S   UNL d   1     -55.221-101.991 -41.979  0.00  0.00     0.285 S 
ATOM      2  O   UNL d   1     -55.177-101.547 -41.247  0.00  0.00    -0.198 OA
ATOM      3  O   UNL d   1     -55.263-102.415 -42.672  0.00  0.00    -0.198 OA
ENDROOT
BRANCH   1   4
ATOM      4  C   UNL d   1     -55.100-101.302 -42.373  0.00  0.00     0.105 A 
ATOM      5  C   UNL d   1     -55.211-101.229 -43.185  0.00  0.00     0.013 A 
ATOM      6  C   UNL d   1     -55.084-100.513 -43.586  0.00  0.00     0.001 A 
ATOM      7  C   UNL d   1     -55.202-100.468 -44.397  0.00  0.00     0.000 A 
ATOM      8  C   UNL d   1     -54.841 -99.857 -43.161  0.00  0.00     0.000 A 
ATOM      9  C   UNL d   1     -55.076 -99.754 -44.795  0.00  0.00     0.000 A 
ATOM     10  C   UNL d   1     -54.823 -99.073 -44.352  0.00  0.00     0.000 A 
ATOM     11  C   UNL d   1     -54.711 -99.140 -43.545  0.00  0.00     0.000 A 
ATOM     12  C   UNL d   1     -54.724 -99.915 -42.335  0.00  0.00     0.001 A 
ATOM     13  C   UNL d   1     -54.845-100.615 -41.924  0.00  0.00     0.013 A 
ENDBRANCH   1   4
BRANCH   1  14
ATOM     14  N   UNL d   1     -55.346-102.702 -41.537  0.00  0.00    -0.158 NA
BRANCH  14  15
ATOM     15  C   UNL d   1     -55.365-102.690 -40.728  0.00  0.00     0.094 A 
ATOM     16  C   UNL d   1     -54.711-102.880 -40.272  0.00  0.00     0.021 A 
ATOM     17  C   UNL d   1     -54.712-102.874 -39.447  0.00  0.00     0.019 A 
ATOM     18  C   UNL d   1     -55.431-102.658 -39.053  0.00  0.00     0.064 A 
ATOM     19  C   UNL d   1     -56.093-102.466 -39.497  0.00  0.00     0.019 A 
ATOM     20  C   UNL d   1     -56.090-102.473 -40.339  0.00  0.00     0.021 A 
BRANCH  18  21
ATOM     21  N   UNL d   1     -55.449-102.647 -38.224  0.00  0.00    -0.300 N 
ATOM     22  C   UNL d   1     -56.127-102.845 -37.787  0.00  0.00     0.107 A 
ATOM     23  C   UNL d   1     -56.132-102.830 -36.973  0.00  0.00     0.142 A 
ATOM     24  O   UNL d   1     -55.457-102.614 -36.559  0.00  0.00    -0.300 OA
ATOM     25  C   UNL d   1     -54.767-102.411 -36.966  0.00  0.00     0.142 A 
ATOM     26  C   UNL d   1     -54.756-102.425 -37.804  0.00  0.00     0.107 A 
ENDBRANCH  18  21
ENDBRANCH  14  15
ENDBRANCH   1  14
TORSDOF 4
ENDMDL
