MODEL 1
REMARK VINA RESULT:      -7.5      0.000      0.000
REMARK  2 active torsions:
REMARK  status: ('A' for Active; 'I' for Inactive)
REMARK    1  A    between atoms: CA_2  and  C_1 
REMARK    2  A    between atoms: C_3  and  CA_2 
ROOT
ATOM      1  C   UNL d   1      53.983  32.463  54.073  0.00  0.00     0.053 A 
ATOM      2  C   UNL d   1      54.013  32.514  54.901  0.00  0.00     0.142 A 
ATOM      3  F   UNL d   1      53.547  32.010  55.360  0.00  0.00    -0.204 F 
ATOM      4  C   UNL d   1      54.453  32.972  53.610  0.00  0.00     0.004 A 
ATOM      5  C   UNL d   1      54.510  33.070  55.259  0.00  0.00     0.030 A 
ATOM      6  C   UNL d   1      54.949  33.527  53.979  0.00  0.00     0.000 A 
ATOM      7  C   UNL d   1      54.975  33.573  54.801  0.00  0.00     0.002 A 
ENDROOT
BRANCH   1   8
ATOM      8  CA  UNL d   1      53.490  31.912  53.710  0.00  0.00     0.169 C 
ATOM      9  N   UNL d   1      53.588  31.106  53.860  0.00  0.00    -0.142 N 
BRANCH   8  10
ATOM     10  C   UNL d   1      52.899  32.170  53.197  0.00  0.00     0.231 C 
ATOM     11  O   UNL d   1      52.245  32.579  53.483  0.00  0.00    -0.643 OA
ATOM     12  OXT UNL d   1      52.963  32.018  52.388  0.00  0.00    -0.643 OA
ENDBRANCH   8  10
ENDBRANCH   1   8
TORSDOF 2
ENDMDL
MODEL 2
REMARK VINA RESULT:      -7.4      0.883      1.258
REMARK  2 active torsions:
REMARK  status: ('A' for Active; 'I' for Inactive)
REMARK    1  A    between atoms: CA_2  and  C_1 
REMARK    2  A    between atoms: C_3  and  CA_2 
ROOT
ATOM      1  C   UNL d   1      53.924  32.593  54.037  0.00  0.00     0.053 A 
ATOM      2  C   UNL d   1      54.696  32.808  53.820  0.00  0.00     0.142 A 
ATOM      3  F   UNL d   1      55.028  32.504  53.129  0.00  0.00    -0.204 F 
ATOM      4  C   UNL d   1      53.589  32.899  54.735  0.00  0.00     0.004 A 
ATOM      5  C   UNL d   1      55.126  33.325  54.302  0.00  0.00     0.030 A 
ATOM      6  C   UNL d   1      54.029  33.418  55.211  0.00  0.00     0.000 A 
ATOM      7  C   UNL d   1      54.795  33.629  54.993  0.00  0.00     0.002 A 
ENDROOT
BRANCH   1   8
ATOM      8  CA  UNL d   1      53.490  32.078  53.562  0.00  0.00     0.169 C 
ATOM      9  N   UNL d   1      53.718  31.289  53.490  0.00  0.00    -0.142 N 
BRANCH   8  10
ATOM     10  C   UNL d   1      52.827  32.357  53.160  0.00  0.00     0.231 C 
ATOM     11  O   UNL d   1      52.899  32.680  52.406  0.00  0.00    -0.643 OA
ATOM     12  OXT UNL d   1      52.082  32.313  53.515  0.00  0.00    -0.643 OA
ENDBRANCH   8  10
ENDBRANCH   1   8
TORSDOF 2
ENDMDL
MODEL 3
REMARK VINA RESULT:      -7.1      1.712      2.494
REMARK  2 active torsions:
REMARK  status: ('A' for Active; 'I' for Inactive)
REMARK    1  A    between atoms: CA_2  and  C_1 
REMARK    2  A    between atoms: C_3  and  CA_2 
ROOT
ATOM      1  C   UNL d   1      53.572  33.004  53.769  0.00  0.00     0.053 A 
ATOM      2  C   UNL d   1      53.354  32.303  53.379  0.00  0.00     0.142 A 
ATOM      3  F   UNL d   1      53.879  31.668  53.351  0.00  0.00    -0.204 F 
ATOM      4  C   UNL d   1      53.042  33.645  53.796  0.00  0.00     0.004 A 
ATOM      5  C   UNL d   1      52.610  32.250  53.021  0.00  0.00     0.030 A 
ATOM      6  C   UNL d   1      52.297  33.581  53.434  0.00  0.00     0.000 A 
ATOM      7  C   UNL d   1      52.084  32.885  53.049  0.00  0.00     0.002 A 
ENDROOT
BRANCH   1   8
ATOM      8  CA  UNL d   1      54.311  33.063  54.126  0.00  0.00     0.169 C 
ATOM      9  N   UNL d   1      54.996  32.910  53.693  0.00  0.00    -0.142 N 
BRANCH   8  10
ATOM     10  C   UNL d   1      54.362  33.277  54.921  0.00  0.00     0.231 C 
ATOM     11  O   UNL d   1      54.229  32.723  55.514  0.00  0.00    -0.643 OA
ATOM     12  OXT UNL d   1      54.549  34.056  55.126  0.00  0.00    -0.643 OA
ENDBRANCH   8  10
ENDBRANCH   1   8
TORSDOF 2
ENDMDL
MODEL 4
REMARK VINA RESULT:      -7.1      1.925      2.109
REMARK  2 active torsions:
REMARK  status: ('A' for Active; 'I' for Inactive)
REMARK    1  A    between atoms: CA_2  and  C_1 
REMARK    2  A    between atoms: C_3  and  CA_2 
ROOT
ATOM      1  C   UNL d   1      53.324  33.679  54.048  0.00  0.00     0.053 A 
ATOM      2  C   UNL d   1      53.721  33.061  53.659  0.00  0.00     0.142 A 
ATOM      3  F   UNL d   1      53.398  32.735  52.974  0.00  0.00    -0.204 F 
ATOM      4  C   UNL d   1      53.650  34.009  54.741  0.00  0.00     0.004 A 
ATOM      5  C   UNL d   1      54.436  32.778  53.964  0.00  0.00     0.030 A 
ATOM      6  C   UNL d   1      54.369  33.717  55.038  0.00  0.00     0.000 A 
ATOM      7  C   UNL d   1      54.758  33.104  54.650  0.00  0.00     0.002 A 
ENDROOT
BRANCH   1   8
ATOM      8  CA  UNL d   1      52.613  33.965  53.750  0.00  0.00     0.169 C 
ATOM      9  N   UNL d   1      51.951  33.474  53.710  0.00  0.00    -0.142 N 
BRANCH   8  10
ATOM     10  C   UNL d   1      52.565  34.747  53.491  0.00  0.00     0.231 C 
ATOM     11  O   UNL d   1      52.378  35.352  54.017  0.00  0.00    -0.643 OA
ATOM     12  OXT UNL d   1      52.705  34.926  52.697  0.00  0.00    -0.643 OA
ENDBRANCH   8  10
ENDBRANCH   1   8
TORSDOF 2
ENDMDL
