MODEL 1
REMARK VINA RESULT:      65.0      0.000      0.000
REMARK  4 active torsions:
REMARK  status: ('A' for Active; 'I' for Inactive)
REMARK    1  A    between atoms: C_21  and  N_5 
REMARK    2  A    between atoms: C_11  and  C_6 
REMARK       I    between atoms: N_15  and  C_11 
REMARK    3  A    between atoms: C_23  and  N_15 
REMARK    4  A    between atoms: C_22  and  C_23 
ROOT
ATOM      1  C   UNL d   1     -51.474  26.005  33.413  0.00  0.00     0.155 A 
ATOM      2  C   UNL d   1     -50.790  25.536  33.431  0.00  0.00     0.091 A 
ATOM      3  N   UNL d   1     -52.212  25.648  33.377  0.00  0.00    -0.210 NA
ATOM      4  N   UNL d   1     -51.601  24.365  33.377  0.00  0.00    -0.258 N 
ATOM      5  N   UNL d   1     -51.408  26.823  33.430  0.00  0.00    -0.274 N 
ATOM      6  C   UNL d   1     -49.982  26.716  33.484  0.00  0.00     0.094 A 
ATOM      7  C   UNL d   1     -52.279  24.830  33.360  0.00  0.00     0.152 A 
ATOM      8  C   UNL d   1     -50.849  24.714  33.413  0.00  0.00     0.269 A 
ATOM      9  C   UNL d   1     -50.660  27.181  33.466  0.00  0.00     0.175 A 
ATOM     10  C   UNL d   1     -50.045  25.889  33.466  0.00  0.00     0.016 A 
ATOM     11  C   UNL d   1     -53.019  24.470  33.324  0.00  0.00     0.035 A 
ATOM     12  C   UNL d   1     -51.656  23.535  33.360  0.00  0.00     0.084 A 
ATOM     13  N   UNL d   1     -50.605  28.007  33.484  0.00  0.00    -0.128 N 
ATOM     14  O   UNL d   1     -50.176  24.242  33.431  0.00  0.00    -0.266 OA
ATOM     15  C   UNL d   1     -52.406  23.190  33.324  0.00  0.00     0.019 A 
ATOM     16  C   UNL d   1     -53.084  23.654  33.307  0.00  0.00     0.005 A 
ATOM     17  C   UNL d   1     -53.701  24.938  33.306  0.00  0.00     0.003 C 
ENDROOT
BRANCH   6  18
ATOM     18  C   UNL d   1     -49.237  27.069  33.519  0.00  0.00     0.282 C 
ATOM     19  N   UNL d   1     -49.171  27.855  33.761  0.00  0.00    -0.206 NA
ATOM     20  O   UNL d   1     -48.566  26.640  33.316  0.00  0.00    -0.265 OA
BRANCH  19  21
ATOM     21  C   UNL d   1     -48.421  28.214  33.798  0.00  0.00     0.104 C 
BRANCH  21  22
ATOM     22  C   UNL d   1     -48.210  28.662  34.462  0.00  0.00     0.038 A 
ATOM     23  C   UNL d   1     -48.100  28.286  35.188  0.00  0.00     0.101 A 
ATOM     24  N   UNL d   1     -47.891  28.733  35.849  0.00  0.00    -0.242 NA
ATOM     25  C   UNL d   1     -47.791  29.547  35.791  0.00  0.00     0.099 A 
ATOM     26  C   UNL d   1     -47.903  29.922  35.058  0.00  0.00     0.021 A 
ATOM     27  C   UNL d   1     -48.112  29.476  34.398  0.00  0.00     0.005 A 
ENDBRANCH  21  22
ENDBRANCH  19  21
ENDBRANCH   6  18
BRANCH   5  28
ATOM     28  C   UNL d   1     -52.090  27.291  33.413  0.00  0.00     0.083 C 
ATOM     29  C   UNL d   1     -52.043  28.093  33.609  0.00  0.00     0.021 C 
ENDBRANCH   5  28
TORSDOF 4
ENDMDL
