MODEL 1
REMARK VINA RESULT:       0.9      0.000      0.000
REMARK  2 active torsions:
REMARK  status: ('A' for Active; 'I' for Inactive)
REMARK    1  A    between atoms: N_2  and  C_1 
REMARK    2  A    between atoms: N_11  and  C_3 
ROOT
ATOM      1  C   UNL d   1      31.109  16.821 -24.443  0.00  0.00     0.142 A 
ATOM      2  C   UNL d   1      31.018  17.636 -24.529  0.00  0.00     0.124 A 
ATOM      3  C   UNL d   1      30.457  16.327 -24.526  0.00  0.00     0.215 A 
ATOM      4  C   UNL d   1      30.279  17.960 -24.697  0.00  0.00     0.213 A 
ATOM      5  C   UNL d   1      29.712  16.642 -24.695  0.00  0.00     0.044 A 
ATOM      6  C   UNL d   1      29.628  17.462 -24.780  0.00  0.00     0.044 A 
ATOM      7  O   UNL d   1      30.541  15.511 -24.442  0.00  0.00    -0.285 OA
ATOM      8  O   UNL d   1      30.188  18.775 -24.783  0.00  0.00    -0.285 OA
ATOM      9  C   UNL d   1      29.064  16.154 -24.777  0.00  0.00     0.003 A 
ATOM     10  C   UNL d   1      28.882  17.781 -24.949  0.00  0.00     0.003 A 
ATOM     11  C   UNL d   1      28.236  17.280 -25.030  0.00  0.00     0.000 A 
ATOM     12  C   UNL d   1      28.327  16.461 -24.944  0.00  0.00     0.000 A 
ENDROOT
BRANCH   1  13
ATOM     13  N   UNL d   1      31.847  16.506 -24.276  0.00  0.00    -0.206 N 
ATOM     14  N   UNL d   1      32.487  16.470 -24.796  0.00  0.00    -0.059 NA
ATOM     15  N   UNL d   1      33.117  16.109 -24.397  0.00  0.00    -0.129 NA
ATOM     16  C   UNL d   1      32.855  15.925 -23.632  0.00  0.00     0.122 A 
ATOM     17  C   UNL d   1      32.068  16.172 -23.561  0.00  0.00     0.104 A 
ATOM     18  C   UNL d   1      33.241  15.564 -22.999  0.00  0.00     0.022 A 
ATOM     19  C   UNL d   1      31.666  16.060 -22.859  0.00  0.00     0.021 A 
ATOM     20  C   UNL d   1      32.039  15.698 -22.210  0.00  0.00     0.002 A 
ATOM     21  C   UNL d   1      32.825  15.453 -22.285  0.00  0.00     0.002 A 
ENDBRANCH   1  13
BRANCH   2  22
ATOM     22  N   UNL d   1      31.672  18.133 -24.446  0.00  0.00    -0.296 N 
ATOM     23  C   UNL d   1      32.150  18.299 -25.097  0.00  0.00     0.107 A 
ATOM     24  C   UNL d   1      32.797  18.790 -25.018  0.00  0.00     0.142 A 
ATOM     25  O   UNL d   1      32.977  19.124 -24.281  0.00  0.00    -0.300 OA
ATOM     26  C   UNL d   1      32.495  18.955 -23.632  0.00  0.00     0.142 A 
ATOM     27  C   UNL d   1      31.843  18.460 -23.717  0.00  0.00     0.107 A 
ENDBRANCH   2  22
TORSDOF 2
ENDMDL
MODEL 2
REMARK VINA RESULT:       3.2      0.860      2.593
REMARK  2 active torsions:
REMARK  status: ('A' for Active; 'I' for Inactive)
REMARK    1  A    between atoms: N_2  and  C_1 
REMARK    2  A    between atoms: N_11  and  C_3 
ROOT
ATOM      1  C   UNL d   1      31.006  17.672 -24.505  0.00  0.00     0.142 A 
ATOM      2  C   UNL d   1      30.910  16.897 -24.239  0.00  0.00     0.124 A 
ATOM      3  C   UNL d   1      30.350  18.102 -24.753  0.00  0.00     0.215 A 
ATOM      4  C   UNL d   1      30.163  16.550 -24.220  0.00  0.00     0.213 A 
ATOM      5  C   UNL d   1      29.597  17.763 -24.738  0.00  0.00     0.044 A 
ATOM      6  C   UNL d   1      29.508  16.984 -24.469  0.00  0.00     0.044 A 
ATOM      7  O   UNL d   1      30.439  18.877 -25.021  0.00  0.00    -0.285 OA
ATOM      8  O   UNL d   1      30.067  15.776 -23.954  0.00  0.00    -0.285 OA
ATOM      9  C   UNL d   1      28.946  18.187 -24.983  0.00  0.00     0.003 A 
ATOM     10  C   UNL d   1      28.754  16.641 -24.452  0.00  0.00     0.003 A 
ATOM     11  C   UNL d   1      28.104  17.078 -24.702  0.00  0.00     0.000 A 
ATOM     12  C   UNL d   1      28.201  17.857 -24.969  0.00  0.00     0.000 A 
ENDROOT
BRANCH   1  13
ATOM     13  N   UNL d   1      31.752  18.011 -24.522  0.00  0.00    -0.206 N 
ATOM     14  N   UNL d   1      32.397  17.739 -24.959  0.00  0.00    -0.059 NA
ATOM     15  N   UNL d   1      33.035  18.247 -24.811  0.00  0.00    -0.129 NA
ATOM     16  C   UNL d   1      32.773  18.829 -24.282  0.00  0.00     0.122 A 
ATOM     17  C   UNL d   1      31.977  18.679 -24.106  0.00  0.00     0.104 A 
ATOM     18  C   UNL d   1      33.164  19.471 -23.945  0.00  0.00     0.022 A 
ATOM     19  C   UNL d   1      31.574  19.170 -23.594  0.00  0.00     0.021 A 
ATOM     20  C   UNL d   1      31.952  19.823 -23.244  0.00  0.00     0.002 A 
ATOM     21  C   UNL d   1      32.746  19.968 -23.423  0.00  0.00     0.002 A 
ENDBRANCH   1  13
BRANCH   2  22
ATOM     22  N   UNL d   1      31.568  16.464 -23.990  0.00  0.00    -0.296 N 
ATOM     23  C   UNL d   1      31.732  16.389 -23.186  0.00  0.00     0.107 A 
ATOM     24  C   UNL d   1      32.381  15.963 -22.937  0.00  0.00     0.142 A 
ATOM     25  O   UNL d   1      32.879  15.602 -23.492  0.00  0.00    -0.300 OA
ATOM     26  C   UNL d   1      32.710  15.680 -24.297  0.00  0.00     0.142 A 
ATOM     27  C   UNL d   1      32.054  16.112 -24.543  0.00  0.00     0.107 A 
ENDBRANCH   2  22
TORSDOF 2
ENDMDL
