MODEL 1
REMARK VINA RESULT:      -1.9      0.000      0.000
REMARK  7 active torsions:
REMARK  status: ('A' for Active; 'I' for Inactive)
REMARK    1  A    between atoms: S_8  and  C_3 
REMARK    2  A    between atoms: C_4  and  C_15 
REMARK       I    between atoms: N_7  and  C_4 
REMARK    3  A    between atoms: C_13  and  C_5 
REMARK    4  A    between atoms: C_6  and  C_9 
REMARK    5  A    between atoms: C_9  and  N_7 
REMARK    6  A    between atoms: C_15  and  S_8 
REMARK    7  A    between atoms: O_17  and  C_11 
ROOT
ATOM      1  S   UNL d   1     -41.841-122.075 -51.325  0.00  0.00    -0.061 SA
ENDROOT
BRANCH   1   2
ATOM      2  C   UNL d   1     -41.861-122.368 -50.545  0.00  0.00     0.133 A 
ATOM      3  N   UNL d   1     -41.169-122.619 -50.171  0.00  0.00    -0.141 NA
ATOM      4  N   UNL d   1     -41.202-122.910 -49.392  0.00  0.00    -0.148 NA
ATOM      5  C   UNL d   1     -41.923-122.948 -48.995  0.00  0.00     0.103 A 
ATOM      6  C   UNL d   1     -42.615-122.697 -49.369  0.00  0.00     0.023 A 
ATOM      7  C   UNL d   1     -42.587-122.408 -50.140  0.00  0.00     0.029 A 
BRANCH   5   8
ATOM      8  C   UNL d   1     -41.952-123.237 -48.223  0.00  0.00     0.022 A 
ATOM      9  C   UNL d   1     -41.252-123.386 -47.814  0.00  0.00     0.022 A 
ATOM     10  C   UNL d   1     -41.280-123.676 -47.039  0.00  0.00     0.099 A 
ATOM     11  N   UNL d   1     -42.012-123.816 -46.676  0.00  0.00    -0.242 NA
ATOM     12  C   UNL d   1     -42.714-123.666 -47.088  0.00  0.00     0.099 A 
ATOM     13  C   UNL d   1     -42.684-123.378 -47.859  0.00  0.00     0.022 A 
ENDBRANCH   5   8
ENDBRANCH   1   2
BRANCH   1  14
ATOM     14  C   UNL d   1     -41.425-122.480 -51.913  0.00  0.00     0.099 C 
BRANCH  14  15
ATOM     15  C   UNL d   1     -41.351-122.149 -52.664  0.00  0.00     0.286 C 
ATOM     16  N   UNL d   1     -41.498-122.613 -53.341  0.00  0.00    -0.206 NA
ATOM     17  O   UNL d   1     -41.131-121.356 -52.746  0.00  0.00    -0.265 OA
BRANCH  16  18
ATOM     18  C   UNL d   1     -41.424-122.283 -54.092  0.00  0.00     0.104 C 
BRANCH  18  19
ATOM     19  C   UNL d   1     -41.938-122.514 -54.701  0.00  0.00     0.042 A 
ATOM     20  C   UNL d   1     -42.068-122.015 -55.344  0.00  0.00     0.096 A 
ATOM     21  C   UNL d   1     -42.580-122.244 -55.950  0.00  0.00     0.024 A 
ATOM     22  C   UNL d   1     -42.963-122.973 -55.913  0.00  0.00     0.002 A 
ATOM     23  C   UNL d   1     -42.833-123.472 -55.270  0.00  0.00     0.000 A 
ATOM     24  C   UNL d   1     -42.321-123.242 -54.664  0.00  0.00     0.004 A 
BRANCH  20  25
ATOM     25  O   UNL d   1     -41.675-121.271 -55.377  0.00  0.00    -0.328 OA
ATOM     26  C   UNL d   1     -41.390-120.989 -56.098  0.00  0.00     0.181 C 
ENDBRANCH  20  25
ENDBRANCH  18  19
ENDBRANCH  16  18
ENDBRANCH  14  15
ENDBRANCH   1  14
TORSDOF 7
ENDMDL
