MODEL 1
REMARK VINA RESULT:      -6.3      0.000      0.000
REMARK  7 active torsions:
REMARK  status: ('A' for Active; 'I' for Inactive)
REMARK    1  A    between atoms: C_11  and  C_3 
REMARK    2  A    between atoms: N_12  and  C_7 
REMARK       I    between atoms: C_9  and  N_15 
REMARK    3  A    between atoms: C_14  and  C_9 
REMARK    4  A    between atoms: C_16  and  C_11 
REMARK    5  A    between atoms: C_17  and  N_12 
REMARK    6  A    between atoms: N_15  and  C_16 
REMARK    7  A    between atoms: C_19  and  C_17 
ROOT
ATOM      1  N   UNL d   1     -44.546  12.767  22.243  0.00  0.00    -0.190 N 
ATOM      2  C   UNL d   1     -44.270  12.040  22.528  0.00  0.00     0.187 A 
ATOM      3  C   UNL d   1     -45.311  12.898  22.553  0.00  0.00     0.188 A 
ATOM      4  N   UNL d   1     -44.060  13.215  21.735  0.00  0.00    -0.143 NA
ATOM      5  N   UNL d   1     -44.870  11.724  23.016  0.00  0.00    -0.127 NA
ATOM      6  N   UNL d   1     -45.498  12.257  23.021  0.00  0.00    -0.127 NA
ATOM      7  C   UNL d   1     -43.313  12.936  21.521  0.00  0.00     0.182 A 
ATOM      8  C   UNL d   1     -43.524  11.761  22.314  0.00  0.00     0.044 A 
ATOM      9  C   UNL d   1     -43.046  12.207  21.812  0.00  0.00     0.044 A 
ENDROOT
BRANCH   3  10
ATOM     10  C   UNL d   1     -45.792  13.555  22.412  0.00  0.00     0.061 C 
BRANCH  10  11
ATOM     11  C   UNL d   1     -46.603  13.507  22.539  0.00  0.00     0.105 C 
BRANCH  11  12
ATOM     12  N   UNL d   1     -47.023  14.192  22.731  0.00  0.00    -0.206 NA
ATOM     13  C   UNL d   1     -47.851  14.190  22.676  0.00  0.00     0.279 C 
ATOM     14  O   UNL d   1     -48.270  14.879  22.870  0.00  0.00    -0.265 OA
BRANCH  13  15
ATOM     15  C   UNL d   1     -48.244  13.513  22.432  0.00  0.00     0.058 A 
ATOM     16  C   UNL d   1     -48.370  13.364  21.623  0.00  0.00     0.005 A 
ATOM     17  C   UNL d   1     -48.762  12.687  21.393  0.00  0.00     0.000 A 
ATOM     18  C   UNL d   1     -49.030  12.156  21.955  0.00  0.00     0.000 A 
ATOM     19  C   UNL d   1     -48.914  12.289  22.748  0.00  0.00     0.000 A 
ATOM     20  C   UNL d   1     -48.518  12.972  22.996  0.00  0.00     0.005 A 
ENDBRANCH  13  15
ENDBRANCH  11  12
ENDBRANCH  10  11
ENDBRANCH   3  10
BRANCH   7  21
ATOM     21  N   UNL d   1     -42.824  13.377  21.016  0.00  0.00    -0.224 NA
BRANCH  21  22
ATOM     22  C   UNL d   1     -42.066  13.580  21.277  0.00  0.00     0.101 C 
BRANCH  22  23
ATOM     23  C   UNL d   1     -41.606  14.119  20.854  0.00  0.00     0.019 A 
ATOM     24  C   UNL d   1     -41.176  13.866  20.188  0.00  0.00     0.002 A 
ATOM     25  C   UNL d   1     -40.720  14.414  19.773  0.00  0.00     0.011 A 
ATOM     26  C   UNL d   1     -40.686  15.202  20.008  0.00  0.00     0.058 A 
ATOM     27  C   UNL d   1     -41.116  15.455  20.675  0.00  0.00     0.011 A 
ATOM     28 CL   UNL d   1     -40.230  15.750  19.593  0.00  0.00    -0.082 Cl
ATOM     29  C   UNL d   1     -41.574  14.910  21.093  0.00  0.00     0.002 A 
ENDBRANCH  22  23
ENDBRANCH  21  22
ENDBRANCH   7  21
TORSDOF 7
ENDMDL
MODEL 2
REMARK VINA RESULT:      -5.9      2.570      6.179
REMARK  7 active torsions:
REMARK  status: ('A' for Active; 'I' for Inactive)
REMARK    1  A    between atoms: C_11  and  C_3 
REMARK    2  A    between atoms: N_12  and  C_7 
REMARK       I    between atoms: C_9  and  N_15 
REMARK    3  A    between atoms: C_14  and  C_9 
REMARK    4  A    between atoms: C_16  and  C_11 
REMARK    5  A    between atoms: C_17  and  N_12 
REMARK    6  A    between atoms: N_15  and  C_16 
REMARK    7  A    between atoms: C_19  and  C_17 
ROOT
ATOM      1  N   UNL d   1     -43.986  12.786  21.847  0.00  0.00    -0.190 N 
ATOM      2  C   UNL d   1     -44.006  12.109  22.324  0.00  0.00     0.187 A 
ATOM      3  C   UNL d   1     -43.226  12.846  21.508  0.00  0.00     0.188 A 
ATOM      4  N   UNL d   1     -44.670  13.260  21.787  0.00  0.00    -0.143 NA
ATOM      5  N   UNL d   1     -43.253  11.752  22.276  0.00  0.00    -0.127 NA
ATOM      6  N   UNL d   1     -42.788  12.213  21.775  0.00  0.00    -0.127 NA
ATOM      7  C   UNL d   1     -45.356  13.056  22.196  0.00  0.00     0.182 A 
ATOM      8  C   UNL d   1     -44.693  11.905  22.734  0.00  0.00     0.044 A 
ATOM      9  C   UNL d   1     -45.365  12.376  22.671  0.00  0.00     0.044 A 
ENDROOT
BRANCH   3  10
ATOM     10  C   UNL d   1     -42.962  13.439  20.995  0.00  0.00     0.061 C 
BRANCH  10  11
ATOM     11  C   UNL d   1     -42.156  13.564  20.890  0.00  0.00     0.105 C 
BRANCH  11  12
ATOM     12  N   UNL d   1     -41.840  13.546  20.127  0.00  0.00    -0.206 NA
ATOM     13  C   UNL d   1     -41.174  14.008  19.950  0.00  0.00     0.279 C 
ATOM     14  O   UNL d   1     -40.859  13.987  19.183  0.00  0.00    -0.265 OA
BRANCH  13  15
ATOM     15  C   UNL d   1     -40.836  14.477  20.532  0.00  0.00     0.058 A 
ATOM     16  C   UNL d   1     -40.239  14.176  21.027  0.00  0.00     0.005 A 
ATOM     17  C   UNL d   1     -39.911  14.652  21.601  0.00  0.00     0.000 A 
ATOM     18  C   UNL d   1     -40.167  15.424  21.690  0.00  0.00     0.000 A 
ATOM     19  C   UNL d   1     -40.749  15.732  21.214  0.00  0.00     0.000 A 
ATOM     20  C   UNL d   1     -41.092  15.259  20.627  0.00  0.00     0.005 A 
ENDBRANCH  13  15
ENDBRANCH  11  12
ENDBRANCH  10  11
ENDBRANCH   3  10
BRANCH   7  21
ATOM     21  N   UNL d   1     -46.039  13.523  22.140  0.00  0.00    -0.224 NA
BRANCH  21  22
ATOM     22  C   UNL d   1     -46.499  13.636  22.819  0.00  0.00     0.101 C 
BRANCH  22  23
ATOM     23  C   UNL d   1     -47.206  14.059  22.781  0.00  0.00     0.019 A 
ATOM     24  C   UNL d   1     -47.199  14.864  22.567  0.00  0.00     0.002 A 
ATOM     25  C   UNL d   1     -47.913  15.276  22.533  0.00  0.00     0.011 A 
ATOM     26  C   UNL d   1     -48.627  14.903  22.707  0.00  0.00     0.058 A 
ATOM     27  C   UNL d   1     -48.633  14.099  22.921  0.00  0.00     0.011 A 
ATOM     28 CL   UNL d   1     -49.341  15.316  22.673  0.00  0.00    -0.082 Cl
ATOM     29  C   UNL d   1     -47.921  13.682  22.956  0.00  0.00     0.002 A 
ENDBRANCH  22  23
ENDBRANCH  21  22
ENDBRANCH   7  21
TORSDOF 7
ENDMDL
MODEL 3
REMARK VINA RESULT:      -5.8      3.175      4.252
REMARK  7 active torsions:
REMARK  status: ('A' for Active; 'I' for Inactive)
REMARK    1  A    between atoms: C_11  and  C_3 
REMARK    2  A    between atoms: N_12  and  C_7 
REMARK       I    between atoms: C_9  and  N_15 
REMARK    3  A    between atoms: C_14  and  C_9 
REMARK    4  A    between atoms: C_16  and  C_11 
REMARK    5  A    between atoms: C_17  and  N_12 
REMARK    6  A    between atoms: N_15  and  C_16 
REMARK    7  A    between atoms: C_19  and  C_17 
ROOT
ATOM      1  N   UNL d   1     -47.379  14.327  23.036  0.00  0.00    -0.190 N 
ATOM      2  C   UNL d   1     -47.025  14.901  22.556  0.00  0.00     0.187 A 
ATOM      3  C   UNL d   1     -48.172  14.547  23.170  0.00  0.00     0.188 A 
ATOM      4  N   UNL d   1     -46.925  13.674  23.288  0.00  0.00    -0.143 NA
ATOM      5  N   UNL d   1     -47.607  15.478  22.395  0.00  0.00    -0.127 NA
ATOM      6  N   UNL d   1     -48.301  15.249  22.776  0.00  0.00    -0.127 NA
ATOM      7  C   UNL d   1     -46.135  13.603  23.061  0.00  0.00     0.182 A 
ATOM      8  C   UNL d   1     -46.235  14.831  22.329  0.00  0.00     0.044 A 
ATOM      9  C   UNL d   1     -45.791  14.185  22.580  0.00  0.00     0.044 A 
ENDROOT
BRANCH   3  10
ATOM     10  C   UNL d   1     -48.729  14.132  23.620  0.00  0.00     0.061 C 
BRANCH  10  11
ATOM     11  C   UNL d   1     -49.451  13.922  23.290  0.00  0.00     0.105 C 
BRANCH  11  12
ATOM     12  N   UNL d   1     -49.945  13.399  23.696  0.00  0.00    -0.206 NA
ATOM     13  C   UNL d   1     -50.516  12.968  23.276  0.00  0.00     0.279 C 
ATOM     14  O   UNL d   1     -51.010  12.444  23.687  0.00  0.00    -0.265 OA
BRANCH  13  15
ATOM     15  C   UNL d   1     -50.587  13.065  22.464  0.00  0.00     0.058 A 
ATOM     16  C   UNL d   1     -51.001  13.713  22.149  0.00  0.00     0.005 A 
ATOM     17  C   UNL d   1     -51.064  13.798  21.340  0.00  0.00     0.000 A 
ATOM     18  C   UNL d   1     -50.722  13.247  20.841  0.00  0.00     0.000 A 
ATOM     19  C   UNL d   1     -50.314  12.609  21.136  0.00  0.00     0.000 A 
ATOM     20  C   UNL d   1     -50.242  12.510  21.955  0.00  0.00     0.005 A 
ENDBRANCH  13  15
ENDBRANCH  11  12
ENDBRANCH  10  11
ENDBRANCH   3  10
BRANCH   7  21
ATOM     21  N   UNL d   1     -45.678  12.956  23.308  0.00  0.00    -0.224 NA
BRANCH  21  22
ATOM     22  C   UNL d   1     -45.554  12.333  22.778  0.00  0.00     0.101 C 
BRANCH  22  23
ATOM     23  C   UNL d   1     -45.130  11.664  23.008  0.00  0.00     0.019 A 
ATOM     24  C   UNL d   1     -45.517  11.039  23.399  0.00  0.00     0.002 A 
ATOM     25  C   UNL d   1     -45.082  10.375  23.624  0.00  0.00     0.011 A 
ATOM     26  C   UNL d   1     -44.275  10.324  23.468  0.00  0.00     0.058 A 
ATOM     27  C   UNL d   1     -43.888  10.950  23.077  0.00  0.00     0.011 A 
ATOM     28 CL   UNL d   1     -43.840   9.661  23.693  0.00  0.00    -0.082 Cl
ATOM     29  C   UNL d   1     -44.320  11.615  22.850  0.00  0.00     0.002 A 
ENDBRANCH  22  23
ENDBRANCH  21  22
ENDBRANCH   7  21
TORSDOF 7
ENDMDL
MODEL 4
REMARK VINA RESULT:      -4.1      3.209      4.859
REMARK  7 active torsions:
REMARK  status: ('A' for Active; 'I' for Inactive)
REMARK    1  A    between atoms: C_11  and  C_3 
REMARK    2  A    between atoms: N_12  and  C_7 
REMARK       I    between atoms: C_9  and  N_15 
REMARK    3  A    between atoms: C_14  and  C_9 
REMARK    4  A    between atoms: C_16  and  C_11 
REMARK    5  A    between atoms: C_17  and  N_12 
REMARK    6  A    between atoms: N_15  and  C_16 
REMARK    7  A    between atoms: C_19  and  C_17 
ROOT
ATOM      1  N   UNL d   1     -49.418  14.856  22.992  0.00  0.00    -0.190 N 
ATOM      2  C   UNL d   1     -49.403  15.570  22.572  0.00  0.00     0.187 A 
ATOM      3  C   UNL d   1     -50.215  14.646  23.125  0.00  0.00     0.188 A 
ATOM      4  N   UNL d   1     -48.698  14.491  23.199  0.00  0.00    -0.143 NA
ATOM      5  N   UNL d   1     -50.196  15.798  22.447  0.00  0.00    -0.127 NA
ATOM      6  N   UNL d   1     -50.680  15.226  22.789  0.00  0.00    -0.127 NA
ATOM      7  C   UNL d   1     -47.980  14.838  22.987  0.00  0.00     0.182 A 
ATOM      8  C   UNL d   1     -48.685  15.916  22.360  0.00  0.00     0.044 A 
ATOM      9  C   UNL d   1     -47.975  15.552  22.566  0.00  0.00     0.044 A 
ENDROOT
BRANCH   3  10
ATOM     10  C   UNL d   1     -50.487  13.974  23.523  0.00  0.00     0.061 C 
BRANCH  10  11
ATOM     11  C   UNL d   1     -50.568  13.262  23.122  0.00  0.00     0.105 C 
BRANCH  11  12
ATOM     12  N   UNL d   1     -50.934  12.624  23.499  0.00  0.00    -0.206 NA
ATOM     13  C   UNL d   1     -50.694  11.851  23.317  0.00  0.00     0.279 C 
ATOM     14  O   UNL d   1     -51.064  11.213  23.698  0.00  0.00    -0.265 OA
BRANCH  13  15
ATOM     15  C   UNL d   1     -50.098  11.725  22.768  0.00  0.00     0.058 A 
ATOM     16  C   UNL d   1     -50.203  11.941  21.972  0.00  0.00     0.005 A 
ATOM     17  C   UNL d   1     -49.603  11.811  21.435  0.00  0.00     0.000 A 
ATOM     18  C   UNL d   1     -48.901  11.470  21.679  0.00  0.00     0.000 A 
ATOM     19  C   UNL d   1     -48.785  11.253  22.454  0.00  0.00     0.000 A 
ATOM     20  C   UNL d   1     -49.385  11.380  23.010  0.00  0.00     0.005 A 
ENDBRANCH  13  15
ENDBRANCH  11  12
ENDBRANCH  10  11
ENDBRANCH   3  10
BRANCH   7  21
ATOM     21  N   UNL d   1     -47.259  14.479  23.189  0.00  0.00    -0.224 NA
BRANCH  21  22
ATOM     22  C   UNL d   1     -46.679  14.398  22.605  0.00  0.00     0.101 C 
BRANCH  22  23
ATOM     23  C   UNL d   1     -46.147  13.767  22.626  0.00  0.00     0.019 A 
ATOM     24  C   UNL d   1     -45.540  13.716  22.059  0.00  0.00     0.002 A 
ATOM     25  C   UNL d   1     -45.014  13.081  22.091  0.00  0.00     0.011 A 
ATOM     26  C   UNL d   1     -45.084  12.501  22.671  0.00  0.00     0.058 A 
ATOM     27  C   UNL d   1     -45.692  12.553  23.238  0.00  0.00     0.011 A 
ATOM     28 CL   UNL d   1     -44.558  11.866  22.703  0.00  0.00    -0.082 Cl
ATOM     29  C   UNL d   1     -46.220  13.187  23.211  0.00  0.00     0.002 A 
ENDBRANCH  22  23
ENDBRANCH  21  22
ENDBRANCH   7  21
TORSDOF 7
ENDMDL
MODEL 5
REMARK VINA RESULT:      -3.9      3.437      7.197
REMARK  7 active torsions:
REMARK  status: ('A' for Active; 'I' for Inactive)
REMARK    1  A    between atoms: C_11  and  C_3 
REMARK    2  A    between atoms: N_12  and  C_7 
REMARK       I    between atoms: C_9  and  N_15 
REMARK    3  A    between atoms: C_14  and  C_9 
REMARK    4  A    between atoms: C_16  and  C_11 
REMARK    5  A    between atoms: C_17  and  N_12 
REMARK    6  A    between atoms: N_15  and  C_16 
REMARK    7  A    between atoms: C_19  and  C_17 
ROOT
ATOM      1  N   UNL d   1     -40.374  14.702  20.312  0.00  0.00    -0.190 N 
ATOM      2  C   UNL d   1     -39.739  14.435  20.771  0.00  0.00     0.187 A 
ATOM      3  C   UNL d   1     -40.069  15.136  19.668  0.00  0.00     0.188 A 
ATOM      4  N   UNL d   1     -41.152  14.512  20.545  0.00  0.00    -0.143 NA
ATOM      5  N   UNL d   1     -39.040  14.707  20.405  0.00  0.00    -0.127 NA
ATOM      6  N   UNL d   1     -39.257  15.133  19.733  0.00  0.00    -0.127 NA
ATOM      7  C   UNL d   1     -41.285  14.064  21.225  0.00  0.00     0.182 A 
ATOM      8  C   UNL d   1     -39.872  13.986  21.450  0.00  0.00     0.044 A 
ATOM      9  C   UNL d   1     -40.642  13.801  21.678  0.00  0.00     0.044 A 
ENDROOT
BRANCH   3  10
ATOM     10  C   UNL d   1     -40.507  15.503  19.070  0.00  0.00     0.061 C 
BRANCH  10  11
ATOM     11  C   UNL d   1     -40.336  15.352  18.281  0.00  0.00     0.105 C 
BRANCH  11  12
ATOM     12  N   UNL d   1     -40.941  15.398  17.719  0.00  0.00    -0.206 NA
ATOM     13  C   UNL d   1     -40.753  15.347  16.913  0.00  0.00     0.279 C 
ATOM     14  O   UNL d   1     -41.362  15.395  16.352  0.00  0.00    -0.265 OA
BRANCH  13  15
ATOM     15  C   UNL d   1     -39.972  15.251  16.680  0.00  0.00     0.058 A 
ATOM     16  C   UNL d   1     -39.493  15.912  16.520  0.00  0.00     0.005 A 
ATOM     17  C   UNL d   1     -38.719  15.803  16.289  0.00  0.00     0.000 A 
ATOM     18  C   UNL d   1     -38.414  15.048  16.214  0.00  0.00     0.000 A 
ATOM     19  C   UNL d   1     -38.871  14.393  16.367  0.00  0.00     0.000 A 
ATOM     20  C   UNL d   1     -39.659  14.488  16.603  0.00  0.00     0.005 A 
ENDBRANCH  13  15
ENDBRANCH  11  12
ENDBRANCH  10  11
ENDBRANCH   3  10
BRANCH   7  21
ATOM     21  N   UNL d   1     -42.057  13.871  21.463  0.00  0.00    -0.224 NA
BRANCH  21  22
ATOM     22  C   UNL d   1     -42.363  13.132  21.253  0.00  0.00     0.101 C 
BRANCH  22  23
ATOM     23  C   UNL d   1     -43.088  12.877  21.555  0.00  0.00     0.019 A 
ATOM     24  C   UNL d   1     -43.128  12.179  22.007  0.00  0.00     0.002 A 
ATOM     25  C   UNL d   1     -43.858  11.934  22.303  0.00  0.00     0.011 A 
ATOM     26  C   UNL d   1     -44.542  12.369  22.157  0.00  0.00     0.058 A 
ATOM     27  C   UNL d   1     -44.501  13.067  21.705  0.00  0.00     0.011 A 
ATOM     28 CL   UNL d   1     -45.272  12.124  22.453  0.00  0.00    -0.082 Cl
ATOM     29  C   UNL d   1     -43.773  13.316  21.407  0.00  0.00     0.002 A 
ENDBRANCH  22  23
ENDBRANCH  21  22
ENDBRANCH   7  21
TORSDOF 7
ENDMDL
