MODEL 1
REMARK VINA RESULT:      15.5      0.000      0.000
REMARK  3 active torsions:
REMARK  status: ('A' for Active; 'I' for Inactive)
REMARK    1  A    between atoms: N_3  and  C_1 
REMARK    2  A    between atoms: C_5  and  C_2 
REMARK       I    between atoms: C_4  and  N_3 
REMARK    3  A    between atoms: C_10  and  C_4 
ROOT
ATOM      1  N   UNL d   1      45.408 -14.228  44.235  0.00  0.00    -0.201 NA
ATOM      2  C   UNL d   1      45.936 -14.790  44.531  0.00  0.00     0.280 C 
ATOM      3  O   UNL d   1      46.611 -14.551  44.938  0.00  0.00    -0.265 OA
ENDROOT
BRANCH   1   4
ATOM      4  C   UNL d   1      45.559 -13.426  44.349  0.00  0.00     0.119 A 
ATOM      5  C   UNL d   1      45.285 -12.807  43.872  0.00  0.00     0.084 A 
ATOM      6  C   UNL d   1      45.570 -12.091  44.191  0.00  0.00     0.014 A 
ATOM      7  C   UNL d   1      46.016 -12.277  44.862  0.00  0.00     0.037 A 
ATOM      8  S   UNL d   1      46.006 -13.097  44.955  0.00  0.00    -0.067 SA
BRANCH   5   9
ATOM      9  C   UNL d   1      44.814 -12.879  43.198  0.00  0.00     0.299 C 
ATOM     10  O   UNL d   1      45.151 -12.761  42.448  0.00  0.00    -0.264 OA
ATOM     11  N   UNL d   1      44.012 -13.066  43.268  0.00  0.00    -0.102 N 
ENDBRANCH   5   9
ENDBRANCH   1   4
BRANCH   2  12
ATOM     12  C   UNL d   1      45.782 -15.589  44.416  0.00  0.00     0.058 A 
ATOM     13  C   UNL d   1      46.104 -15.975  43.763  0.00  0.00     0.005 A 
ATOM     14  C   UNL d   1      45.944 -16.781  43.652  0.00  0.00     0.000 A 
ATOM     15  C   UNL d   1      45.471 -17.190  44.186  0.00  0.00     0.000 A 
ATOM     16  C   UNL d   1      45.154 -16.795  44.837  0.00  0.00     0.000 A 
ATOM     17  C   UNL d   1      45.309 -15.991  44.954  0.00  0.00     0.005 A 
ENDBRANCH   2  12
TORSDOF 3
ENDMDL
