MODEL 1
REMARK VINA RESULT:      -4.1      0.000      0.000
REMARK  3 active torsions:
REMARK  status: ('A' for Active; 'I' for Inactive)
REMARK    1  A    between atoms: C_2  and  C_1 
REMARK    2  A    between atoms: C_13  and  N_4 
REMARK    3  A    between atoms: C_12  and  C_15 
ROOT
ATOM      1  C   UNL d   1      57.355   0.214  31.505  0.00  0.00     0.106 A 
ATOM      2  C   UNL d   1      57.667   0.367  30.213  0.00  0.00     0.206 A 
ATOM      3  N   UNL d   1      58.083  -0.286  30.496  0.00  0.00    -0.281 N 
ATOM      4  N   UNL d   1      57.214   0.682  30.831  0.00  0.00    -0.217 NA
ATOM      5  C   UNL d   1      57.892  -0.382  31.293  0.00  0.00     0.102 A 
ATOM      6  S   UNL d   1      57.694   0.661  29.443  0.00  0.00    -0.038 SA
ENDROOT
BRANCH   1   7
ATOM      7  C   UNL d   1      57.021   0.323  32.246  0.00  0.00     0.083 A 
ATOM      8  C   UNL d   1      57.498   0.558  32.883  0.00  0.00     0.302 A 
ATOM      9  O   UNL d   1      57.156   0.668  33.635  0.00  0.00    -0.273 OA
ATOM     10  O   UNL d   1      58.306   0.682  32.777  0.00  0.00    -0.259 OA
ATOM     11  C   UNL d   1      56.348   0.546  33.748  0.00  0.00     0.103 A 
ATOM     12  C   UNL d   1      55.871   0.311  33.111  0.00  0.00     0.023 A 
ATOM     13  C   UNL d   1      56.017   0.656  34.492  0.00  0.00     0.025 A 
ATOM     14  C   UNL d   1      56.207   0.198  32.354  0.00  0.00     0.009 A 
ATOM     15  C   UNL d   1      55.066   0.188  33.222  0.00  0.00     0.002 A 
ATOM     16  C   UNL d   1      54.734   0.299  33.967  0.00  0.00     0.000 A 
ATOM     17  C   UNL d   1      55.211   0.534  34.604  0.00  0.00     0.002 A 
ENDBRANCH   1   7
BRANCH   3  18
ATOM     18  C   UNL d   1      58.595  -0.753  30.062  0.00  0.00     0.066 A 
ATOM     19  C   UNL d   1      59.416  -0.634  30.115  0.00  0.00     0.018 A 
ATOM     20  C   UNL d   1      59.933  -1.102  29.679  0.00  0.00     0.008 A 
ATOM     21  C   UNL d   1      59.635  -1.698  29.183  0.00  0.00     0.065 A 
ATOM     22  C   UNL d   1      58.823  -1.816  29.131  0.00  0.00     0.008 A 
ATOM     23  C   UNL d   1      58.302  -1.345  29.569  0.00  0.00     0.018 A 
BRANCH  21  24
ATOM     24  C   UNL d   1      60.150  -2.168  28.746  0.00  0.00     0.211 C 
ATOM     25  O   UNL d   1      60.855  -1.845  28.455  0.00  0.00    -0.644 OA
ATOM     26  O   UNL d   1      59.968  -2.957  28.597  0.00  0.00    -0.644 OA
ENDBRANCH  21  24
ENDBRANCH   3  18
TORSDOF 3
ENDMDL
MODEL 2
REMARK VINA RESULT:      -3.9      1.020      5.325
REMARK  3 active torsions:
REMARK  status: ('A' for Active; 'I' for Inactive)
REMARK    1  A    between atoms: C_2  and  C_1 
REMARK    2  A    between atoms: C_13  and  N_4 
REMARK    3  A    between atoms: C_12  and  C_15 
ROOT
ATOM      1  C   UNL d   1      58.680  -0.927  29.943  0.00  0.00     0.106 A 
ATOM      2  C   UNL d   1      57.763   0.032  30.116  0.00  0.00     0.206 A 
ATOM      3  N   UNL d   1      57.790  -0.417  30.807  0.00  0.00    -0.281 N 
ATOM      4  N   UNL d   1      58.311  -0.277  29.576  0.00  0.00    -0.217 NA
ATOM      5  C   UNL d   1      58.355  -1.009  30.702  0.00  0.00     0.102 A 
ATOM      6  S   UNL d   1      57.273   0.682  29.980  0.00  0.00    -0.038 SA
ENDROOT
BRANCH   1   7
ATOM      7  C   UNL d   1      59.261  -1.401  29.612  0.00  0.00     0.083 A 
ATOM      8  C   UNL d   1      60.002  -1.076  29.424  0.00  0.00     0.302 A 
ATOM      9  O   UNL d   1      60.590  -1.560  29.088  0.00  0.00    -0.273 OA
ATOM     10  O   UNL d   1      60.157  -0.279  29.569  0.00  0.00    -0.259 OA
ATOM     11  C   UNL d   1      60.441  -2.358  28.940  0.00  0.00     0.103 A 
ATOM     12  C   UNL d   1      59.701  -2.683  29.128  0.00  0.00     0.023 A 
ATOM     13  C   UNL d   1      61.026  -2.830  28.608  0.00  0.00     0.025 A 
ATOM     14  C   UNL d   1      59.105  -2.203  29.466  0.00  0.00     0.009 A 
ATOM     15  C   UNL d   1      59.550  -3.477  28.982  0.00  0.00     0.002 A 
ATOM     16  C   UNL d   1      60.136  -3.950  28.649  0.00  0.00     0.000 A 
ATOM     17  C   UNL d   1      60.876  -3.625  28.462  0.00  0.00     0.002 A 
ENDBRANCH   1   7
BRANCH   3  18
ATOM     18  C   UNL d   1      57.336  -0.294  31.475  0.00  0.00     0.066 A 
ATOM     19  C   UNL d   1      57.510   0.337  31.988  0.00  0.00     0.018 A 
ATOM     20  C   UNL d   1      57.055   0.463  32.662  0.00  0.00     0.008 A 
ATOM     21  C   UNL d   1      56.417  -0.043  32.832  0.00  0.00     0.065 A 
ATOM     22  C   UNL d   1      56.246  -0.667  32.325  0.00  0.00     0.008 A 
ATOM     23  C   UNL d   1      56.703  -0.794  31.648  0.00  0.00     0.018 A 
BRANCH  21  24
ATOM     24  C   UNL d   1      55.961   0.081  33.505  0.00  0.00     0.211 C 
ATOM     25  O   UNL d   1      56.243   0.573  34.109  0.00  0.00    -0.644 OA
ATOM     26  O   UNL d   1      55.226  -0.282  33.581  0.00  0.00    -0.644 OA
ENDBRANCH  21  24
ENDBRANCH   3  18
TORSDOF 3
ENDMDL
