MODEL 1
REMARK VINA RESULT:      -7.5      0.000      0.000
REMARK  2 active torsions:
REMARK  status: ('A' for Active; 'I' for Inactive)
REMARK    1  A    between atoms: C_6  and  C_1 
REMARK    2  A    between atoms: O_10  and  C_6 
ROOT
ATOM      1  C   UNL d   1     -48.116  13.906  22.881  0.00  0.00     0.096 A 
ATOM      2  S   UNL d   1     -47.307  14.108  22.909  0.00  0.00    -0.040 SA
ATOM      3  C   UNL d   1     -46.746  13.535  23.121  0.00  0.00     0.226 A 
ATOM      4  C   UNL d   1     -48.354  13.133  23.066  0.00  0.00     0.012 A 
ATOM      5  C   UNL d   1     -47.795  12.567  23.276  0.00  0.00     0.004 A 
ATOM      6  C   UNL d   1     -46.995  12.766  23.304  0.00  0.00     0.045 A 
ATOM      7  O   UNL d   1     -45.946  13.735  23.148  0.00  0.00    -0.279 OA
ATOM      8  C   UNL d   1     -48.035  11.801  23.459  0.00  0.00     0.000 A 
ATOM      9  C   UNL d   1     -46.427  12.203  23.514  0.00  0.00     0.004 A 
ATOM     10  C   UNL d   1     -47.475  11.235  23.669  0.00  0.00     0.000 A 
ATOM     11  C   UNL d   1     -46.667  11.437  23.697  0.00  0.00     0.000 A 
ENDROOT
BRANCH   1  12
ATOM     12  C   UNL d   1     -48.668  14.478  22.670  0.00  0.00     0.302 C 
ATOM     13  O   UNL d   1     -48.882  14.561  21.877  0.00  0.00    -0.259 OA
BRANCH  12  14
ATOM     14  O   UNL d   1     -49.008  14.966  23.233  0.00  0.00    -0.295 OA
ATOM     15  C   UNL d   1     -49.603  15.505  23.006  0.00  0.00     0.185 C 
ENDBRANCH  12  14
ENDBRANCH   1  12
TORSDOF 2
ENDMDL
MODEL 2
REMARK VINA RESULT:      -7.3      1.595      2.912
REMARK  2 active torsions:
REMARK  status: ('A' for Active; 'I' for Inactive)
REMARK    1  A    between atoms: C_6  and  C_1 
REMARK    2  A    between atoms: O_10  and  C_6 
ROOT
ATOM      1  C   UNL d   1     -47.355  12.715  23.110  0.00  0.00     0.096 A 
ATOM      2  S   UNL d   1     -47.465  11.928  23.362  0.00  0.00    -0.040 SA
ATOM      3  C   UNL d   1     -48.233  11.626  23.448  0.00  0.00     0.226 A 
ATOM      4  C   UNL d   1     -48.015  13.191  22.946  0.00  0.00     0.012 A 
ATOM      5  C   UNL d   1     -48.776  12.888  23.032  0.00  0.00     0.004 A 
ATOM      6  C   UNL d   1     -48.884  12.109  23.282  0.00  0.00     0.045 A 
ATOM      7  O   UNL d   1     -48.342  10.847  23.698  0.00  0.00    -0.279 OA
ATOM      8  C   UNL d   1     -49.427  13.363  22.869  0.00  0.00     0.000 A 
ATOM      9  C   UNL d   1     -49.645  11.798  23.371  0.00  0.00     0.004 A 
ATOM     10  C   UNL d   1     -50.188  13.061  22.956  0.00  0.00     0.000 A 
ATOM     11  C   UNL d   1     -50.298  12.273  23.208  0.00  0.00     0.000 A 
ENDROOT
BRANCH   1  12
ATOM     12  C   UNL d   1     -46.591  13.010  23.026  0.00  0.00     0.302 C 
ATOM     13  O   UNL d   1     -46.190  13.288  23.691  0.00  0.00    -0.259 OA
BRANCH  12  14
ATOM     14  O   UNL d   1     -46.224  13.031  22.294  0.00  0.00    -0.295 OA
ATOM     15  C   UNL d   1     -45.437  13.301  22.236  0.00  0.00     0.185 C 
ENDBRANCH  12  14
ENDBRANCH   1  12
TORSDOF 2
ENDMDL
MODEL 3
REMARK VINA RESULT:      -7.1      1.433      3.231
REMARK  2 active torsions:
REMARK  status: ('A' for Active; 'I' for Inactive)
REMARK    1  A    between atoms: C_6  and  C_1 
REMARK    2  A    between atoms: O_10  and  C_6 
ROOT
ATOM      1  C   UNL d   1     -47.190  13.598  22.882  0.00  0.00     0.096 A 
ATOM      2  S   UNL d   1     -47.707  12.963  23.042  0.00  0.00    -0.040 SA
ATOM      3  C   UNL d   1     -48.526  13.092  23.061  0.00  0.00     0.226 A 
ATOM      4  C   UNL d   1     -47.499  14.355  22.743  0.00  0.00     0.012 A 
ATOM      5  C   UNL d   1     -48.313  14.480  22.763  0.00  0.00     0.004 A 
ATOM      6  C   UNL d   1     -48.824  13.852  22.921  0.00  0.00     0.045 A 
ATOM      7  O   UNL d   1     -49.036  12.464  23.219  0.00  0.00    -0.279 OA
ATOM      8  C   UNL d   1     -48.616  15.233  22.625  0.00  0.00     0.000 A 
ATOM      9  C   UNL d   1     -49.642  13.970  22.943  0.00  0.00     0.004 A 
ATOM     10  C   UNL d   1     -49.430  15.358  22.645  0.00  0.00     0.000 A 
ATOM     11  C   UNL d   1     -49.946  14.723  22.805  0.00  0.00     0.000 A 
ENDROOT
BRANCH   1  12
ATOM     12  C   UNL d   1     -46.379  13.464  22.864  0.00  0.00     0.302 C 
ATOM     13  O   UNL d   1     -45.949  13.482  23.568  0.00  0.00    -0.259 OA
BRANCH  12  14
ATOM     14  O   UNL d   1     -45.990  13.314  22.158  0.00  0.00    -0.295 OA
ATOM     15  C   UNL d   1     -45.162  13.214  22.157  0.00  0.00     0.185 C 
ENDBRANCH  12  14
ENDBRANCH   1  12
TORSDOF 2
ENDMDL
MODEL 4
REMARK VINA RESULT:      -7.1      1.334      1.834
REMARK  2 active torsions:
REMARK  status: ('A' for Active; 'I' for Inactive)
REMARK    1  A    between atoms: C_6  and  C_1 
REMARK    2  A    between atoms: O_10  and  C_6 
ROOT
ATOM      1  C   UNL d   1     -48.924  14.501  22.955  0.00  0.00     0.096 A 
ATOM      2  S   UNL d   1     -49.165  13.703  22.937  0.00  0.00    -0.040 SA
ATOM      3  C   UNL d   1     -48.595  13.101  22.909  0.00  0.00     0.226 A 
ATOM      4  C   UNL d   1     -48.116  14.688  22.944  0.00  0.00     0.012 A 
ATOM      5  C   UNL d   1     -47.552  14.088  22.917  0.00  0.00     0.004 A 
ATOM      6  C   UNL d   1     -47.791  13.299  22.899  0.00  0.00     0.045 A 
ATOM      7  O   UNL d   1     -48.833  12.311  22.892  0.00  0.00    -0.279 OA
ATOM      8  C   UNL d   1     -46.752  14.277  22.906  0.00  0.00     0.000 A 
ATOM      9  C   UNL d   1     -47.231  12.690  22.871  0.00  0.00     0.004 A 
ATOM     10  C   UNL d   1     -46.188  13.678  22.879  0.00  0.00     0.000 A 
ATOM     11  C   UNL d   1     -46.429  12.879  22.861  0.00  0.00     0.000 A 
ENDROOT
BRANCH   1  12
ATOM     12  C   UNL d   1     -49.494  15.094  22.982  0.00  0.00     0.302 C 
ATOM     13  O   UNL d   1     -49.722  15.469  22.284  0.00  0.00    -0.259 OA
BRANCH  12  14
ATOM     14  O   UNL d   1     -49.837  15.318  23.692  0.00  0.00    -0.295 OA
ATOM     15  C   UNL d   1     -50.413  15.922  23.698  0.00  0.00     0.185 C 
ENDBRANCH  12  14
ENDBRANCH   1  12
TORSDOF 2
ENDMDL
MODEL 5
REMARK VINA RESULT:      -7.1      1.020      2.669
REMARK  2 active torsions:
REMARK  status: ('A' for Active; 'I' for Inactive)
REMARK    1  A    between atoms: C_6  and  C_1 
REMARK    2  A    between atoms: O_10  and  C_6 
ROOT
ATOM      1  C   UNL d   1     -47.277  13.261  22.985  0.00  0.00     0.096 A 
ATOM      2  S   UNL d   1     -47.748  13.937  22.854  0.00  0.00    -0.040 SA
ATOM      3  C   UNL d   1     -48.574  13.880  22.906  0.00  0.00     0.226 A 
ATOM      4  C   UNL d   1     -47.638  12.537  23.167  0.00  0.00     0.012 A 
ATOM      5  C   UNL d   1     -48.458  12.484  23.218  0.00  0.00     0.004 A 
ATOM      6  C   UNL d   1     -48.924  13.152  23.088  0.00  0.00     0.045 A 
ATOM      7  O   UNL d   1     -49.039  14.549  22.776  0.00  0.00    -0.279 OA
ATOM      8  C   UNL d   1     -48.812  11.764  23.399  0.00  0.00     0.000 A 
ATOM      9  C   UNL d   1     -49.748  13.107  23.138  0.00  0.00     0.004 A 
ATOM     10  C   UNL d   1     -49.632  11.711  23.450  0.00  0.00     0.000 A 
ATOM     11  C   UNL d   1     -50.103  12.386  23.319  0.00  0.00     0.000 A 
ENDROOT
BRANCH   1  12
ATOM     12  C   UNL d   1     -46.458  13.323  22.932  0.00  0.00     0.302 C 
ATOM     13  O   UNL d   1     -46.017  13.462  23.615  0.00  0.00    -0.259 OA
BRANCH  12  14
ATOM     14  O   UNL d   1     -46.074  13.248  22.212  0.00  0.00    -0.295 OA
ATOM     15  C   UNL d   1     -45.241  13.284  22.184  0.00  0.00     0.185 C 
ENDBRANCH  12  14
ENDBRANCH   1  12
TORSDOF 2
ENDMDL
MODEL 6
REMARK VINA RESULT:      -7.1      1.147      1.579
REMARK  2 active torsions:
REMARK  status: ('A' for Active; 'I' for Inactive)
REMARK    1  A    between atoms: C_6  and  C_1 
REMARK    2  A    between atoms: O_10  and  C_6 
ROOT
ATOM      1  C   UNL d   1     -48.671  13.467  22.926  0.00  0.00     0.096 A 
ATOM      2  S   UNL d   1     -49.143  12.794  23.069  0.00  0.00    -0.040 SA
ATOM      3  C   UNL d   1     -48.785  12.082  23.298  0.00  0.00     0.226 A 
ATOM      4  C   UNL d   1     -47.848  13.420  23.014  0.00  0.00     0.012 A 
ATOM      5  C   UNL d   1     -47.496  12.711  23.241  0.00  0.00     0.004 A 
ATOM      6  C   UNL d   1     -47.962  12.045  23.383  0.00  0.00     0.045 A 
ATOM      7  O   UNL d   1     -49.251  11.416  23.440  0.00  0.00    -0.279 OA
ATOM      8  C   UNL d   1     -46.679  12.668  23.327  0.00  0.00     0.000 A 
ATOM      9  C   UNL d   1     -47.615  11.330  23.612  0.00  0.00     0.004 A 
ATOM     10  C   UNL d   1     -46.326  11.960  23.555  0.00  0.00     0.000 A 
ATOM     11  C   UNL d   1     -46.798  11.286  23.698  0.00  0.00     0.000 A 
ENDROOT
BRANCH   1  12
ATOM     12  C   UNL d   1     -49.031  14.172  22.699  0.00  0.00     0.302 C 
ATOM     13  O   UNL d   1     -49.156  14.323  21.897  0.00  0.00    -0.259 OA
BRANCH  12  14
ATOM     14  O   UNL d   1     -49.268  14.724  23.256  0.00  0.00    -0.295 OA
ATOM     15  C   UNL d   1     -49.590  15.451  23.003  0.00  0.00     0.185 C 
ENDBRANCH  12  14
ENDBRANCH   1  12
TORSDOF 2
ENDMDL
MODEL 7
REMARK VINA RESULT:      -5.6      8.378      8.905
REMARK  2 active torsions:
REMARK  status: ('A' for Active; 'I' for Inactive)
REMARK    1  A    between atoms: C_6  and  C_1 
REMARK    2  A    between atoms: O_10  and  C_6 
ROOT
ATOM      1  C   UNL d   1     -40.669  15.304  17.815  0.00  0.00     0.096 A 
ATOM      2  S   UNL d   1     -40.244  14.588  17.864  0.00  0.00    -0.040 SA
ATOM      3  C   UNL d   1     -39.999  14.303  18.604  0.00  0.00     0.226 A 
ATOM      4  C   UNL d   1     -40.845  15.726  18.507  0.00  0.00     0.012 A 
ATOM      5  C   UNL d   1     -40.601  15.441  19.240  0.00  0.00     0.004 A 
ATOM      6  C   UNL d   1     -40.180  14.733  19.288  0.00  0.00     0.045 A 
ATOM      7  O   UNL d   1     -39.579  13.595  18.652  0.00  0.00    -0.279 OA
ATOM      8  C   UNL d   1     -40.777  15.863  19.924  0.00  0.00     0.000 A 
ATOM      9  C   UNL d   1     -39.932  14.440  20.021  0.00  0.00     0.004 A 
ATOM     10  C   UNL d   1     -40.533  15.578  20.657  0.00  0.00     0.000 A 
ATOM     11  C   UNL d   1     -40.108  14.862  20.706  0.00  0.00     0.000 A 
ENDROOT
BRANCH   1  12
ATOM     12  C   UNL d   1     -40.909  15.582  17.079  0.00  0.00     0.302 C 
ATOM     13  O   UNL d   1     -40.352  15.920  16.572  0.00  0.00    -0.259 OA
BRANCH  12  14
ATOM     14  O   UNL d   1     -41.691  15.528  16.841  0.00  0.00    -0.295 OA
ATOM     15  C   UNL d   1     -41.938  15.922  16.149  0.00  0.00     0.185 C 
ENDBRANCH  12  14
ENDBRANCH   1  12
TORSDOF 2
ENDMDL
MODEL 8
REMARK VINA RESULT:      -5.4      9.342     10.307
REMARK  2 active torsions:
REMARK  status: ('A' for Active; 'I' for Inactive)
REMARK    1  A    between atoms: C_6  and  C_1 
REMARK    2  A    between atoms: O_10  and  C_6 
ROOT
ATOM      1  C   UNL d   1     -39.981  14.358  17.938  0.00  0.00     0.096 A 
ATOM      2  S   UNL d   1     -40.044  15.044  17.468  0.00  0.00    -0.040 SA
ATOM      3  C   UNL d   1     -39.562  15.131  16.798  0.00  0.00     0.226 A 
ATOM      4  C   UNL d   1     -39.438  13.766  17.732  0.00  0.00     0.012 A 
ATOM      5  C   UNL d   1     -38.961  13.855  17.067  0.00  0.00     0.004 A 
ATOM      6  C   UNL d   1     -39.022  14.534  16.602  0.00  0.00     0.045 A 
ATOM      7  O   UNL d   1     -39.624  15.810  16.334  0.00  0.00    -0.279 OA
ATOM      8  C   UNL d   1     -38.422  13.266  16.866  0.00  0.00     0.000 A 
ATOM      9  C   UNL d   1     -38.547  14.631  15.932  0.00  0.00     0.004 A 
ATOM     10  C   UNL d   1     -37.945  13.355  16.201  0.00  0.00     0.000 A 
ATOM     11  C   UNL d   1     -38.008  14.041  15.731  0.00  0.00     0.000 A 
ENDROOT
BRANCH   1  12
ATOM     12  C   UNL d   1     -40.462  14.277  18.601  0.00  0.00     0.302 C 
ATOM     13  O   UNL d   1     -41.193  13.903  18.528  0.00  0.00    -0.259 OA
BRANCH  12  14
ATOM     14  O   UNL d   1     -40.226  14.563  19.332  0.00  0.00    -0.295 OA
ATOM     15  C   UNL d   1     -40.703  14.425  20.001  0.00  0.00     0.185 C 
ENDBRANCH  12  14
ENDBRANCH   1  12
TORSDOF 2
ENDMDL
MODEL 9
REMARK VINA RESULT:      -5.0      7.845      8.755
REMARK  2 active torsions:
REMARK  status: ('A' for Active; 'I' for Inactive)
REMARK    1  A    between atoms: C_6  and  C_1 
REMARK    2  A    between atoms: O_10  and  C_6 
ROOT
ATOM      1  C   UNL d   1     -40.283  14.517  19.151  0.00  0.00     0.096 A 
ATOM      2  S   UNL d   1     -40.794  14.859  19.715  0.00  0.00    -0.040 SA
ATOM      3  C   UNL d   1     -40.577  14.868  20.515  0.00  0.00     0.226 A 
ATOM      4  C   UNL d   1     -39.561  14.189  19.395  0.00  0.00     0.012 A 
ATOM      5  C   UNL d   1     -39.349  14.199  20.191  0.00  0.00     0.004 A 
ATOM      6  C   UNL d   1     -39.855  14.537  20.748  0.00  0.00     0.045 A 
ATOM      7  O   UNL d   1     -41.083  15.207  21.073  0.00  0.00    -0.279 OA
ATOM      8  C   UNL d   1     -38.633  13.872  20.429  0.00  0.00     0.000 A 
ATOM      9  C   UNL d   1     -39.649  14.552  21.549  0.00  0.00     0.004 A 
ATOM     10  C   UNL d   1     -38.421  13.883  21.225  0.00  0.00     0.000 A 
ATOM     11  C   UNL d   1     -38.932  14.225  21.788  0.00  0.00     0.000 A 
ENDROOT
BRANCH   1  12
ATOM     12  C   UNL d   1     -40.502  14.511  18.358  0.00  0.00     0.302 C 
ATOM     13  O   UNL d   1     -40.876  13.844  18.047  0.00  0.00    -0.259 OA
BRANCH  12  14
ATOM     14  O   UNL d   1     -40.355  15.155  17.874  0.00  0.00    -0.295 OA
ATOM     15  C   UNL d   1     -40.584  15.127  17.072  0.00  0.00     0.185 C 
ENDBRANCH  12  14
ENDBRANCH   1  12
TORSDOF 2
ENDMDL
