MODEL 1
REMARK VINA RESULT:      88.4      0.000      0.000
REMARK  3 active torsions:
REMARK  status: ('A' for Active; 'I' for Inactive)
REMARK    1  A    between atoms: N_2  and  S_1 
REMARK    2  A    between atoms: C_3  and  S_1 
REMARK    3  A    between atoms: C_10  and  C_9 
ROOT
ATOM      1  C   UNL d   1      58.718  49.164  51.545  0.00  0.00     0.104 A 
ATOM      2  C   UNL d   1      60.136  48.602  50.903  0.00  0.00     0.000 A 
ATOM      3  C   UNL d   1      58.869  48.355  51.523  0.00  0.00     0.013 A 
ATOM      4  C   UNL d   1      59.275  49.697  51.245  0.00  0.00     0.013 A 
ATOM      5  C   UNL d   1      59.986  49.415  50.924  0.00  0.00     0.001 A 
ATOM      6  C   UNL d   1      59.580  48.073  51.201  0.00  0.00     0.001 A 
ENDROOT
BRANCH   1   7
ATOM      7  S   UNL d   1      58.009  49.436  51.866  0.00  0.00     0.271 S 
ATOM      8  O   UNL d   1      58.324  49.392  52.617  0.00  0.00    -0.200 OA
ATOM      9  O   UNL d   1      57.300  49.708  52.178  0.00  0.00    -0.200 OA
BRANCH   7  10
ATOM     10  N   UNL d   1      57.684  49.484  51.109  0.00  0.00    -0.226 N 
ATOM     11  C   UNL d   1      56.859  49.441  51.019  0.00  0.00     0.111 A 
ATOM     12  C   UNL d   1      56.532  49.489  50.263  0.00  0.00     0.100 A 
ATOM     13  N   UNL d   1      57.025  49.577  49.612  0.00  0.00    -0.299 N 
ATOM     14  C   UNL d   1      57.838  49.620  49.698  0.00  0.00     0.100 A 
ATOM     15  C   UNL d   1      56.688  49.625  48.852  0.00  0.00     0.100 C 
ATOM     16  C   UNL d   1      58.168  49.573  50.452  0.00  0.00     0.111 A 
ENDBRANCH   7  10
ENDBRANCH   1   7
BRANCH   2  17
ATOM     17  C   UNL d   1      60.837  48.315  50.586  0.00  0.00     0.000 A 
ATOM     18  C   UNL d   1      61.510  48.788  50.562  0.00  0.00     0.001 A 
ATOM     19  C   UNL d   1      62.211  48.494  50.242  0.00  0.00     0.011 A 
ATOM     20  C   UNL d   1      62.239  47.726  49.947  0.00  0.00     0.058 A 
ATOM     21  C   UNL d   1      61.555  47.248  49.973  0.00  0.00     0.011 A 
ATOM     22 CL   UNL d   1      62.933  47.434  49.631  0.00  0.00    -0.082 Cl
ATOM     23  C   UNL d   1      60.865  47.547  50.292  0.00  0.00     0.001 A 
ENDBRANCH   2  17
TORSDOF 3
ENDMDL
