MODEL 1
REMARK VINA RESULT:      -5.3      0.000      0.000
REMARK  5 active torsions:
REMARK  status: ('A' for Active; 'I' for Inactive)
REMARK    1  A    between atoms: N_2  and  S_1 
REMARK    2  A    between atoms: C_4  and  S_1 
REMARK    3  A    between atoms: C_3  and  N_2 
REMARK    4  A    between atoms: O_19  and  C_13 
REMARK    5  A    between atoms: C_20  and  O_19 
ROOT
ATOM      1  S   UNL d   1     -41.761-123.006 -50.797  0.00  0.00     0.327 S 
ATOM      2  O   UNL d   1     -41.211-123.622 -50.798  0.00  0.00    -0.186 OA
ATOM      3  O   UNL d   1     -42.311-122.388 -50.800  0.00  0.00    -0.186 OA
ENDROOT
BRANCH   1   4
ATOM      4  N   UNL d   1     -41.924-123.146 -49.999  0.00  0.00    -0.314 NA
BRANCH   4   5
ATOM      5  C   UNL d   1     -42.096-123.278 -49.202  0.00  0.00     0.185 A 
ATOM      6  C   UNL d   1     -41.546-123.073 -48.624  0.00  0.00     0.048 A 
ATOM      7  C   UNL d   1     -41.717-123.203 -47.835  0.00  0.00     0.060 A 
ATOM      8 CL   UNL d   1     -41.168-122.998 -47.254  0.00  0.00    -0.082 Cl
ATOM      9  C   UNL d   1     -42.438-123.539 -47.618  0.00  0.00     0.015 A 
ATOM     10  C   UNL d   1     -42.988-123.743 -48.198  0.00  0.00     0.046 A 
ATOM     11  C   UNL d   1     -42.815-123.611 -48.997  0.00  0.00     0.226 A 
ATOM     12  O   UNL d   1     -43.364-123.816 -49.577  0.00  0.00    -0.284 OA
ENDBRANCH   4   5
ENDBRANCH   1   4
BRANCH   1  13
ATOM     13  C   UNL d   1     -41.601-122.862 -51.596  0.00  0.00     0.117 A 
ATOM     14  C   UNL d   1     -41.519-122.088 -51.862  0.00  0.00     0.016 A 
ATOM     15  C   UNL d   1     -41.359-121.939 -52.659  0.00  0.00     0.025 A 
ATOM     16  C   UNL d   1     -41.282-122.573 -53.192  0.00  0.00     0.100 A 
ATOM     17  C   UNL d   1     -41.367-123.350 -52.914  0.00  0.00     0.025 A 
ATOM     18  C   UNL d   1     -41.526-123.493 -52.119  0.00  0.00     0.016 A 
BRANCH  16  19
ATOM     19  O   UNL d   1     -41.123-122.429 -53.991  0.00  0.00    -0.305 OA
BRANCH  19  20
ATOM     20  C   UNL d   1     -41.744-122.318 -54.520  0.00  0.00     0.123 C 
ATOM     21  C   UNL d   1     -41.594-122.216 -55.326  0.00  0.00     0.029 C 
ENDBRANCH  19  20
ENDBRANCH  16  19
ENDBRANCH   1  13
TORSDOF 5
ENDMDL
MODEL 2
REMARK VINA RESULT:      -4.3      2.149      4.861
REMARK  5 active torsions:
REMARK  status: ('A' for Active; 'I' for Inactive)
REMARK    1  A    between atoms: N_2  and  S_1 
REMARK    2  A    between atoms: C_4  and  S_1 
REMARK    3  A    between atoms: C_3  and  N_2 
REMARK    4  A    between atoms: O_19  and  C_13 
REMARK    5  A    between atoms: C_20  and  O_19 
ROOT
ATOM      1  S   UNL d   1     -41.630-122.880 -51.804  0.00  0.00     0.327 S 
ATOM      2  O   UNL d   1     -42.137-123.531 -51.848  0.00  0.00    -0.186 OA
ATOM      3  O   UNL d   1     -41.123-122.229 -51.756  0.00  0.00    -0.186 OA
ENDROOT
BRANCH   1   4
ATOM      4  N   UNL d   1     -41.689-122.773 -52.622  0.00  0.00    -0.314 NA
BRANCH   4   5
ATOM      5  C   UNL d   1     -41.760-122.666 -53.438  0.00  0.00     0.185 A 
ATOM      6  C   UNL d   1     -41.406-123.201 -53.954  0.00  0.00     0.048 A 
ATOM      7  C   UNL d   1     -41.476-123.095 -54.762  0.00  0.00     0.060 A 
ATOM      8 CL   UNL d   1     -41.123-123.629 -55.281  0.00  0.00    -0.082 Cl
ATOM      9  C   UNL d   1     -41.901-122.453 -55.059  0.00  0.00     0.015 A 
ATOM     10  C   UNL d   1     -42.255-121.918 -54.540  0.00  0.00     0.046 A 
ATOM     11  C   UNL d   1     -42.184-122.026 -53.723  0.00  0.00     0.226 A 
ATOM     12  O   UNL d   1     -42.537-121.491 -53.204  0.00  0.00    -0.284 OA
ENDBRANCH   4   5
ENDBRANCH   1   4
BRANCH   1  13
ATOM     13  C   UNL d   1     -41.569-122.983 -50.986  0.00  0.00     0.117 A 
ATOM     14  C   UNL d   1     -41.821-122.386 -50.479  0.00  0.00     0.016 A 
ATOM     15  C   UNL d   1     -41.762-122.485 -49.661  0.00  0.00     0.025 A 
ATOM     16  C   UNL d   1     -41.447-123.188 -49.350  0.00  0.00     0.100 A 
ATOM     17  C   UNL d   1     -41.195-123.785 -49.869  0.00  0.00     0.025 A 
ATOM     18  C   UNL d   1     -41.256-123.682 -50.683  0.00  0.00     0.016 A 
BRANCH  16  19
ATOM     19  O   UNL d   1     -41.385-123.292 -48.532  0.00  0.00    -0.305 OA
BRANCH  19  20
ATOM     20  C   UNL d   1     -42.040-123.155 -48.051  0.00  0.00     0.123 C 
ATOM     21  C   UNL d   1     -42.048-123.423 -47.269  0.00  0.00     0.029 C 
ENDBRANCH  19  20
ENDBRANCH  16  19
ENDBRANCH   1  13
TORSDOF 5
ENDMDL
