MODEL 1
REMARK VINA RESULT:      52.9      0.000      0.000
REMARK  3 active torsions:
REMARK  status: ('A' for Active; 'I' for Inactive)
REMARK    1  A    between atoms: S_2  and  C_1 
REMARK    2  A    between atoms: C_8  and  S_2 
REMARK    3  A    between atoms: C_20  and  C_13 
ROOT
ATOM      1  C   UNL d   1     -51.296  25.600  33.358  0.00  0.00     0.151 A 
ATOM      2  C   UNL d   1     -50.789  24.938  33.334  0.00  0.00     0.311 A 
ATOM      3  C   UNL d   1     -52.111  25.484  33.365  0.00  0.00     0.019 A 
ATOM      4  O   UNL d   1     -51.108  24.175  33.317  0.00  0.00    -0.273 OA
ATOM      5  C   UNL d   1     -52.432  24.730  33.348  0.00  0.00     0.024 A 
ATOM      6  C   UNL d   1     -51.924  24.068  33.323  0.00  0.00     0.103 A 
ATOM      7  O   UNL d   1     -49.965  25.046  33.327  0.00  0.00    -0.258 OA
ATOM      8  C   UNL d   1     -53.242  24.618  33.354  0.00  0.00     0.009 A 
ATOM      9  C   UNL d   1     -52.239  23.309  33.306  0.00  0.00     0.025 A 
ATOM     10  C   UNL d   1     -53.569  23.859  33.337  0.00  0.00     0.035 A 
ATOM     11  C   UNL d   1     -53.062  23.197  33.313  0.00  0.00     0.009 A 
ATOM     12 BR   UNL d   1     -54.398  23.749  33.344  0.00  0.00    -0.049 Br
ENDROOT
BRANCH   1  13
ATOM     13  S   UNL d   1     -50.971  26.358  33.376  0.00  0.00     0.215 S 
ATOM     14  O   UNL d   1     -50.207  26.041  33.342  0.00  0.00    -0.217 OA
ATOM     15  O   UNL d   1     -51.738  26.682  33.409  0.00  0.00    -0.217 OA
BRANCH  13  16
ATOM     16  C   UNL d   1     -50.652  27.122  33.393  0.00  0.00     0.088 A 
ATOM     17  C   UNL d   1     -51.150  27.784  33.323  0.00  0.00     0.011 A 
ATOM     18  C   UNL d   1     -50.831  28.544  33.341  0.00  0.00     0.001 A 
ATOM     19  C   UNL d   1     -50.018  28.653  33.428  0.00  0.00     0.000 A 
ATOM     20  C   UNL d   1     -49.522  27.995  33.498  0.00  0.00     0.001 A 
ATOM     21  C   UNL d   1     -49.840  27.235  33.480  0.00  0.00     0.011 A 
BRANCH  19  22
ATOM     22  C   UNL d   1     -49.701  29.420  33.445  0.00  0.00     0.000 C 
ATOM     23  C   UNL d   1     -50.200  30.066  33.441  0.00  0.00     0.000 C 
ATOM     24  C   UNL d   1     -48.883  29.525  33.467  0.00  0.00     0.000 C 
ENDBRANCH  19  22
ENDBRANCH  13  16
ENDBRANCH   1  13
TORSDOF 3
ENDMDL
