MODEL 1
REMARK VINA RESULT:      -5.1      0.000      0.000
REMARK  3 active torsions:
REMARK  status: ('A' for Active; 'I' for Inactive)
REMARK    1  A    between atoms: C_5  and  C_3 
REMARK       I    between atoms: N_10  and  C_5 
REMARK    2  A    between atoms: C_13  and  N_10 
REMARK    3  A    between atoms: C_15  and  C_13 
ROOT
ATOM      1  N   UNL d   1      59.804  -1.822  29.114  0.00  0.00    -0.254 N 
ATOM      2  C   UNL d   1      59.359  -1.202  29.440  0.00  0.00     0.272 A 
ATOM      3  C   UNL d   1      58.567  -1.320  29.648  0.00  0.00     0.133 A 
ATOM      4  C   UNL d   1      59.447  -2.557  29.000  0.00  0.00     0.182 A 
ATOM      5  N   UNL d   1      58.660  -2.677  29.205  0.00  0.00    -0.220 NA
ATOM      6  C   UNL d   1      58.217  -2.058  29.531  0.00  0.00     0.111 A 
ATOM      7  S   UNL d   1      60.009  -3.064  28.671  0.00  0.00    -0.048 SA
ATOM      8  C   UNL d   1      60.580  -1.870  28.860  0.00  0.00     0.075 A 
ATOM      9  C   UNL d   1      60.716  -2.631  28.586  0.00  0.00     0.056 A 
ATOM     10  O   UNL d   1      59.716  -0.467  29.555  0.00  0.00    -0.266 OA
ATOM     11  C   UNL d   1      61.133  -1.263  28.875  0.00  0.00     0.020 C 
ENDROOT
BRANCH   3  12
ATOM     12  C   UNL d   1      58.135  -0.692  29.973  0.00  0.00     0.285 C 
ATOM     13  N   UNL d   1      57.790  -0.784  30.715  0.00  0.00    -0.208 NA
ATOM     14  O   UNL d   1      58.051   0.010  29.564  0.00  0.00    -0.265 OA
BRANCH  13  15
ATOM     15  C   UNL d   1      57.359  -0.167  31.047  0.00  0.00     0.085 C 
ATOM     16  C   UNL d   1      57.290   0.549  30.658  0.00  0.00     0.021 C 
BRANCH  15  17
ATOM     17  C   UNL d   1      56.995  -0.277  31.779  0.00  0.00     0.018 A 
ATOM     18  C   UNL d   1      57.088   0.305  32.361  0.00  0.00     0.002 A 
ATOM     19  C   UNL d   1      56.724   0.194  33.093  0.00  0.00     0.000 A 
ATOM     20  C   UNL d   1      56.271  -0.489  33.251  0.00  0.00     0.000 A 
ATOM     21  C   UNL d   1      56.187  -1.062  32.660  0.00  0.00     0.000 A 
ATOM     22  C   UNL d   1      56.546  -0.962  31.924  0.00  0.00     0.002 A 
ENDBRANCH  15  17
ENDBRANCH  13  15
ENDBRANCH   3  12
TORSDOF 3
ENDMDL
MODEL 2
REMARK VINA RESULT:      -5.0      1.708      4.469
REMARK  3 active torsions:
REMARK  status: ('A' for Active; 'I' for Inactive)
REMARK    1  A    between atoms: C_5  and  C_3 
REMARK       I    between atoms: N_10  and  C_5 
REMARK    2  A    between atoms: C_13  and  N_10 
REMARK    3  A    between atoms: C_15  and  C_13 
ROOT
ATOM      1  N   UNL d   1      56.951  -0.311  32.283  0.00  0.00    -0.254 N 
ATOM      2  C   UNL d   1      57.142  -0.490  31.496  0.00  0.00     0.272 A 
ATOM      3  C   UNL d   1      57.752  -0.084  31.112  0.00  0.00     0.133 A 
ATOM      4  C   UNL d   1      57.376   0.277  32.678  0.00  0.00     0.182 A 
ATOM      5  N   UNL d   1      57.982   0.682  32.297  0.00  0.00    -0.220 NA
ATOM      6  C   UNL d   1      58.172   0.502  31.512  0.00  0.00     0.111 A 
ATOM      7  S   UNL d   1      57.073   0.339  33.443  0.00  0.00    -0.048 SA
ATOM      8  C   UNL d   1      56.390  -0.611  32.797  0.00  0.00     0.075 A 
ATOM      9  C   UNL d   1      56.457  -0.217  33.513  0.00  0.00     0.056 A 
ATOM     10  O   UNL d   1      56.717  -1.077  31.102  0.00  0.00    -0.266 OA
ATOM     11  C   UNL d   1      55.848  -1.205  32.630  0.00  0.00     0.020 C 
ENDROOT
BRANCH   3  12
ATOM     12  C   UNL d   1      57.932  -0.273  30.325  0.00  0.00     0.285 C 
ATOM     13  N   UNL d   1      58.579  -0.757  30.167  0.00  0.00    -0.208 NA
ATOM     14  O   UNL d   1      57.474   0.016  29.713  0.00  0.00    -0.265 OA
BRANCH  13  15
ATOM     15  C   UNL d   1      58.766  -0.952  29.390  0.00  0.00     0.085 C 
ATOM     16  C   UNL d   1      58.481  -0.504  28.768  0.00  0.00     0.021 C 
BRANCH  15  17
ATOM     17  C   UNL d   1      59.247  -1.606  29.243  0.00  0.00     0.018 A 
ATOM     18  C   UNL d   1      60.068  -1.501  29.227  0.00  0.00     0.002 A 
ATOM     19  C   UNL d   1      60.548  -2.155  29.080  0.00  0.00     0.000 A 
ATOM     20  C   UNL d   1      60.219  -2.911  28.949  0.00  0.00     0.000 A 
ATOM     21  C   UNL d   1      59.397  -3.001  28.968  0.00  0.00     0.000 A 
ATOM     22  C   UNL d   1      58.907  -2.354  29.114  0.00  0.00     0.002 A 
ENDBRANCH  15  17
ENDBRANCH  13  15
ENDBRANCH   3  12
TORSDOF 3
ENDMDL
MODEL 3
REMARK VINA RESULT:      -4.3      1.044      1.620
REMARK  3 active torsions:
REMARK  status: ('A' for Active; 'I' for Inactive)
REMARK    1  A    between atoms: C_5  and  C_3 
REMARK       I    between atoms: N_10  and  C_5 
REMARK    2  A    between atoms: C_13  and  N_10 
REMARK    3  A    between atoms: C_15  and  C_13 
ROOT
ATOM      1  N   UNL d   1      59.746  -2.850  28.849  0.00  0.00    -0.254 N 
ATOM      2  C   UNL d   1      59.185  -2.250  28.962  0.00  0.00     0.272 A 
ATOM      3  C   UNL d   1      59.424  -1.492  29.190  0.00  0.00     0.133 A 
ATOM      4  C   UNL d   1      60.545  -2.682  28.966  0.00  0.00     0.182 A 
ATOM      5  N   UNL d   1      60.785  -1.928  29.193  0.00  0.00    -0.220 NA
ATOM      6  C   UNL d   1      60.225  -1.331  29.305  0.00  0.00     0.111 A 
ATOM      7  S   UNL d   1      60.975  -3.371  28.817  0.00  0.00    -0.048 SA
ATOM      8  C   UNL d   1      59.678  -3.636  28.629  0.00  0.00     0.075 A 
ATOM      9  C   UNL d   1      60.429  -3.964  28.607  0.00  0.00     0.056 A 
ATOM     10  O   UNL d   1      58.386  -2.419  28.845  0.00  0.00    -0.266 OA
ATOM     11  C   UNL d   1      58.980  -4.032  28.459  0.00  0.00     0.020 C 
ENDROOT
BRANCH   3  12
ATOM     12  C   UNL d   1      58.851  -0.902  29.299  0.00  0.00     0.285 C 
ATOM     13  N   UNL d   1      58.697  -0.629  30.061  0.00  0.00    -0.208 NA
ATOM     14  O   UNL d   1      58.445  -0.595  28.661  0.00  0.00    -0.265 OA
BRANCH  13  15
ATOM     15  C   UNL d   1      58.132  -0.044  30.180  0.00  0.00     0.085 C 
ATOM     16  C   UNL d   1      57.875   0.420  29.558  0.00  0.00     0.021 C 
BRANCH  15  17
ATOM     17  C   UNL d   1      57.824   0.071  30.937  0.00  0.00     0.018 A 
ATOM     18  C   UNL d   1      58.230   0.567  31.460  0.00  0.00     0.002 A 
ATOM     19  C   UNL d   1      57.923   0.682  32.217  0.00  0.00     0.000 A 
ATOM     20  C   UNL d   1      57.216   0.307  32.457  0.00  0.00     0.000 A 
ATOM     21  C   UNL d   1      56.822  -0.187  31.924  0.00  0.00     0.000 A 
ATOM     22  C   UNL d   1      57.120  -0.309  31.165  0.00  0.00     0.002 A 
ENDBRANCH  15  17
ENDBRANCH  13  15
ENDBRANCH   3  12
TORSDOF 3
ENDMDL
MODEL 4
REMARK VINA RESULT:      -3.9      1.408      2.281
REMARK  3 active torsions:
REMARK  status: ('A' for Active; 'I' for Inactive)
REMARK    1  A    between atoms: C_5  and  C_3 
REMARK       I    between atoms: N_10  and  C_5 
REMARK    2  A    between atoms: C_13  and  N_10 
REMARK    3  A    between atoms: C_15  and  C_13 
ROOT
ATOM      1  N   UNL d   1      58.621  -0.685  29.785  0.00  0.00    -0.254 N 
ATOM      2  C   UNL d   1      58.027  -0.913  30.317  0.00  0.00     0.272 A 
ATOM      3  C   UNL d   1      57.632  -0.345  30.771  0.00  0.00     0.133 A 
ATOM      4  C   UNL d   1      58.813   0.114  29.714  0.00  0.00     0.182 A 
ATOM      5  N   UNL d   1      58.422   0.680  30.164  0.00  0.00    -0.220 NA
ATOM      6  C   UNL d   1      57.830   0.452  30.694  0.00  0.00     0.111 A 
ATOM      7  S   UNL d   1      59.415   0.182  29.152  0.00  0.00    -0.048 SA
ATOM      8  C   UNL d   1      59.097  -1.111  29.273  0.00  0.00     0.075 A 
ATOM      9  C   UNL d   1      59.589  -0.586  28.880  0.00  0.00     0.056 A 
ATOM     10  O   UNL d   1      57.834  -1.712  30.388  0.00  0.00    -0.266 OA
ATOM     11  C   UNL d   1      59.088  -1.925  29.168  0.00  0.00     0.020 C 
ENDROOT
BRANCH   3  12
ATOM     12  C   UNL d   1      57.041  -0.588  31.299  0.00  0.00     0.285 C 
ATOM     13  N   UNL d   1      56.990  -0.227  32.037  0.00  0.00    -0.208 NA
ATOM     14  O   UNL d   1      56.514  -1.177  31.090  0.00  0.00    -0.265 OA
BRANCH  13  15
ATOM     15  C   UNL d   1      56.406  -0.460  32.568  0.00  0.00     0.085 C 
ATOM     16  C   UNL d   1      55.882  -1.057  32.376  0.00  0.00     0.021 C 
BRANCH  15  17
ATOM     17  C   UNL d   1      56.354  -0.083  33.300  0.00  0.00     0.018 A 
ATOM     18  C   UNL d   1      55.634  -0.103  33.707  0.00  0.00     0.002 A 
ATOM     19  C   UNL d   1      55.582   0.274  34.439  0.00  0.00     0.000 A 
ATOM     20  C   UNL d   1      56.239   0.670  34.769  0.00  0.00     0.000 A 
ATOM     21  C   UNL d   1      56.953   0.682  34.350  0.00  0.00     0.000 A 
ATOM     22  C   UNL d   1      57.016   0.308  33.618  0.00  0.00     0.002 A 
ENDBRANCH  15  17
ENDBRANCH  13  15
ENDBRANCH   3  12
TORSDOF 3
ENDMDL
MODEL 5
REMARK VINA RESULT:      -2.7      2.896      5.355
REMARK  3 active torsions:
REMARK  status: ('A' for Active; 'I' for Inactive)
REMARK    1  A    between atoms: C_5  and  C_3 
REMARK       I    between atoms: N_10  and  C_5 
REMARK    2  A    between atoms: C_13  and  N_10 
REMARK    3  A    between atoms: C_15  and  C_13 
ROOT
ATOM      1  N   UNL d   1      55.742   0.614  34.075  0.00  0.00    -0.254 N 
ATOM      2  C   UNL d   1      56.498   0.602  33.733  0.00  0.00     0.272 A 
ATOM      3  C   UNL d   1      56.584   0.565  32.912  0.00  0.00     0.133 A 
ATOM      4  C   UNL d   1      55.078   0.587  33.586  0.00  0.00     0.182 A 
ATOM      5  N   UNL d   1      55.161   0.550  32.769  0.00  0.00    -0.220 NA
ATOM      6  C   UNL d   1      55.915   0.539  32.429  0.00  0.00     0.111 A 
ATOM      7  S   UNL d   1      54.408   0.606  34.067  0.00  0.00    -0.048 SA
ATOM      8  C   UNL d   1      55.489   0.648  34.852  0.00  0.00     0.075 A 
ATOM      9  C   UNL d   1      54.669   0.644  34.857  0.00  0.00     0.056 A 
ATOM     10  O   UNL d   1      57.162   0.628  34.222  0.00  0.00    -0.266 OA
ATOM     11  C   UNL d   1      55.969   0.681  35.518  0.00  0.00     0.020 C 
ENDROOT
BRANCH   3  12
ATOM     12  C   UNL d   1      57.345   0.554  32.583  0.00  0.00     0.285 C 
ATOM     13  N   UNL d   1      57.431   0.434  31.773  0.00  0.00    -0.208 NA
ATOM     14  O   UNL d   1      58.003   0.661  33.056  0.00  0.00    -0.265 OA
BRANCH  13  15
ATOM     15  C   UNL d   1      58.182   0.421  31.438  0.00  0.00     0.085 C 
ATOM     16  C   UNL d   1      58.832   0.682  31.860  0.00  0.00     0.021 C 
BRANCH  15  17
ATOM     17  C   UNL d   1      58.275   0.141  30.667  0.00  0.00     0.018 A 
ATOM     18  C   UNL d   1      58.460   0.681  30.068  0.00  0.00     0.002 A 
ATOM     19  C   UNL d   1      58.552   0.401  29.297  0.00  0.00     0.000 A 
ATOM     20  C   UNL d   1      58.462  -0.410  29.119  0.00  0.00     0.000 A 
ATOM     21  C   UNL d   1      58.276  -0.938  29.728  0.00  0.00     0.000 A 
ATOM     22  C   UNL d   1      58.181  -0.669  30.502  0.00  0.00     0.002 A 
ENDBRANCH  15  17
ENDBRANCH  13  15
ENDBRANCH   3  12
TORSDOF 3
ENDMDL
MODEL 6
REMARK VINA RESULT:      -2.6      8.870      9.556
REMARK  3 active torsions:
REMARK  status: ('A' for Active; 'I' for Inactive)
REMARK    1  A    between atoms: C_5  and  C_3 
REMARK       I    between atoms: N_10  and  C_5 
REMARK    2  A    between atoms: C_13  and  N_10 
REMARK    3  A    between atoms: C_15  and  C_13 
ROOT
ATOM      1  N   UNL d   1      60.007  -8.771  34.976  0.00  0.00    -0.254 N 
ATOM      2  C   UNL d   1      60.194  -8.904  34.179  0.00  0.00     0.272 A 
ATOM      3  C   UNL d   1      59.737  -9.421  33.723  0.00  0.00     0.133 A 
ATOM      4  C   UNL d   1      59.360  -9.161  35.308  0.00  0.00     0.182 A 
ATOM      5  N   UNL d   1      58.904  -9.676  34.857  0.00  0.00    -0.220 NA
ATOM      6  C   UNL d   1      59.092  -9.807  34.062  0.00  0.00     0.111 A 
ATOM      7  S   UNL d   1      59.302  -8.929  36.098  0.00  0.00    -0.048 SA
ATOM      8  C   UNL d   1      60.349  -8.302  35.552  0.00  0.00     0.075 A 
ATOM      9  C   UNL d   1      59.921  -8.393  36.246  0.00  0.00     0.056 A 
ATOM     10  O   UNL d   1      60.841  -8.514  33.847  0.00  0.00    -0.266 OA
ATOM     11  C   UNL d   1      61.006  -7.820  35.458  0.00  0.00     0.020 C 
ENDROOT
BRANCH   3  12
ATOM     12  C   UNL d   1      59.936  -9.544  32.927  0.00  0.00     0.285 C 
ATOM     13  N   UNL d   1      59.335  -9.597  32.367  0.00  0.00    -0.208 NA
ATOM     14  O   UNL d   1      60.718  -9.613  32.701  0.00  0.00    -0.265 OA
BRANCH  13  15
ATOM     15  C   UNL d   1      59.521  -9.719  31.575  0.00  0.00     0.085 C 
ATOM     16  C   UNL d   1      60.298  -9.818  31.341  0.00  0.00     0.021 C 
BRANCH  15  17
ATOM     17  C   UNL d   1      58.914  -9.741  31.017  0.00  0.00     0.018 A 
ATOM     18  C   UNL d   1      58.131  -9.706  31.281  0.00  0.00     0.002 A 
ATOM     19  C   UNL d   1      57.523  -9.728  30.723  0.00  0.00     0.000 A 
ATOM     20  C   UNL d   1      57.689  -9.784  29.907  0.00  0.00     0.000 A 
ATOM     21  C   UNL d   1      58.477  -9.818  29.657  0.00  0.00     0.000 A 
ATOM     22  C   UNL d   1      59.093  -9.797  30.207  0.00  0.00     0.002 A 
ENDBRANCH  15  17
ENDBRANCH  13  15
ENDBRANCH   3  12
TORSDOF 3
ENDMDL
