MODEL 1
REMARK VINA RESULT:      -6.0      0.000      0.000
REMARK  5 active torsions:
REMARK  status: ('A' for Active; 'I' for Inactive)
REMARK    1  A    between atoms: N_4  and  C_1 
REMARK       I    between atoms: C_3  and  N_4 
REMARK    2  A    between atoms: C_8  and  C_3 
REMARK    3  A    between atoms: S_9  and  C_5 
REMARK    4  A    between atoms: C_12  and  S_9 
REMARK    5  A    between atoms: C_15  and  C_12 
ROOT
ATOM      1  C   UNL d   1     -44.381  12.880  21.745  0.00  0.00     0.219 A 
ATOM      2  S   UNL d   1     -43.777  13.365  21.374  0.00  0.00    -0.019 SA
ATOM      3  C   UNL d   1     -43.034  12.920  21.449  0.00  0.00     0.165 A 
ATOM      4  N   UNL d   1     -44.030  12.300  21.969  0.00  0.00    -0.120 NA
ATOM      5  N   UNL d   1     -43.190  12.334  21.779  0.00  0.00    -0.133 NA
ENDROOT
BRANCH   1   6
ATOM      6  N   UNL d   1     -45.275  13.091  21.821  0.00  0.00    -0.181 NA
ATOM      7  C   UNL d   1     -45.665  13.081  22.582  0.00  0.00     0.282 C 
ATOM      8  O   UNL d   1     -45.286  12.910  23.137  0.00  0.00    -0.265 OA
BRANCH   7   9
ATOM      9  C   UNL d   1     -46.442  13.247  22.780  0.00  0.00     0.069 A 
ATOM     10  C   UNL d   1     -46.893  12.669  23.132  0.00  0.00     0.062 A 
ATOM     11 CL   UNL d   1     -46.550  11.859  23.305  0.00  0.00    -0.082 Cl
ATOM     12  C   UNL d   1     -47.672  12.824  23.335  0.00  0.00     0.012 A 
ATOM     13  C   UNL d   1     -48.005  13.563  23.183  0.00  0.00     0.001 A 
ATOM     14  C   UNL d   1     -47.544  14.155  22.823  0.00  0.00     0.000 A 
ATOM     15  C   UNL d   1     -46.755  13.991  22.620  0.00  0.00     0.006 A 
ENDBRANCH   7   9
ENDBRANCH   1   6
BRANCH   3  16
ATOM     16  S   UNL d   1     -42.179  13.080  21.192  0.00  0.00    -0.059 SA
BRANCH  16  17
ATOM     17  C   UNL d   1     -42.069  13.802  21.051  0.00  0.00     0.037 C 
BRANCH  17  18
ATOM     18  C   UNL d   1     -41.329  14.069  20.833  0.00  0.00     0.007 A 
ATOM     19  C   UNL d   1     -40.728  14.153  21.384  0.00  0.00     0.001 A 
ATOM     20  C   UNL d   1     -39.977  14.424  21.163  0.00  0.00     0.007 A 
ATOM     21  C   UNL d   1     -39.835  14.611  20.369  0.00  0.00     0.035 A 
ATOM     22  C   UNL d   1     -40.448  14.526  19.797  0.00  0.00     0.007 A 
ATOM     23 BR   UNL d   1     -39.023  14.910  20.093  0.00  0.00    -0.049 Br
ATOM     24  C   UNL d   1     -41.191  14.251  20.058  0.00  0.00     0.001 A 
ENDBRANCH  17  18
ENDBRANCH  16  17
ENDBRANCH   3  16
TORSDOF 5
ENDMDL
MODEL 2
REMARK VINA RESULT:      -5.1      2.686      5.919
REMARK  5 active torsions:
REMARK  status: ('A' for Active; 'I' for Inactive)
REMARK    1  A    between atoms: N_4  and  C_1 
REMARK       I    between atoms: C_3  and  N_4 
REMARK    2  A    between atoms: C_8  and  C_3 
REMARK    3  A    between atoms: S_9  and  C_5 
REMARK    4  A    between atoms: C_12  and  S_9 
REMARK    5  A    between atoms: C_15  and  C_12 
ROOT
ATOM      1  C   UNL d   1     -42.781  13.065  21.101  0.00  0.00     0.219 A 
ATOM      2  S   UNL d   1     -43.614  13.276  21.099  0.00  0.00    -0.019 SA
ATOM      3  C   UNL d   1     -43.993  12.757  21.684  0.00  0.00     0.165 A 
ATOM      4  N   UNL d   1     -42.732  12.544  21.586  0.00  0.00    -0.120 NA
ATOM      5  N   UNL d   1     -43.493  12.358  21.945  0.00  0.00    -0.133 NA
ENDROOT
BRANCH   1   6
ATOM      6  N   UNL d   1     -42.125  13.447  20.579  0.00  0.00    -0.181 NA
ATOM      7  C   UNL d   1     -41.553  13.985  20.919  0.00  0.00     0.282 C 
ATOM      8  O   UNL d   1     -41.601  14.122  21.597  0.00  0.00    -0.265 OA
BRANCH   7   9
ATOM      9  C   UNL d   1     -40.930  14.385  20.568  0.00  0.00     0.069 A 
ATOM     10  C   UNL d   1     -40.919  15.197  20.589  0.00  0.00     0.062 A 
ATOM     11 CL   UNL d   1     -41.577  15.657  20.989  0.00  0.00    -0.082 Cl
ATOM     12  C   UNL d   1     -40.300  15.608  20.241  0.00  0.00     0.012 A 
ATOM     13  C   UNL d   1     -39.686  15.202  19.868  0.00  0.00     0.001 A 
ATOM     14  C   UNL d   1     -39.697  14.371  19.847  0.00  0.00     0.000 A 
ATOM     15  C   UNL d   1     -40.327  13.961  20.201  0.00  0.00     0.006 A 
ENDBRANCH   7   9
ENDBRANCH   1   6
BRANCH   3  16
ATOM     16  S   UNL d   1     -44.845  12.661  21.979  0.00  0.00    -0.059 SA
BRANCH  16  17
ATOM     17  C   UNL d   1     -45.113  13.301  22.249  0.00  0.00     0.037 C 
BRANCH  17  18
ATOM     18  C   UNL d   1     -45.891  13.352  22.488  0.00  0.00     0.007 A 
ATOM     19  C   UNL d   1     -46.315  12.682  22.699  0.00  0.00     0.001 A 
ATOM     20  C   UNL d   1     -47.105  12.734  22.942  0.00  0.00     0.007 A 
ATOM     21  C   UNL d   1     -47.470  13.477  22.971  0.00  0.00     0.035 A 
ATOM     22  C   UNL d   1     -47.039  14.168  22.756  0.00  0.00     0.007 A 
ATOM     23 BR   UNL d   1     -48.335  13.567  23.233  0.00  0.00    -0.049 Br
ATOM     24  C   UNL d   1     -46.245  14.077  22.516  0.00  0.00     0.001 A 
ENDBRANCH  17  18
ENDBRANCH  16  17
ENDBRANCH   3  16
TORSDOF 5
ENDMDL
MODEL 3
REMARK VINA RESULT:      -4.4      5.866      7.634
REMARK  5 active torsions:
REMARK  status: ('A' for Active; 'I' for Inactive)
REMARK    1  A    between atoms: N_4  and  C_1 
REMARK       I    between atoms: C_3  and  N_4 
REMARK    2  A    between atoms: C_8  and  C_3 
REMARK    3  A    between atoms: S_9  and  C_5 
REMARK    4  A    between atoms: C_12  and  S_9 
REMARK    5  A    between atoms: C_15  and  C_12 
ROOT
ATOM      1  C   UNL d   1     -39.906  14.764  18.000  0.00  0.00     0.219 A 
ATOM      2  S   UNL d   1     -39.617  15.014  18.769  0.00  0.00    -0.019 SA
ATOM      3  C   UNL d   1     -40.051  14.537  19.353  0.00  0.00     0.165 A 
ATOM      4  N   UNL d   1     -40.391  14.262  18.147  0.00  0.00    -0.120 NA
ATOM      5  N   UNL d   1     -40.474  14.127  18.995  0.00  0.00    -0.133 NA
ENDROOT
BRANCH   1   6
ATOM      6  N   UNL d   1     -39.630  15.094  17.185  0.00  0.00    -0.181 NA
ATOM      7  C   UNL d   1     -38.982  14.731  16.762  0.00  0.00     0.282 C 
ATOM      8  O   UNL d   1     -38.673  14.182  17.053  0.00  0.00    -0.265 OA
BRANCH   7   9
ATOM      9  C   UNL d   1     -38.646  14.925  16.041  0.00  0.00     0.069 A 
ATOM     10  C   UNL d   1     -38.284  14.344  15.603  0.00  0.00     0.062 A 
ATOM     11 CL   UNL d   1     -38.249  13.498  15.898  0.00  0.00    -0.082 Cl
ATOM     12  C   UNL d   1     -37.944  14.528  14.879  0.00  0.00     0.012 A 
ATOM     13  C   UNL d   1     -37.966  15.300  14.591  0.00  0.00     0.001 A 
ATOM     14  C   UNL d   1     -38.337  15.895  15.039  0.00  0.00     0.000 A 
ATOM     15  C   UNL d   1     -38.679  15.702  15.771  0.00  0.00     0.006 A 
ENDBRANCH   7   9
ENDBRANCH   1   6
BRANCH   3  16
ATOM     16  S   UNL d   1     -40.042  14.494  20.259  0.00  0.00    -0.059 SA
BRANCH  16  17
ATOM     17  C   UNL d   1     -39.349  14.548  20.526  0.00  0.00     0.037 C 
BRANCH  17  18
ATOM     18  C   UNL d   1     -39.183  14.307  21.288  0.00  0.00     0.007 A 
ATOM     19  C   UNL d   1     -39.073  13.515  21.468  0.00  0.00     0.001 A 
ATOM     20  C   UNL d   1     -38.905  13.270  22.241  0.00  0.00     0.007 A 
ATOM     21  C   UNL d   1     -38.848  13.839  22.840  0.00  0.00     0.035 A 
ATOM     22  C   UNL d   1     -38.959  14.655  22.661  0.00  0.00     0.007 A 
ATOM     23 BR   UNL d   1     -38.665  13.604  23.698  0.00  0.00    -0.049 Br
ATOM     24  C   UNL d   1     -39.127  14.863  21.871  0.00  0.00     0.001 A 
ENDBRANCH  17  18
ENDBRANCH  16  17
ENDBRANCH   3  16
TORSDOF 5
ENDMDL
MODEL 4
REMARK VINA RESULT:      -4.2      4.069      4.794
REMARK  5 active torsions:
REMARK  status: ('A' for Active; 'I' for Inactive)
REMARK    1  A    between atoms: N_4  and  C_1 
REMARK       I    between atoms: C_3  and  N_4 
REMARK    2  A    between atoms: C_8  and  C_3 
REMARK    3  A    between atoms: S_9  and  C_5 
REMARK    4  A    between atoms: C_12  and  S_9 
REMARK    5  A    between atoms: C_15  and  C_12 
ROOT
ATOM      1  C   UNL d   1     -48.349  11.982  23.505  0.00  0.00     0.219 A 
ATOM      2  S   UNL d   1     -47.511  11.959  23.694  0.00  0.00    -0.019 SA
ATOM      3  C   UNL d   1     -47.262  11.135  23.574  0.00  0.00     0.165 A 
ATOM      4  N   UNL d   1     -48.508  11.311  23.323  0.00  0.00    -0.120 NA
ATOM      5  N   UNL d   1     -47.823  10.789  23.370  0.00  0.00    -0.133 NA
ENDROOT
BRANCH   1   6
ATOM      6  N   UNL d   1     -48.891  12.726  23.539  0.00  0.00    -0.181 NA
ATOM      7  C   UNL d   1     -48.940  13.264  22.876  0.00  0.00     0.282 C 
ATOM      8  O   UNL d   1     -48.559  13.121  22.315  0.00  0.00    -0.265 OA
BRANCH   7   9
ATOM      9  C   UNL d   1     -49.378  13.950  22.783  0.00  0.00     0.069 A 
ATOM     10  C   UNL d   1     -48.991  14.662  22.720  0.00  0.00     0.062 A 
ATOM     11 CL   UNL d   1     -48.096  14.704  22.751  0.00  0.00    -0.082 Cl
ATOM     12  C   UNL d   1     -49.419  15.355  22.627  0.00  0.00     0.012 A 
ATOM     13  C   UNL d   1     -50.244  15.336  22.596  0.00  0.00     0.001 A 
ATOM     14  C   UNL d   1     -50.640  14.608  22.660  0.00  0.00     0.000 A 
ATOM     15  C   UNL d   1     -50.200  13.910  22.755  0.00  0.00     0.006 A 
ENDBRANCH   7   9
ENDBRANCH   1   6
BRANCH   3  16
ATOM     16  S   UNL d   1     -46.472  10.699  23.663  0.00  0.00    -0.059 SA
BRANCH  16  17
ATOM     17  C   UNL d   1     -45.949  10.991  23.220  0.00  0.00     0.037 C 
BRANCH  17  18
ATOM     18  C   UNL d   1     -45.168  10.774  23.310  0.00  0.00     0.007 A 
ATOM     19  C   UNL d   1     -44.962  10.018  23.551  0.00  0.00     0.001 A 
ATOM     20  C   UNL d   1     -44.169   9.797  23.642  0.00  0.00     0.007 A 
ATOM     21  C   UNL d   1     -43.577  10.354  23.485  0.00  0.00     0.035 A 
ATOM     22  C   UNL d   1     -43.781  11.132  23.237  0.00  0.00     0.007 A 
ATOM     23 BR   UNL d   1     -42.697  10.144  23.575  0.00  0.00    -0.049 Br
ATOM     24  C   UNL d   1     -44.591  11.318  23.157  0.00  0.00     0.001 A 
ENDBRANCH  17  18
ENDBRANCH  16  17
ENDBRANCH   3  16
TORSDOF 5
ENDMDL
MODEL 5
REMARK VINA RESULT:      -4.2      5.581      6.473
REMARK  5 active torsions:
REMARK  status: ('A' for Active; 'I' for Inactive)
REMARK    1  A    between atoms: N_4  and  C_1 
REMARK       I    between atoms: C_3  and  N_4 
REMARK    2  A    between atoms: C_8  and  C_3 
REMARK    3  A    between atoms: S_9  and  C_5 
REMARK    4  A    between atoms: C_12  and  S_9 
REMARK    5  A    between atoms: C_15  and  C_12 
ROOT
ATOM      1  C   UNL d   1     -39.754  14.595  19.961  0.00  0.00     0.219 A 
ATOM      2  S   UNL d   1     -39.203  14.767  19.325  0.00  0.00    -0.019 SA
ATOM      3  C   UNL d   1     -39.650  14.663  18.587  0.00  0.00     0.165 A 
ATOM      4  N   UNL d   1     -40.365  14.433  19.627  0.00  0.00    -0.120 NA
ATOM      5  N   UNL d   1     -40.289  14.479  18.770  0.00  0.00    -0.133 NA
ENDROOT
BRANCH   1   6
ATOM      6  N   UNL d   1     -39.567  14.622  20.863  0.00  0.00    -0.181 NA
ATOM      7  C   UNL d   1     -39.210  13.952  21.257  0.00  0.00     0.282 C 
ATOM      8  O   UNL d   1     -39.068  13.391  20.875  0.00  0.00    -0.265 OA
BRANCH   7   9
ATOM      9  C   UNL d   1     -38.997  13.852  22.041  0.00  0.00     0.069 A 
ATOM     10  C   UNL d   1     -38.384  13.351  22.225  0.00  0.00     0.062 A 
ATOM     11 CL   UNL d   1     -37.941  12.910  21.581  0.00  0.00    -0.082 Cl
ATOM     12  C   UNL d   1     -38.162  13.243  23.006  0.00  0.00     0.012 A 
ATOM     13  C   UNL d   1     -38.557  13.641  23.612  0.00  0.00     0.001 A 
ATOM     14  C   UNL d   1     -39.185  14.153  23.425  0.00  0.00     0.000 A 
ATOM     15  C   UNL d   1     -39.404  14.258  22.630  0.00  0.00     0.006 A 
ENDBRANCH   7   9
ENDBRANCH   1   6
BRANCH   3  16
ATOM     16  S   UNL d   1     -39.439  14.747  17.709  0.00  0.00    -0.059 SA
BRANCH  16  17
ATOM     17  C   UNL d   1     -38.855  14.321  17.528  0.00  0.00     0.037 C 
BRANCH  17  18
ATOM     18  C   UNL d   1     -38.634  14.239  16.747  0.00  0.00     0.007 A 
ATOM     19  C   UNL d   1     -38.541  14.892  16.260  0.00  0.00     0.001 A 
ATOM     20  C   UNL d   1     -38.318  14.808  15.467  0.00  0.00     0.007 A 
ATOM     21  C   UNL d   1     -38.186  14.048  15.165  0.00  0.00     0.035 A 
ATOM     22  C   UNL d   1     -38.280  13.373  15.660  0.00  0.00     0.007 A 
ATOM     23 BR   UNL d   1     -37.940  13.921  14.300  0.00  0.00    -0.049 Br
ATOM     24  C   UNL d   1     -38.506  13.497  16.453  0.00  0.00     0.001 A 
ENDBRANCH  17  18
ENDBRANCH  16  17
ENDBRANCH   3  16
TORSDOF 5
ENDMDL
MODEL 6
REMARK VINA RESULT:      -4.1      3.139      6.355
REMARK  5 active torsions:
REMARK  status: ('A' for Active; 'I' for Inactive)
REMARK    1  A    between atoms: N_4  and  C_1 
REMARK       I    between atoms: C_3  and  N_4 
REMARK    2  A    between atoms: C_8  and  C_3 
REMARK    3  A    between atoms: S_9  and  C_5 
REMARK    4  A    between atoms: C_12  and  S_9 
REMARK    5  A    between atoms: C_15  and  C_12 
ROOT
ATOM      1  C   UNL d   1     -45.717  13.063  22.512  0.00  0.00     0.219 A 
ATOM      2  S   UNL d   1     -46.346  13.646  22.465  0.00  0.00    -0.019 SA
ATOM      3  C   UNL d   1     -47.086  13.212  22.608  0.00  0.00     0.165 A 
ATOM      4  N   UNL d   1     -46.055  12.449  22.651  0.00  0.00    -0.120 NA
ATOM      5  N   UNL d   1     -46.909  12.553  22.709  0.00  0.00    -0.133 NA
ENDROOT
BRANCH   1   6
ATOM      6  N   UNL d   1     -44.817  13.227  22.403  0.00  0.00    -0.181 NA
ATOM      7  C   UNL d   1     -44.395  12.921  21.725  0.00  0.00     0.282 C 
ATOM      8  O   UNL d   1     -44.753  12.548  21.263  0.00  0.00    -0.265 OA
BRANCH   7   9
ATOM      9  C   UNL d   1     -43.607  12.995  21.515  0.00  0.00     0.069 A 
ATOM     10  C   UNL d   1     -43.077  12.428  21.756  0.00  0.00     0.062 A 
ATOM     11 CL   UNL d   1     -43.346  11.726  22.245  0.00  0.00    -0.082 Cl
ATOM     12  C   UNL d   1     -42.286  12.492  21.552  0.00  0.00     0.012 A 
ATOM     13  C   UNL d   1     -42.021  13.130  21.102  0.00  0.00     0.001 A 
ATOM     14  C   UNL d   1     -42.562  13.712  20.855  0.00  0.00     0.000 A 
ATOM     15  C   UNL d   1     -43.362  13.640  21.066  0.00  0.00     0.006 A 
ENDBRANCH   7   9
ENDBRANCH   1   6
BRANCH   3  16
ATOM     16  S   UNL d   1     -47.958  13.455  22.642  0.00  0.00    -0.059 SA
BRANCH  16  17
ATOM     17  C   UNL d   1     -48.033  14.174  22.822  0.00  0.00     0.037 C 
BRANCH  17  18
ATOM     18  C   UNL d   1     -48.769  14.477  23.002  0.00  0.00     0.007 A 
ATOM     19  C   UNL d   1     -49.393  13.985  23.204  0.00  0.00     0.001 A 
ATOM     20  C   UNL d   1     -50.140  14.293  23.387  0.00  0.00     0.007 A 
ATOM     21  C   UNL d   1     -50.254  15.113  23.363  0.00  0.00     0.035 A 
ATOM     22  C   UNL d   1     -49.617  15.623  23.155  0.00  0.00     0.007 A 
ATOM     23 BR   UNL d   1     -51.061  15.482  23.558  0.00  0.00    -0.049 Br
ATOM     24  C   UNL d   1     -48.879  15.277  22.978  0.00  0.00     0.001 A 
ENDBRANCH  17  18
ENDBRANCH  16  17
ENDBRANCH   3  16
TORSDOF 5
ENDMDL
MODEL 7
REMARK VINA RESULT:      -4.0      2.148      3.186
REMARK  5 active torsions:
REMARK  status: ('A' for Active; 'I' for Inactive)
REMARK    1  A    between atoms: N_4  and  C_1 
REMARK       I    between atoms: C_3  and  N_4 
REMARK    2  A    between atoms: C_8  and  C_3 
REMARK    3  A    between atoms: S_9  and  C_5 
REMARK    4  A    between atoms: C_12  and  S_9 
REMARK    5  A    between atoms: C_15  and  C_12 
ROOT
ATOM      1  C   UNL d   1     -47.155  12.762  23.026  0.00  0.00     0.219 A 
ATOM      2  S   UNL d   1     -46.473  13.097  22.625  0.00  0.00    -0.019 SA
ATOM      3  C   UNL d   1     -45.790  12.624  22.879  0.00  0.00     0.165 A 
ATOM      4  N   UNL d   1     -46.887  12.224  23.411  0.00  0.00    -0.120 NA
ATOM      5  N   UNL d   1     -46.034  12.146  23.313  0.00  0.00    -0.133 NA
ENDROOT
BRANCH   1   6
ATOM      6  N   UNL d   1     -48.025  13.056  22.953  0.00  0.00    -0.181 NA
ATOM      7  C   UNL d   1     -48.654  12.516  22.741  0.00  0.00     0.282 C 
ATOM      8  O   UNL d   1     -48.486  11.853  22.628  0.00  0.00    -0.265 OA
BRANCH   7   9
ATOM      9  C   UNL d   1     -49.456  12.651  22.645  0.00  0.00     0.069 A 
ATOM     10  C   UNL d   1     -49.746  12.805  21.902  0.00  0.00     0.062 A 
ATOM     11 CL   UNL d   1     -49.200  12.829  21.191  0.00  0.00    -0.082 Cl
ATOM     12  C   UNL d   1     -50.547  12.941  21.793  0.00  0.00     0.012 A 
ATOM     13  C   UNL d   1     -51.064  12.923  22.435  0.00  0.00     0.001 A 
ATOM     14  C   UNL d   1     -50.769  12.765  23.197  0.00  0.00     0.000 A 
ATOM     15  C   UNL d   1     -49.956  12.628  23.299  0.00  0.00     0.006 A 
ENDBRANCH   7   9
ENDBRANCH   1   6
BRANCH   3  16
ATOM     16  S   UNL d   1     -44.904  12.650  22.691  0.00  0.00    -0.059 SA
BRANCH  16  17
ATOM     17  C   UNL d   1     -44.783  12.838  21.980  0.00  0.00     0.037 C 
BRANCH  17  18
ATOM     18  C   UNL d   1     -44.023  12.970  21.715  0.00  0.00     0.007 A 
ATOM     19  C   UNL d   1     -43.462  12.372  21.718  0.00  0.00     0.001 A 
ATOM     20  C   UNL d   1     -42.690  12.505  21.448  0.00  0.00     0.007 A 
ATOM     21  C   UNL d   1     -42.486  13.258  21.171  0.00  0.00     0.035 A 
ATOM     22  C   UNL d   1     -43.058  13.877  21.166  0.00  0.00     0.007 A 
ATOM     23 BR   UNL d   1     -41.648  13.438  20.869  0.00  0.00    -0.049 Br
ATOM     24  C   UNL d   1     -43.824  13.705  21.445  0.00  0.00     0.001 A 
ENDBRANCH  17  18
ENDBRANCH  16  17
ENDBRANCH   3  16
TORSDOF 5
ENDMDL
