MODEL 1
REMARK VINA RESULT:      -6.1      0.000      0.000
REMARK  7 active torsions:
REMARK  status: ('A' for Active; 'I' for Inactive)
REMARK    1  A    between atoms: C_21  and  C_3 
REMARK    2  A    between atoms: S_17  and  C_5 
REMARK    3  A    between atoms: C_11  and  C_16 
REMARK       I    between atoms: N_14  and  C_11 
REMARK    4  A    between atoms: C_19  and  N_14 
REMARK    5  A    between atoms: C_16  and  C_20 
REMARK    6  A    between atoms: C_20  and  S_17 
REMARK    7  A    between atoms: O_27  and  C_22 
ROOT
ATOM      1  C   UNL d   1     -47.591  12.397  23.240  0.00  0.00     0.092 A 
ATOM      2  C   UNL d   1     -48.500  13.492  23.085  0.00  0.00     0.057 A 
ATOM      3  C   UNL d   1     -48.353  12.715  23.310  0.00  0.00     0.016 A 
ATOM      4  N   UNL d   1     -47.130  13.645  22.716  0.00  0.00    -0.239 NA
ATOM      5  C   UNL d   1     -46.980  12.863  22.943  0.00  0.00     0.120 A 
ATOM      6  C   UNL d   1     -47.888  13.957  22.788  0.00  0.00     0.081 A 
ATOM      7  C   UNL d   1     -49.256  13.803  23.156  0.00  0.00     0.193 A 
ATOM      8  C   UNL d   1     -47.445  11.614  23.467  0.00  0.00     0.103 C 
ATOM      9  N   UNL d   1     -47.303  10.825  23.698  0.00  0.00    -0.191 NA
ATOM     10  C   UNL d   1     -48.794  15.048  22.633  0.00  0.00     0.042 A 
ATOM     11  C   UNL d   1     -49.405  14.582  22.930  0.00  0.00     0.019 A 
ATOM     12  C   UNL d   1     -48.034  14.734  22.562  0.00  0.00    -0.003 A 
ATOM     13  O   UNL d   1     -49.868  13.338  23.453  0.00  0.00    -0.287 OA
ATOM     14  C   UNL d   1     -48.393  15.706  22.321  0.00  0.00     0.009 C 
ATOM     15  C   UNL d   1     -49.551  15.370  22.701  0.00  0.00     0.009 C 
ENDROOT
BRANCH   3  16
ATOM     16  C   UNL d   1     -48.964  12.249  23.607  0.00  0.00     0.001 C 
ATOM     17  C   UNL d   1     -49.433  11.808  23.095  0.00  0.00     0.000 C 
ENDBRANCH   3  16
BRANCH   5  18
ATOM     18  S   UNL d   1     -46.219  12.548  22.872  0.00  0.00    -0.067 SA
BRANCH  18  19
ATOM     19  C   UNL d   1     -45.662  12.928  22.399  0.00  0.00     0.042 C 
BRANCH  19  20
ATOM     20  C   UNL d   1     -45.014  12.504  22.102  0.00  0.00     0.070 C 
BRANCH  20  21
ATOM     21  C   UNL d   1     -44.328  12.914  21.869  0.00  0.00     0.280 C 
ATOM     22  N   UNL d   1     -43.657  12.486  21.634  0.00  0.00    -0.208 NA
ATOM     23  O   UNL d   1     -44.313  13.737  21.872  0.00  0.00    -0.265 OA
BRANCH  22  24
ATOM     24  C   UNL d   1     -42.972  12.895  21.401  0.00  0.00     0.085 A 
ATOM     25  C   UNL d   1     -42.950  13.299  20.683  0.00  0.00     0.021 A 
ATOM     26  C   UNL d   1     -42.269  13.701  20.461  0.00  0.00     0.026 A 
ATOM     27  C   UNL d   1     -41.600  13.707  20.947  0.00  0.00     0.094 A 
ATOM     28  C   UNL d   1     -41.621  13.304  21.664  0.00  0.00     0.026 A 
ATOM     29  C   UNL d   1     -42.307  12.894  21.897  0.00  0.00     0.021 A 
BRANCH  27  30
ATOM     30  O   UNL d   1     -40.906  14.119  20.715  0.00  0.00    -0.328 OA
ATOM     31  C   UNL d   1     -40.950  14.924  20.520  0.00  0.00     0.181 C 
ENDBRANCH  27  30
ENDBRANCH  22  24
ENDBRANCH  20  21
ENDBRANCH  19  20
ENDBRANCH  18  19
ENDBRANCH   5  18
TORSDOF 7
ENDMDL
MODEL 2
REMARK VINA RESULT:      -5.8      1.121      1.641
REMARK  7 active torsions:
REMARK  status: ('A' for Active; 'I' for Inactive)
REMARK    1  A    between atoms: C_21  and  C_3 
REMARK    2  A    between atoms: S_17  and  C_5 
REMARK    3  A    between atoms: C_11  and  C_16 
REMARK       I    between atoms: N_14  and  C_11 
REMARK    4  A    between atoms: C_19  and  N_14 
REMARK    5  A    between atoms: C_16  and  C_20 
REMARK    6  A    between atoms: C_20  and  S_17 
REMARK    7  A    between atoms: O_27  and  C_22 
ROOT
ATOM      1  C   UNL d   1     -45.919  12.089  23.112  0.00  0.00     0.092 A 
ATOM      2  C   UNL d   1     -46.958  13.072  23.054  0.00  0.00     0.057 A 
ATOM      3  C   UNL d   1     -46.692  12.330  23.287  0.00  0.00     0.016 A 
ATOM      4  N   UNL d   1     -45.686  13.344  22.467  0.00  0.00    -0.239 NA
ATOM      5  C   UNL d   1     -45.416  12.597  22.701  0.00  0.00     0.120 A 
ATOM      6  C   UNL d   1     -46.454  13.580  22.643  0.00  0.00     0.081 A 
ATOM      7  C   UNL d   1     -47.725  13.308  23.229  0.00  0.00     0.193 A 
ATOM      8  C   UNL d   1     -45.654  11.342  23.348  0.00  0.00     0.103 C 
ATOM      9  N   UNL d   1     -45.391  10.587  23.588  0.00  0.00    -0.191 NA
ATOM     10  C   UNL d   1     -47.489  14.559  22.585  0.00  0.00     0.042 A 
ATOM     11  C   UNL d   1     -47.992  14.052  22.996  0.00  0.00     0.019 A 
ATOM     12  C   UNL d   1     -46.719  14.322  22.409  0.00  0.00    -0.003 A 
ATOM     13  O   UNL d   1     -48.228  12.800  23.640  0.00  0.00    -0.287 OA
ATOM     14  C   UNL d   1     -47.217  15.235  22.184  0.00  0.00     0.009 C 
ATOM     15  C   UNL d   1     -48.258  14.805  22.757  0.00  0.00     0.009 C 
ENDROOT
BRANCH   3  16
ATOM     16  C   UNL d   1     -47.195  11.823  23.698  0.00  0.00     0.001 C 
ATOM     17  C   UNL d   1     -47.716  11.337  23.286  0.00  0.00     0.000 C 
ENDBRANCH   3  16
BRANCH   5  18
ATOM     18  S   UNL d   1     -44.645  12.359  22.525  0.00  0.00    -0.067 SA
BRANCH  18  19
ATOM     19  C   UNL d   1     -44.207  12.773  21.964  0.00  0.00     0.042 C 
BRANCH  19  20
ATOM     20  C   UNL d   1     -43.433  12.534  21.784  0.00  0.00     0.070 C 
BRANCH  20  21
ATOM     21  C   UNL d   1     -42.957  13.017  21.303  0.00  0.00     0.280 C 
ATOM     22  N   UNL d   1     -42.301  13.403  21.633  0.00  0.00    -0.208 NA
ATOM     23  O   UNL d   1     -43.133  13.114  20.505  0.00  0.00    -0.265 OA
BRANCH  22  24
ATOM     24  C   UNL d   1     -41.825  13.886  21.153  0.00  0.00     0.085 A 
ATOM     25  C   UNL d   1     -41.941  14.702  21.136  0.00  0.00     0.021 A 
ATOM     26  C   UNL d   1     -41.466  15.172  20.658  0.00  0.00     0.026 A 
ATOM     27  C   UNL d   1     -40.869  14.840  20.192  0.00  0.00     0.094 A 
ATOM     28  C   UNL d   1     -40.753  14.025  20.208  0.00  0.00     0.026 A 
ATOM     29  C   UNL d   1     -41.229  13.541  20.689  0.00  0.00     0.021 A 
BRANCH  27  30
ATOM     30  O   UNL d   1     -40.386  15.325  19.705  0.00  0.00    -0.328 OA
ATOM     31  C   UNL d   1     -39.986  14.992  19.059  0.00  0.00     0.181 C 
ENDBRANCH  27  30
ENDBRANCH  22  24
ENDBRANCH  20  21
ENDBRANCH  19  20
ENDBRANCH  18  19
ENDBRANCH   5  18
TORSDOF 7
ENDMDL
MODEL 3
REMARK VINA RESULT:      -4.8      2.275      7.616
REMARK  7 active torsions:
REMARK  status: ('A' for Active; 'I' for Inactive)
REMARK    1  A    between atoms: C_21  and  C_3 
REMARK    2  A    between atoms: S_17  and  C_5 
REMARK    3  A    between atoms: C_11  and  C_16 
REMARK       I    between atoms: N_14  and  C_11 
REMARK    4  A    between atoms: C_19  and  N_14 
REMARK    5  A    between atoms: C_16  and  C_20 
REMARK    6  A    between atoms: C_20  and  S_17 
REMARK    7  A    between atoms: O_27  and  C_22 
ROOT
ATOM      1  C   UNL d   1     -39.984  14.431  20.657  0.00  0.00     0.092 A 
ATOM      2  C   UNL d   1     -39.768  14.985  19.355  0.00  0.00     0.057 A 
ATOM      3  C   UNL d   1     -39.516  14.865  20.129  0.00  0.00     0.016 A 
ATOM      4  N   UNL d   1     -40.954  14.240  19.624  0.00  0.00    -0.239 NA
ATOM      5  C   UNL d   1     -40.703  14.118  20.404  0.00  0.00     0.120 A 
ATOM      6  C   UNL d   1     -40.487  14.672  19.102  0.00  0.00     0.081 A 
ATOM      7  C   UNL d   1     -39.302  15.416  18.834  0.00  0.00     0.193 A 
ATOM      8  C   UNL d   1     -39.729  14.312  21.435  0.00  0.00     0.103 C 
ATOM      9  N   UNL d   1     -39.467  14.195  22.219  0.00  0.00    -0.191 NA
ATOM     10  C   UNL d   1     -40.271  15.223  17.805  0.00  0.00     0.042 A 
ATOM     11  C   UNL d   1     -39.552  15.537  18.058  0.00  0.00     0.019 A 
ATOM     12  C   UNL d   1     -40.739  14.790  18.329  0.00  0.00    -0.003 A 
ATOM     13  O   UNL d   1     -38.582  15.729  19.087  0.00  0.00    -0.287 OA
ATOM     14  C   UNL d   1     -40.911  15.036  17.308  0.00  0.00     0.009 C 
ATOM     15  C   UNL d   1     -39.810  15.656  17.274  0.00  0.00     0.009 C 
ENDROOT
BRANCH   3  16
ATOM     16  C   UNL d   1     -38.797  15.179  20.381  0.00  0.00     0.001 C 
ATOM     17  C   UNL d   1     -38.772  15.922  20.733  0.00  0.00     0.000 C 
ENDBRANCH   3  16
BRANCH   5  18
ATOM     18  S   UNL d   1     -41.171  13.684  20.929  0.00  0.00    -0.067 SA
BRANCH  18  19
ATOM     19  C   UNL d   1     -41.990  13.690  20.847  0.00  0.00     0.042 C 
BRANCH  19  20
ATOM     20  C   UNL d   1     -42.435  13.034  21.091  0.00  0.00     0.070 C 
BRANCH  20  21
ATOM     21  C   UNL d   1     -43.164  13.153  21.475  0.00  0.00     0.280 C 
ATOM     22  N   UNL d   1     -43.702  12.525  21.531  0.00  0.00    -0.208 NA
ATOM     23  O   UNL d   1     -43.351  13.887  21.796  0.00  0.00    -0.265 OA
BRANCH  22  24
ATOM     24  C   UNL d   1     -44.431  12.642  21.914  0.00  0.00     0.085 A 
ATOM     25  C   UNL d   1     -44.956  13.216  21.643  0.00  0.00     0.021 A 
ATOM     26  C   UNL d   1     -45.674  13.327  22.027  0.00  0.00     0.026 A 
ATOM     27  C   UNL d   1     -45.881  12.870  22.684  0.00  0.00     0.094 A 
ATOM     28  C   UNL d   1     -45.356  12.296  22.955  0.00  0.00     0.026 A 
ATOM     29  C   UNL d   1     -44.627  12.178  22.572  0.00  0.00     0.021 A 
BRANCH  27  30
ATOM     30  O   UNL d   1     -46.615  12.986  23.073  0.00  0.00    -0.328 OA
ATOM     31  C   UNL d   1     -47.057  13.672  22.923  0.00  0.00     0.181 C 
ENDBRANCH  27  30
ENDBRANCH  22  24
ENDBRANCH  20  21
ENDBRANCH  19  20
ENDBRANCH  18  19
ENDBRANCH   5  18
TORSDOF 7
ENDMDL
MODEL 4
REMARK VINA RESULT:      -4.6      2.189      7.615
REMARK  7 active torsions:
REMARK  status: ('A' for Active; 'I' for Inactive)
REMARK    1  A    between atoms: C_21  and  C_3 
REMARK    2  A    between atoms: S_17  and  C_5 
REMARK    3  A    between atoms: C_11  and  C_16 
REMARK       I    between atoms: N_14  and  C_11 
REMARK    4  A    between atoms: C_19  and  N_14 
REMARK    5  A    between atoms: C_16  and  C_20 
REMARK    6  A    between atoms: C_20  and  S_17 
REMARK    7  A    between atoms: O_27  and  C_22 
ROOT
ATOM      1  C   UNL d   1     -40.495  14.447  19.786  0.00  0.00     0.092 A 
ATOM      2  C   UNL d   1     -39.495  15.088  20.583  0.00  0.00     0.057 A 
ATOM      3  C   UNL d   1     -39.801  14.895  19.845  0.00  0.00     0.016 A 
ATOM      4  N   UNL d   1     -40.568  14.391  21.213  0.00  0.00    -0.239 NA
ATOM      5  C   UNL d   1     -40.879  14.195  20.470  0.00  0.00     0.120 A 
ATOM      6  C   UNL d   1     -39.878  14.836  21.267  0.00  0.00     0.081 A 
ATOM      7  C   UNL d   1     -38.806  15.533  20.638  0.00  0.00     0.193 A 
ATOM      8  C   UNL d   1     -40.802  14.254  19.041  0.00  0.00     0.103 C 
ATOM      9  N   UNL d   1     -41.108  14.062  18.289  0.00  0.00    -0.191 NA
ATOM     10  C   UNL d   1     -38.881  15.474  22.062  0.00  0.00     0.042 A 
ATOM     11  C   UNL d   1     -38.498  15.727  21.378  0.00  0.00     0.019 A 
ATOM     12  C   UNL d   1     -39.573  15.028  22.006  0.00  0.00    -0.003 A 
ATOM     13  O   UNL d   1     -38.423  15.785  19.954  0.00  0.00    -0.287 OA
ATOM     14  C   UNL d   1     -39.047  15.362  22.869  0.00  0.00     0.009 C 
ATOM     15  C   UNL d   1     -38.190  15.921  22.128  0.00  0.00     0.009 C 
ENDROOT
BRANCH   3  16
ATOM     16  C   UNL d   1     -39.418  15.148  19.161  0.00  0.00     0.001 C 
ATOM     17  C   UNL d   1     -39.573  15.895  18.853  0.00  0.00     0.000 C 
ENDBRANCH   3  16
BRANCH   5  18
ATOM     18  S   UNL d   1     -41.571  13.748  20.413  0.00  0.00    -0.067 SA
BRANCH  18  19
ATOM     19  C   UNL d   1     -42.043  13.638  21.080  0.00  0.00     0.042 C 
BRANCH  19  20
ATOM     20  C   UNL d   1     -42.613  13.035  21.088  0.00  0.00     0.070 C 
BRANCH  20  21
ATOM     21  C   UNL d   1     -43.336  13.162  21.478  0.00  0.00     0.280 C 
ATOM     22  N   UNL d   1     -43.820  12.513  21.661  0.00  0.00    -0.208 NA
ATOM     23  O   UNL d   1     -43.573  13.923  21.682  0.00  0.00    -0.265 OA
BRANCH  22  24
ATOM     24  C   UNL d   1     -44.544  12.638  22.051  0.00  0.00     0.085 A 
ATOM     25  C   UNL d   1     -45.007  13.295  21.869  0.00  0.00     0.021 A 
ATOM     26  C   UNL d   1     -45.721  13.412  22.259  0.00  0.00     0.026 A 
ATOM     27  C   UNL d   1     -45.985  12.879  22.833  0.00  0.00     0.094 A 
ATOM     28  C   UNL d   1     -45.522  12.223  23.015  0.00  0.00     0.026 A 
ATOM     29  C   UNL d   1     -44.798  12.097  22.625  0.00  0.00     0.021 A 
BRANCH  27  30
ATOM     30  O   UNL d   1     -46.715  13.002  23.229  0.00  0.00    -0.328 OA
ATOM     31  C   UNL d   1     -47.177  13.666  23.044  0.00  0.00     0.181 C 
ENDBRANCH  27  30
ENDBRANCH  22  24
ENDBRANCH  20  21
ENDBRANCH  19  20
ENDBRANCH  18  19
ENDBRANCH   5  18
TORSDOF 7
ENDMDL
MODEL 5
REMARK VINA RESULT:      -4.5      1.062      2.411
REMARK  7 active torsions:
REMARK  status: ('A' for Active; 'I' for Inactive)
REMARK    1  A    between atoms: C_21  and  C_3 
REMARK    2  A    between atoms: S_17  and  C_5 
REMARK    3  A    between atoms: C_11  and  C_16 
REMARK       I    between atoms: N_14  and  C_11 
REMARK    4  A    between atoms: C_19  and  N_14 
REMARK    5  A    between atoms: C_16  and  C_20 
REMARK    6  A    between atoms: C_20  and  S_17 
REMARK    7  A    between atoms: O_27  and  C_22 
ROOT
ATOM      1  C   UNL d   1     -48.640  14.386  22.615  0.00  0.00     0.092 A 
ATOM      2  C   UNL d   1     -49.719  13.524  22.988  0.00  0.00     0.057 A 
ATOM      3  C   UNL d   1     -49.449  14.258  22.735  0.00  0.00     0.016 A 
ATOM      4  N   UNL d   1     -48.379  13.036  23.005  0.00  0.00    -0.239 NA
ATOM      5  C   UNL d   1     -48.104  13.775  22.750  0.00  0.00     0.120 A 
ATOM      6  C   UNL d   1     -49.183  12.912  23.123  0.00  0.00     0.081 A 
ATOM      7  C   UNL d   1     -50.522  13.400  23.106  0.00  0.00     0.193 A 
ATOM      8  C   UNL d   1     -48.370  15.127  22.359  0.00  0.00     0.103 C 
ATOM      9  N   UNL d   1     -48.104  15.875  22.102  0.00  0.00    -0.191 NA
ATOM     10  C   UNL d   1     -50.259  12.053  23.496  0.00  0.00     0.042 A 
ATOM     11  C   UNL d   1     -50.794  12.664  23.361  0.00  0.00     0.019 A 
ATOM     12  C   UNL d   1     -49.452  12.178  23.377  0.00  0.00    -0.003 A 
ATOM     13  O   UNL d   1     -51.058  14.012  22.971  0.00  0.00    -0.287 OA
ATOM     14  C   UNL d   1     -49.964  11.302  23.698  0.00  0.00     0.009 C 
ATOM     15  C   UNL d   1     -51.064  11.919  23.617  0.00  0.00     0.009 C 
ENDROOT
BRANCH   3  16
ATOM     16  C   UNL d   1     -49.985  14.869  22.600  0.00  0.00     0.001 C 
ATOM     17  C   UNL d   1     -50.134  15.424  23.189  0.00  0.00     0.000 C 
ENDBRANCH   3  16
BRANCH   5  18
ATOM     18  S   UNL d   1     -47.297  13.901  22.630  0.00  0.00    -0.067 SA
BRANCH  18  19
ATOM     19  C   UNL d   1     -46.813  13.271  22.412  0.00  0.00     0.042 C 
BRANCH  19  20
ATOM     20  C   UNL d   1     -46.143  13.087  22.865  0.00  0.00     0.070 C 
BRANCH  20  21
ATOM     21  C   UNL d   1     -45.385  13.212  22.546  0.00  0.00     0.280 C 
ATOM     22  N   UNL d   1     -44.977  12.576  22.202  0.00  0.00    -0.208 NA
ATOM     23  O   UNL d   1     -45.041  13.959  22.569  0.00  0.00    -0.265 OA
BRANCH  22  24
ATOM     24  C   UNL d   1     -44.220  12.700  21.883  0.00  0.00     0.085 A 
ATOM     25  C   UNL d   1     -44.092  13.302  21.334  0.00  0.00     0.021 A 
ATOM     26  C   UNL d   1     -43.340  13.418  21.023  0.00  0.00     0.026 A 
ATOM     27  C   UNL d   1     -42.706  12.939  21.252  0.00  0.00     0.094 A 
ATOM     28  C   UNL d   1     -42.834  12.338  21.800  0.00  0.00     0.026 A 
ATOM     29  C   UNL d   1     -43.591  12.213  22.120  0.00  0.00     0.021 A 
BRANCH  27  30
ATOM     30  O   UNL d   1     -41.940  13.061  20.931  0.00  0.00    -0.328 OA
ATOM     31  C   UNL d   1     -41.674  13.832  20.780  0.00  0.00     0.181 C 
ENDBRANCH  27  30
ENDBRANCH  22  24
ENDBRANCH  20  21
ENDBRANCH  19  20
ENDBRANCH  18  19
ENDBRANCH   5  18
TORSDOF 7
ENDMDL
MODEL 6
REMARK VINA RESULT:      -3.9      0.701      2.047
REMARK  7 active torsions:
REMARK  status: ('A' for Active; 'I' for Inactive)
REMARK    1  A    between atoms: C_21  and  C_3 
REMARK    2  A    between atoms: S_17  and  C_5 
REMARK    3  A    between atoms: C_11  and  C_16 
REMARK       I    between atoms: N_14  and  C_11 
REMARK    4  A    between atoms: C_19  and  N_14 
REMARK    5  A    between atoms: C_16  and  C_20 
REMARK    6  A    between atoms: C_20  and  S_17 
REMARK    7  A    between atoms: O_27  and  C_22 
ROOT
ATOM      1  C   UNL d   1     -47.669  14.134  22.892  0.00  0.00     0.092 A 
ATOM      2  C   UNL d   1     -48.783  13.291  23.202  0.00  0.00     0.057 A 
ATOM      3  C   UNL d   1     -48.482  14.033  23.017  0.00  0.00     0.016 A 
ATOM      4  N   UNL d   1     -47.469  12.741  23.140  0.00  0.00    -0.239 NA
ATOM      5  C   UNL d   1     -47.163  13.488  22.953  0.00  0.00     0.120 A 
ATOM      6  C   UNL d   1     -48.276  12.644  23.263  0.00  0.00     0.081 A 
ATOM      7  C   UNL d   1     -49.589  13.194  23.325  0.00  0.00     0.193 A 
ATOM      8  C   UNL d   1     -47.368  14.883  22.706  0.00  0.00     0.103 C 
ATOM      9  N   UNL d   1     -47.069  15.640  22.519  0.00  0.00    -0.191 NA
ATOM     10  C   UNL d   1     -49.386  11.804  23.572  0.00  0.00     0.042 A 
ATOM     11  C   UNL d   1     -49.893  12.450  23.510  0.00  0.00     0.019 A 
ATOM     12  C   UNL d   1     -48.576  11.902  23.448  0.00  0.00    -0.003 A 
ATOM     13  O   UNL d   1     -50.096  13.841  23.263  0.00  0.00    -0.287 OA
ATOM     14  C   UNL d   1     -49.125  11.023  23.691  0.00  0.00     0.009 C 
ATOM     15  C   UNL d   1     -50.195  11.696  23.697  0.00  0.00     0.009 C 
ENDROOT
BRANCH   3  16
ATOM     16  C   UNL d   1     -48.989  14.680  22.955  0.00  0.00     0.001 C 
ATOM     17  C   UNL d   1     -49.378  14.832  22.247  0.00  0.00     0.000 C 
ENDBRANCH   3  16
BRANCH   5  18
ATOM     18  S   UNL d   1     -46.352  13.586  22.829  0.00  0.00    -0.067 SA
BRANCH  18  19
ATOM     19  C   UNL d   1     -45.976  13.164  22.231  0.00  0.00     0.042 C 
BRANCH  19  20
ATOM     20  C   UNL d   1     -45.260  12.774  22.387  0.00  0.00     0.070 C 
BRANCH  20  21
ATOM     21  C   UNL d   1     -44.553  13.073  22.067  0.00  0.00     0.280 C 
ATOM     22  N   UNL d   1     -43.964  12.546  21.814  0.00  0.00    -0.208 NA
ATOM     23  O   UNL d   1     -44.435  13.885  22.001  0.00  0.00    -0.265 OA
BRANCH  22  24
ATOM     24  C   UNL d   1     -43.257  12.844  21.495  0.00  0.00     0.085 A 
ATOM     25  C   UNL d   1     -43.227  13.094  20.710  0.00  0.00     0.021 A 
ATOM     26  C   UNL d   1     -42.524  13.387  20.401  0.00  0.00     0.026 A 
ATOM     27  C   UNL d   1     -41.842  13.436  20.867  0.00  0.00     0.094 A 
ATOM     28  C   UNL d   1     -41.872  13.185  21.650  0.00  0.00     0.026 A 
ATOM     29  C   UNL d   1     -42.579  12.887  21.971  0.00  0.00     0.021 A 
BRANCH  27  30
ATOM     30  O   UNL d   1     -41.126  13.736  20.547  0.00  0.00    -0.328 OA
ATOM     31  C   UNL d   1     -40.835  14.469  20.804  0.00  0.00     0.181 C 
ENDBRANCH  27  30
ENDBRANCH  22  24
ENDBRANCH  20  21
ENDBRANCH  19  20
ENDBRANCH  18  19
ENDBRANCH   5  18
TORSDOF 7
ENDMDL
