MODEL 1
REMARK VINA RESULT:      67.2      0.000      0.000
REMARK  9 active torsions:
REMARK  status: ('A' for Active; 'I' for Inactive)
REMARK    1  A    between atoms: N_2  and  S_1 
REMARK    2  A    between atoms: C_9  and  S_1 
REMARK    3  A    between atoms: C_4  and  N_2 
REMARK    4  A    between atoms: O_19  and  C_6 
REMARK    5  A    between atoms: O_22  and  C_7 
REMARK       I    between atoms: C_12  and  N_13 
REMARK    6  A    between atoms: C_20  and  C_12 
REMARK    7  A    between atoms: N_13  and  C_17 
REMARK    8  A    between atoms: O_18  and  C_20 
REMARK    9  A    between atoms: C_21  and  O_18 
ROOT
ATOM      1  C   UNL d   1     -48.024  29.222  35.261  0.00  0.00     0.105 A 
ATOM      2  C   UNL d   1     -48.079  28.936  34.489  0.00  0.00     0.015 A 
ATOM      3  C   UNL d   1     -48.350  28.812  35.874  0.00  0.00     0.015 A 
ATOM      4  C   UNL d   1     -48.799  27.820  34.977  0.00  0.00     0.085 A 
ATOM      5  C   UNL d   1     -48.470  28.227  34.338  0.00  0.00     0.020 A 
ATOM      6  C   UNL d   1     -48.746  28.099  35.740  0.00  0.00     0.020 A 
ENDROOT
BRANCH   1   7
ATOM      7  S   UNL d   1     -47.626  29.944  35.410  0.00  0.00     0.287 S 
ATOM      8  O   UNL d   1     -47.105  29.778  34.779  0.00  0.00    -0.198 OA
ATOM      9  O   UNL d   1     -48.149  30.092  36.032  0.00  0.00    -0.198 OA
BRANCH   7  10
ATOM     10  N   UNL d   1     -47.228  30.654  35.552  0.00  0.00    -0.139 NA
BRANCH  10  11
ATOM     11  C   UNL d   1     -47.377  31.323  35.101  0.00  0.00     0.182 A 
ATOM     12  N   UNL d   1     -46.769  31.774  34.830  0.00  0.00    -0.185 NA
ATOM     13  C   UNL d   1     -46.918  32.453  34.373  0.00  0.00     0.274 A 
ATOM     14  N   UNL d   1     -47.664  32.670  34.194  0.00  0.00    -0.181 NA
ATOM     15  C   UNL d   1     -48.296  32.223  34.461  0.00  0.00     0.185 A 
ATOM     16  C   UNL d   1     -48.143  31.522  34.933  0.00  0.00     0.084 A 
BRANCH  13  17
ATOM     17  O   UNL d   1     -46.273  32.918  34.095  0.00  0.00    -0.297 OA
ATOM     18  C   UNL d   1     -46.220  33.162  33.317  0.00  0.00     0.185 C 
ENDBRANCH  13  17
BRANCH  15  19
ATOM     19  O   UNL d   1     -49.069  32.474  34.258  0.00  0.00    -0.312 OA
ATOM     20  C   UNL d   1     -49.319  32.394  33.477  0.00  0.00     0.183 C 
ENDBRANCH  15  19
ENDBRANCH  10  11
ENDBRANCH   7  10
ENDBRANCH   1   7
BRANCH   4  21
ATOM     21  N   UNL d   1     -49.198  27.102  34.846  0.00  0.00    -0.206 NA
ATOM     22  C   UNL d   1     -49.641  27.017  34.199  0.00  0.00     0.304 C 
ATOM     23  O   UNL d   1     -49.727  27.634  33.628  0.00  0.00    -0.263 OA
BRANCH  22  24
ATOM     24  C   UNL d   1     -50.053  26.296  34.050  0.00  0.00     0.185 C 
BRANCH  24  25
ATOM     25  O   UNL d   1     -50.739  26.255  33.602  0.00  0.00    -0.300 OA
BRANCH  25  26
ATOM     26  C   UNL d   1     -51.121  25.550  33.539  0.00  0.00     0.100 A 
ATOM     27  C   UNL d   1     -51.944  25.549  33.387  0.00  0.00     0.025 A 
ATOM     28  C   UNL d   1     -52.372  24.826  33.315  0.00  0.00     0.002 A 
ATOM     29  C   UNL d   1     -52.004  24.148  33.391  0.00  0.00     0.000 A 
ATOM     30  C   UNL d   1     -51.153  24.136  33.548  0.00  0.00     0.002 A 
ATOM     31  C   UNL d   1     -52.450  23.416  33.316  0.00  0.00     0.000 C 
ATOM     32  C   UNL d   1     -50.757  24.849  33.614  0.00  0.00     0.025 A 
ENDBRANCH  25  26
ENDBRANCH  24  25
ENDBRANCH  22  24
ENDBRANCH   4  21
TORSDOF 9
ENDMDL
MODEL 2
REMARK VINA RESULT:      70.0      2.638      7.632
REMARK  9 active torsions:
REMARK  status: ('A' for Active; 'I' for Inactive)
REMARK    1  A    between atoms: N_2  and  S_1 
REMARK    2  A    between atoms: C_9  and  S_1 
REMARK    3  A    between atoms: C_4  and  N_2 
REMARK    4  A    between atoms: O_19  and  C_6 
REMARK    5  A    between atoms: O_22  and  C_7 
REMARK       I    between atoms: C_12  and  N_13 
REMARK    6  A    between atoms: C_20  and  C_12 
REMARK    7  A    between atoms: N_13  and  C_17 
REMARK    8  A    between atoms: O_18  and  C_20 
REMARK    9  A    between atoms: C_21  and  O_18 
ROOT
ATOM      1  C   UNL d   1     -50.973  25.346  33.549  0.00  0.00     0.105 A 
ATOM      2  C   UNL d   1     -51.360  26.073  33.494  0.00  0.00     0.015 A 
ATOM      3  C   UNL d   1     -50.183  25.313  33.706  0.00  0.00     0.015 A 
ATOM      4  C   UNL d   1     -50.132  26.722  33.759  0.00  0.00     0.085 A 
ATOM      5  C   UNL d   1     -50.941  26.773  33.599  0.00  0.00     0.020 A 
ATOM      6  C   UNL d   1     -49.746  26.007  33.814  0.00  0.00     0.020 A 
ENDROOT
BRANCH   1   7
ATOM      7  S   UNL d   1     -51.404  24.636  33.441  0.00  0.00     0.287 S 
ATOM      8  O   UNL d   1     -52.115  25.073  33.463  0.00  0.00    -0.198 OA
ATOM      9  O   UNL d   1     -50.692  24.219  33.421  0.00  0.00    -0.198 OA
BRANCH   7  10
ATOM     10  N   UNL d   1     -51.835  23.939  33.335  0.00  0.00    -0.139 NA
BRANCH  10  11
ATOM     11  C   UNL d   1     -52.538  23.807  33.738  0.00  0.00     0.182 A 
ATOM     12  N   UNL d   1     -53.216  23.651  33.334  0.00  0.00    -0.185 NA
ATOM     13  C   UNL d   1     -53.928  23.517  33.741  0.00  0.00     0.274 A 
ATOM     14  N   UNL d   1     -53.955  23.540  34.538  0.00  0.00    -0.181 NA
ATOM     15  C   UNL d   1     -53.275  23.698  34.966  0.00  0.00     0.185 A 
ATOM     16  C   UNL d   1     -52.539  23.836  34.547  0.00  0.00     0.084 A 
BRANCH  13  17
ATOM     17  O   UNL d   1     -54.632  23.355  33.307  0.00  0.00    -0.297 OA
ATOM     18  C   UNL d   1     -55.366  23.605  33.564  0.00  0.00     0.185 C 
ENDBRANCH  13  17
BRANCH  15  19
ATOM     19  O   UNL d   1     -53.333  23.716  35.802  0.00  0.00    -0.312 OA
ATOM     20  C   UNL d   1     -52.878  23.188  36.241  0.00  0.00     0.183 C 
ENDBRANCH  15  19
ENDBRANCH  10  11
ENDBRANCH   7  10
ENDBRANCH   1   7
BRANCH   4  21
ATOM     21  N   UNL d   1     -49.689  27.418  33.869  0.00  0.00    -0.206 NA
ATOM     22  C   UNL d   1     -49.508  27.651  34.600  0.00  0.00     0.304 C 
ATOM     23  O   UNL d   1     -49.749  27.217  35.284  0.00  0.00    -0.263 OA
BRANCH  22  24
ATOM     24  C   UNL d   1     -49.060  28.354  34.731  0.00  0.00     0.185 C 
BRANCH  24  25
ATOM     25  O   UNL d   1     -48.264  28.348  34.927  0.00  0.00    -0.300 OA
BRANCH  25  26
ATOM     26  C   UNL d   1     -47.878  29.050  35.011  0.00  0.00     0.100 A 
ATOM     27  C   UNL d   1     -47.597  29.268  35.768  0.00  0.00     0.025 A 
ATOM     28  C   UNL d   1     -47.189  29.997  35.887  0.00  0.00     0.002 A 
ATOM     29  C   UNL d   1     -47.070  30.477  35.290  0.00  0.00     0.000 A 
ATOM     30  C   UNL d   1     -47.356  30.262  34.502  0.00  0.00     0.002 A 
ATOM     31  C   UNL d   1     -46.654  31.218  35.422  0.00  0.00     0.000 C 
ATOM     32  C   UNL d   1     -47.749  29.550  34.409  0.00  0.00     0.025 A 
ENDBRANCH  25  26
ENDBRANCH  24  25
ENDBRANCH  22  24
ENDBRANCH   4  21
TORSDOF 9
ENDMDL
