MODEL 1
REMARK VINA RESULT:      -7.1      0.000      0.000
REMARK  4 active torsions:
REMARK  status: ('A' for Active; 'I' for Inactive)
REMARK    1  A    between atoms: S_9  and  C_2 
REMARK    2  A    between atoms: C_11  and  C_3 
REMARK    3  A    between atoms: C_7  and  C_10 
REMARK       I    between atoms: N_8  and  C_7 
REMARK    4  A    between atoms: C_10  and  S_9 
ROOT
ATOM      1  N   UNL d   1     -47.972  12.909  23.079  0.00  0.00    -0.220 NA
ATOM      2  C   UNL d   1     -47.412  13.465  22.870  0.00  0.00     0.114 A 
ATOM      3  C   UNL d   1     -48.774  13.096  23.063  0.00  0.00     0.163 A 
ATOM      4  N   UNL d   1     -49.014  13.852  22.833  0.00  0.00    -0.227 NA
ATOM      5  C   UNL d   1     -47.652  14.221  22.640  0.00  0.00     0.042 A 
ATOM      6  C   UNL d   1     -48.452  14.421  22.619  0.00  0.00     0.085 A 
ATOM      7  C   UNL d   1     -47.088  14.786  22.427  0.00  0.00     0.004 A 
ATOM      8  C   UNL d   1     -48.697  15.158  22.395  0.00  0.00     0.019 A 
ATOM      9  C   UNL d   1     -47.339  15.539  22.199  0.00  0.00     0.000 A 
ATOM     10  C   UNL d   1     -48.147  15.724  22.183  0.00  0.00     0.002 A 
ENDROOT
BRANCH   2  11
ATOM     11  S   UNL d   1     -46.604  13.280  22.885  0.00  0.00    -0.062 SA
BRANCH  11  12
ATOM     12  C   UNL d   1     -46.355  12.499  22.970  0.00  0.00     0.098 C 
BRANCH  12  13
ATOM     13  C   UNL d   1     -45.563  12.310  22.892  0.00  0.00     0.272 C 
ATOM     14  N   UNL d   1     -45.287  11.564  23.138  0.00  0.00    -0.267 N 
ATOM     15  C   UNL d   1     -44.482  11.378  23.056  0.00  0.00     0.110 A 
ATOM     16  C   UNL d   1     -45.809  11.025  23.455  0.00  0.00     0.110 A 
ATOM     17  C   UNL d   1     -44.211  10.644  23.299  0.00  0.00     0.142 A 
ATOM     18  O   UNL d   1     -44.738  10.094  23.621  0.00  0.00    -0.300 OA
ATOM     19  C   UNL d   1     -45.538  10.290  23.698  0.00  0.00     0.142 A 
ATOM     20  O   UNL d   1     -45.036  12.860  22.569  0.00  0.00    -0.266 OA
ENDBRANCH  12  13
ENDBRANCH  11  12
ENDBRANCH   2  11
BRANCH   3  21
ATOM     21  C   UNL d   1     -49.343  12.530  23.276  0.00  0.00     0.036 A 
ATOM     22  C   UNL d   1     -50.102  12.775  23.487  0.00  0.00     0.003 A 
ATOM     23  C   UNL d   1     -50.666  12.212  23.698  0.00  0.00     0.000 A 
ATOM     24  C   UNL d   1     -50.467  11.409  23.697  0.00  0.00     0.000 A 
ATOM     25  C   UNL d   1     -49.704  11.171  23.484  0.00  0.00     0.000 A 
ATOM     26  C   UNL d   1     -49.148  11.740  23.275  0.00  0.00     0.003 A 
ENDBRANCH   3  21
TORSDOF 4
ENDMDL
MODEL 2
REMARK VINA RESULT:      -6.4      0.967      2.962
REMARK  4 active torsions:
REMARK  status: ('A' for Active; 'I' for Inactive)
REMARK    1  A    between atoms: S_9  and  C_2 
REMARK    2  A    between atoms: C_11  and  C_3 
REMARK    3  A    between atoms: C_7  and  C_10 
REMARK       I    between atoms: N_8  and  C_7 
REMARK    4  A    between atoms: C_10  and  S_9 
ROOT
ATOM      1  N   UNL d   1     -48.024  13.180  23.136  0.00  0.00    -0.220 NA
ATOM      2  C   UNL d   1     -47.962  12.389  23.330  0.00  0.00     0.114 A 
ATOM      3  C   UNL d   1     -48.764  13.527  23.027  0.00  0.00     0.163 A 
ATOM      4  N   UNL d   1     -49.448  13.071  23.114  0.00  0.00    -0.227 NA
ATOM      5  C   UNL d   1     -48.646  11.933  23.417  0.00  0.00     0.042 A 
ATOM      6  C   UNL d   1     -49.392  12.269  23.310  0.00  0.00     0.085 A 
ATOM      7  C   UNL d   1     -48.586  11.134  23.612  0.00  0.00     0.004 A 
ATOM      8  C   UNL d   1     -50.067  11.832  23.393  0.00  0.00     0.019 A 
ATOM      9  C   UNL d   1     -49.276  10.687  23.697  0.00  0.00     0.000 A 
ATOM     10  C   UNL d   1     -50.018  11.039  23.587  0.00  0.00     0.002 A 
ENDROOT
BRANCH   2  11
ATOM     11  S   UNL d   1     -47.220  12.037  23.440  0.00  0.00    -0.062 SA
BRANCH  11  12
ATOM     12  C   UNL d   1     -46.539  12.392  23.141  0.00  0.00     0.098 C 
BRANCH  12  13
ATOM     13  C   UNL d   1     -45.833  11.979  23.126  0.00  0.00     0.272 C 
ATOM     14  N   UNL d   1     -45.192  12.268  22.680  0.00  0.00    -0.267 N 
ATOM     15  C   UNL d   1     -44.478  11.845  22.669  0.00  0.00     0.110 A 
ATOM     16  C   UNL d   1     -45.271  12.961  22.261  0.00  0.00     0.110 A 
ATOM     17  C   UNL d   1     -43.847  12.129  22.230  0.00  0.00     0.142 A 
ATOM     18  O   UNL d   1     -43.923  12.833  21.803  0.00  0.00    -0.300 OA
ATOM     19  C   UNL d   1     -44.640  13.247  21.822  0.00  0.00     0.142 A 
ATOM     20  O   UNL d   1     -45.757  11.275  23.553  0.00  0.00    -0.266 OA
ENDBRANCH  12  13
ENDBRANCH  11  12
ENDBRANCH   2  11
BRANCH   3  21
ATOM     21  C   UNL d   1     -48.827  14.331  22.830  0.00  0.00     0.036 A 
ATOM     22  C   UNL d   1     -48.445  14.617  22.157  0.00  0.00     0.003 A 
ATOM     23  C   UNL d   1     -48.509  15.416  21.963  0.00  0.00     0.000 A 
ATOM     24  C   UNL d   1     -48.953  15.922  22.443  0.00  0.00     0.000 A 
ATOM     25  C   UNL d   1     -49.332  15.628  23.116  0.00  0.00     0.000 A 
ATOM     26  C   UNL d   1     -49.264  14.830  23.303  0.00  0.00     0.003 A 
ENDBRANCH   3  21
TORSDOF 4
ENDMDL
MODEL 3
REMARK VINA RESULT:      -6.0      8.572      9.981
REMARK  4 active torsions:
REMARK  status: ('A' for Active; 'I' for Inactive)
REMARK    1  A    between atoms: S_9  and  C_2 
REMARK    2  A    between atoms: C_11  and  C_3 
REMARK    3  A    between atoms: C_7  and  C_10 
REMARK       I    between atoms: N_8  and  C_7 
REMARK    4  A    between atoms: C_10  and  S_9 
ROOT
ATOM      1  N   UNL d   1     -39.289  14.521  18.332  0.00  0.00    -0.220 NA
ATOM      2  C   UNL d   1     -38.789  14.001  18.716  0.00  0.00     0.114 A 
ATOM      3  C   UNL d   1     -39.620  14.322  17.605  0.00  0.00     0.163 A 
ATOM      4  N   UNL d   1     -39.445  13.591  17.261  0.00  0.00    -0.227 NA
ATOM      5  C   UNL d   1     -38.614  13.271  18.373  0.00  0.00     0.042 A 
ATOM      6  C   UNL d   1     -38.939  13.060  17.644  0.00  0.00     0.085 A 
ATOM      7  C   UNL d   1     -38.109  12.745  18.758  0.00  0.00     0.004 A 
ATOM      8  C   UNL d   1     -38.774  12.348  17.300  0.00  0.00     0.019 A 
ATOM      9  C   UNL d   1     -37.940  12.017  18.406  0.00  0.00     0.000 A 
ATOM     10  C   UNL d   1     -38.274  11.819  17.674  0.00  0.00     0.002 A 
ENDROOT
BRANCH   2  11
ATOM     11  S   UNL d   1     -38.454  14.199  19.448  0.00  0.00    -0.062 SA
BRANCH  11  12
ATOM     12  C   UNL d   1     -38.913  14.547  20.039  0.00  0.00     0.098 C 
BRANCH  12  13
ATOM     13  C   UNL d   1     -38.566  15.047  20.586  0.00  0.00     0.272 C 
ATOM     14  N   UNL d   1     -38.843  15.058  21.372  0.00  0.00    -0.267 N 
ATOM     15  C   UNL d   1     -38.488  15.566  21.923  0.00  0.00     0.110 A 
ATOM     16  C   UNL d   1     -39.459  14.571  21.590  0.00  0.00     0.110 A 
ATOM     17  C   UNL d   1     -38.761  15.577  22.696  0.00  0.00     0.142 A 
ATOM     18  O   UNL d   1     -39.385  15.085  22.922  0.00  0.00    -0.300 OA
ATOM     19  C   UNL d   1     -39.732  14.582  22.363  0.00  0.00     0.142 A 
ATOM     20  O   UNL d   1     -37.942  15.539  20.361  0.00  0.00    -0.266 OA
ENDBRANCH  12  13
ENDBRANCH  11  12
ENDBRANCH   2  11
BRANCH   3  21
ATOM     21  C   UNL d   1     -40.129  14.849  17.214  0.00  0.00     0.036 A 
ATOM     22  C   UNL d   1     -39.816  15.398  16.683  0.00  0.00     0.003 A 
ATOM     23  C   UNL d   1     -40.323  15.922  16.297  0.00  0.00     0.000 A 
ATOM     24  C   UNL d   1     -41.136  15.892  16.444  0.00  0.00     0.000 A 
ATOM     25  C   UNL d   1     -41.441  15.339  16.977  0.00  0.00     0.000 A 
ATOM     26  C   UNL d   1     -40.929  14.821  17.359  0.00  0.00     0.003 A 
ENDBRANCH   3  21
TORSDOF 4
ENDMDL
MODEL 4
REMARK VINA RESULT:      -5.7      0.865      1.222
REMARK  4 active torsions:
REMARK  status: ('A' for Active; 'I' for Inactive)
REMARK    1  A    between atoms: S_9  and  C_2 
REMARK    2  A    between atoms: C_11  and  C_3 
REMARK    3  A    between atoms: C_7  and  C_10 
REMARK       I    between atoms: N_8  and  C_7 
REMARK    4  A    between atoms: C_10  and  S_9 
ROOT
ATOM      1  N   UNL d   1     -48.197  12.963  23.261  0.00  0.00    -0.220 NA
ATOM      2  C   UNL d   1     -47.627  13.520  23.081  0.00  0.00     0.114 A 
ATOM      3  C   UNL d   1     -48.996  13.133  23.154  0.00  0.00     0.163 A 
ATOM      4  N   UNL d   1     -49.223  13.873  22.864  0.00  0.00    -0.227 NA
ATOM      5  C   UNL d   1     -47.853  14.259  22.791  0.00  0.00     0.042 A 
ATOM      6  C   UNL d   1     -48.650  14.442  22.680  0.00  0.00     0.085 A 
ATOM      7  C   UNL d   1     -47.279  14.823  22.609  0.00  0.00     0.004 A 
ATOM      8  C   UNL d   1     -48.882  15.162  22.396  0.00  0.00     0.019 A 
ATOM      9  C   UNL d   1     -47.516  15.559  22.319  0.00  0.00     0.000 A 
ATOM     10  C   UNL d   1     -48.321  15.728  22.213  0.00  0.00     0.002 A 
ENDROOT
BRANCH   2  11
ATOM     11  S   UNL d   1     -46.822  13.351  23.187  0.00  0.00    -0.062 SA
BRANCH  11  12
ATOM     12  C   UNL d   1     -46.428  12.845  22.669  0.00  0.00     0.098 C 
BRANCH  12  13
ATOM     13  C   UNL d   1     -45.794  12.401  22.933  0.00  0.00     0.272 C 
ATOM     14  N   UNL d   1     -45.078  12.406  22.507  0.00  0.00    -0.267 N 
ATOM     15  C   UNL d   1     -44.437  11.954  22.779  0.00  0.00     0.110 A 
ATOM     16  C   UNL d   1     -45.014  12.853  21.829  0.00  0.00     0.110 A 
ATOM     17  C   UNL d   1     -43.733  11.959  22.360  0.00  0.00     0.142 A 
ATOM     18  O   UNL d   1     -43.664  12.411  21.671  0.00  0.00    -0.300 OA
ATOM     19  C   UNL d   1     -44.310  12.858  21.409  0.00  0.00     0.142 A 
ATOM     20  O   UNL d   1     -45.863  11.949  23.621  0.00  0.00    -0.266 OA
ENDBRANCH  12  13
ENDBRANCH  11  12
ENDBRANCH   2  11
BRANCH   3  21
ATOM     21  C   UNL d   1     -49.576  12.567  23.337  0.00  0.00     0.036 A 
ATOM     22  C   UNL d   1     -50.371  12.787  23.344  0.00  0.00     0.003 A 
ATOM     23  C   UNL d   1     -50.946  12.223  23.525  0.00  0.00     0.000 A 
ATOM     24  C   UNL d   1     -50.720  11.447  23.698  0.00  0.00     0.000 A 
ATOM     25  C   UNL d   1     -49.921  11.235  23.689  0.00  0.00     0.000 A 
ATOM     26  C   UNL d   1     -49.355  11.803  23.507  0.00  0.00     0.003 A 
ENDBRANCH   3  21
TORSDOF 4
ENDMDL
MODEL 5
REMARK VINA RESULT:      -5.2      2.263      5.004
REMARK  4 active torsions:
REMARK  status: ('A' for Active; 'I' for Inactive)
REMARK    1  A    between atoms: S_9  and  C_2 
REMARK    2  A    between atoms: C_11  and  C_3 
REMARK    3  A    between atoms: C_7  and  C_10 
REMARK       I    between atoms: N_8  and  C_7 
REMARK    4  A    between atoms: C_10  and  S_9 
ROOT
ATOM      1  N   UNL d   1     -47.244  13.061  22.113  0.00  0.00    -0.220 NA
ATOM      2  C   UNL d   1     -47.987  12.769  22.286  0.00  0.00     0.114 A 
ATOM      3  C   UNL d   1     -46.569  12.689  22.405  0.00  0.00     0.163 A 
ATOM      4  N   UNL d   1     -46.645  12.014  22.876  0.00  0.00    -0.227 NA
ATOM      5  C   UNL d   1     -48.062  12.095  22.757  0.00  0.00     0.042 A 
ATOM      6  C   UNL d   1     -47.395  11.712  23.055  0.00  0.00     0.085 A 
ATOM      7  C   UNL d   1     -48.812  11.797  22.933  0.00  0.00     0.004 A 
ATOM      8  C   UNL d   1     -47.458  11.052  23.517  0.00  0.00     0.019 A 
ATOM      9  C   UNL d   1     -48.876  11.122  23.405  0.00  0.00     0.000 A 
ATOM     10  C   UNL d   1     -48.196  10.749  23.697  0.00  0.00     0.002 A 
ENDROOT
BRANCH   2  11
ATOM     11  S   UNL d   1     -48.667  13.141  21.994  0.00  0.00    -0.062 SA
BRANCH  11  12
ATOM     12  C   UNL d   1     -48.897  13.879  22.281  0.00  0.00     0.098 C 
BRANCH  12  13
ATOM     13  C   UNL d   1     -49.623  14.192  22.072  0.00  0.00     0.272 C 
ATOM     14  N   UNL d   1     -49.978  14.774  22.551  0.00  0.00    -0.267 N 
ATOM     15  C   UNL d   1     -50.715  15.088  22.336  0.00  0.00     0.110 A 
ATOM     16  C   UNL d   1     -49.599  15.028  23.226  0.00  0.00     0.110 A 
ATOM     17  C   UNL d   1     -51.064  15.661  22.807  0.00  0.00     0.142 A 
ATOM     18  O   UNL d   1     -50.682  15.922  23.492  0.00  0.00    -0.300 OA
ATOM     19  C   UNL d   1     -49.947  15.601  23.698  0.00  0.00     0.142 A 
ATOM     20  O   UNL d   1     -50.005  13.931  21.387  0.00  0.00    -0.266 OA
ENDBRANCH  12  13
ENDBRANCH  11  12
ENDBRANCH   2  11
BRANCH   3  21
ATOM     21  C   UNL d   1     -45.814  12.986  22.229  0.00  0.00     0.036 A 
ATOM     22  C   UNL d   1     -45.646  13.781  22.371  0.00  0.00     0.003 A 
ATOM     23  C   UNL d   1     -44.896  14.074  22.196  0.00  0.00     0.000 A 
ATOM     24  C   UNL d   1     -44.320  13.571  21.881  0.00  0.00     0.000 A 
ATOM     25  C   UNL d   1     -44.496  12.776  21.741  0.00  0.00     0.000 A 
ATOM     26  C   UNL d   1     -45.247  12.491  21.918  0.00  0.00     0.003 A 
ENDBRANCH   3  21
TORSDOF 4
ENDMDL
MODEL 6
REMARK VINA RESULT:      -5.0      1.807      4.322
REMARK  4 active torsions:
REMARK  status: ('A' for Active; 'I' for Inactive)
REMARK    1  A    between atoms: S_9  and  C_2 
REMARK    2  A    between atoms: C_11  and  C_3 
REMARK    3  A    between atoms: C_7  and  C_10 
REMARK       I    between atoms: N_8  and  C_7 
REMARK    4  A    between atoms: C_10  and  S_9 
ROOT
ATOM      1  N   UNL d   1     -46.546  11.839  23.331  0.00  0.00    -0.220 NA
ATOM      2  C   UNL d   1     -46.992  12.515  23.219  0.00  0.00     0.114 A 
ATOM      3  C   UNL d   1     -45.728  11.857  23.234  0.00  0.00     0.163 A 
ATOM      4  N   UNL d   1     -45.355  12.564  23.022  0.00  0.00    -0.227 NA
ATOM      5  C   UNL d   1     -46.620  13.221  23.007  0.00  0.00     0.042 A 
ATOM      6  C   UNL d   1     -45.801  13.252  22.907  0.00  0.00     0.085 A 
ATOM      7  C   UNL d   1     -47.068  13.904  22.894  0.00  0.00     0.004 A 
ATOM      8  C   UNL d   1     -45.428  13.938  22.700  0.00  0.00     0.019 A 
ATOM      9  C   UNL d   1     -46.685  14.606  22.682  0.00  0.00     0.000 A 
ATOM     10  C   UNL d   1     -45.862  14.621  22.585  0.00  0.00     0.002 A 
ENDROOT
BRANCH   2  11
ATOM     11  S   UNL d   1     -47.815  12.499  23.316  0.00  0.00    -0.062 SA
BRANCH  11  12
ATOM     12  C   UNL d   1     -48.289  12.055  22.808  0.00  0.00     0.098 C 
BRANCH  12  13
ATOM     13  C   UNL d   1     -49.071  11.912  22.997  0.00  0.00     0.272 C 
ATOM     14  N   UNL d   1     -49.676  12.167  22.485  0.00  0.00    -0.267 N 
ATOM     15  C   UNL d   1     -50.469  12.019  22.682  0.00  0.00     0.110 A 
ATOM     16  C   UNL d   1     -49.485  12.558  21.797  0.00  0.00     0.110 A 
ATOM     17  C   UNL d   1     -51.064  12.270  22.178  0.00  0.00     0.142 A 
ATOM     18  O   UNL d   1     -50.874  12.667  21.478  0.00  0.00    -0.300 OA
ATOM     19  C   UNL d   1     -50.080  12.810  21.292  0.00  0.00     0.142 A 
ATOM     20  O   UNL d   1     -49.262  11.515  23.697  0.00  0.00    -0.266 OA
ENDBRANCH  12  13
ENDBRANCH  11  12
ENDBRANCH   2  11
BRANCH   3  21
ATOM     21  C   UNL d   1     -45.275  11.171  23.347  0.00  0.00     0.036 A 
ATOM     22  C   UNL d   1     -44.460  11.195  23.220  0.00  0.00     0.003 A 
ATOM     23  C   UNL d   1     -44.011  10.512  23.333  0.00  0.00     0.000 A 
ATOM     24  C   UNL d   1     -44.381   9.812  23.572  0.00  0.00     0.000 A 
ATOM     25  C   UNL d   1     -45.198   9.796  23.698  0.00  0.00     0.000 A 
ATOM     26  C   UNL d   1     -45.638  10.481  23.583  0.00  0.00     0.003 A 
ENDBRANCH   3  21
TORSDOF 4
ENDMDL
MODEL 7
REMARK VINA RESULT:      -4.6      8.467      9.593
REMARK  4 active torsions:
REMARK  status: ('A' for Active; 'I' for Inactive)
REMARK    1  A    between atoms: S_9  and  C_2 
REMARK    2  A    between atoms: C_11  and  C_3 
REMARK    3  A    between atoms: C_7  and  C_10 
REMARK       I    between atoms: N_8  and  C_7 
REMARK    4  A    between atoms: C_10  and  S_9 
ROOT
ATOM      1  N   UNL d   1     -39.545  14.863  18.501  0.00  0.00    -0.220 NA
ATOM      2  C   UNL d   1     -39.655  14.862  17.691  0.00  0.00     0.114 A 
ATOM      3  C   UNL d   1     -40.101  15.213  18.997  0.00  0.00     0.163 A 
ATOM      4  N   UNL d   1     -40.775  15.566  18.675  0.00  0.00    -0.227 NA
ATOM      5  C   UNL d   1     -40.329  15.215  17.369  0.00  0.00     0.042 A 
ATOM      6  C   UNL d   1     -40.893  15.569  17.856  0.00  0.00     0.085 A 
ATOM      7  C   UNL d   1     -40.443  15.215  16.551  0.00  0.00     0.004 A 
ATOM      8  C   UNL d   1     -41.556  15.916  17.550  0.00  0.00     0.019 A 
ATOM      9  C   UNL d   1     -41.120  15.570  16.239  0.00  0.00     0.000 A 
ATOM     10  C   UNL d   1     -41.678  15.922  16.742  0.00  0.00     0.002 A 
ENDROOT
BRANCH   2  11
ATOM     11  S   UNL d   1     -39.098  14.511  17.188  0.00  0.00    -0.062 SA
BRANCH  11  12
ATOM     12  C   UNL d   1     -38.576  13.939  17.475  0.00  0.00     0.098 C 
BRANCH  12  13
ATOM     13  C   UNL d   1     -38.406  13.277  17.025  0.00  0.00     0.272 C 
ATOM     14  N   UNL d   1     -38.258  12.548  17.399  0.00  0.00    -0.267 N 
ATOM     15  C   UNL d   1     -38.086  11.880  16.938  0.00  0.00     0.110 A 
ATOM     16  C   UNL d   1     -38.284  12.498  18.212  0.00  0.00     0.110 A 
ATOM     17  C   UNL d   1     -37.940  11.162  17.307  0.00  0.00     0.142 A 
ATOM     18  O   UNL d   1     -37.965  11.107  18.131  0.00  0.00    -0.300 OA
ATOM     19  C   UNL d   1     -38.138  11.781  18.581  0.00  0.00     0.142 A 
ATOM     20  O   UNL d   1     -38.381  13.332  16.201  0.00  0.00    -0.266 OA
ENDBRANCH  12  13
ENDBRANCH  11  12
ENDBRANCH   2  11
BRANCH   3  21
ATOM     21  C   UNL d   1     -39.989  15.214  19.820  0.00  0.00     0.036 A 
ATOM     22  C   UNL d   1     -39.531  15.806  20.168  0.00  0.00     0.003 A 
ATOM     23  C   UNL d   1     -39.421  15.806  20.986  0.00  0.00     0.000 A 
ATOM     24  C   UNL d   1     -39.769  15.215  21.448  0.00  0.00     0.000 A 
ATOM     25  C   UNL d   1     -40.226  14.625  21.092  0.00  0.00     0.000 A 
ATOM     26  C   UNL d   1     -40.331  14.633  20.276  0.00  0.00     0.003 A 
ENDBRANCH   3  21
TORSDOF 4
ENDMDL
MODEL 8
REMARK VINA RESULT:      -4.3      1.772      4.694
REMARK  4 active torsions:
REMARK  status: ('A' for Active; 'I' for Inactive)
REMARK    1  A    between atoms: S_9  and  C_2 
REMARK    2  A    between atoms: C_11  and  C_3 
REMARK    3  A    between atoms: C_7  and  C_10 
REMARK       I    between atoms: N_8  and  C_7 
REMARK    4  A    between atoms: C_10  and  S_9 
ROOT
ATOM      1  N   UNL d   1     -46.858  12.471  23.139  0.00  0.00    -0.220 NA
ATOM      2  C   UNL d   1     -46.875  11.684  23.359  0.00  0.00     0.114 A 
ATOM      3  C   UNL d   1     -46.141  12.844  22.977  0.00  0.00     0.163 A 
ATOM      4  N   UNL d   1     -45.435  12.420  23.037  0.00  0.00    -0.227 NA
ATOM      5  C   UNL d   1     -46.169  11.260  23.419  0.00  0.00     0.042 A 
ATOM      6  C   UNL d   1     -45.445  11.623  23.259  0.00  0.00     0.085 A 
ATOM      7  C   UNL d   1     -46.183  10.466  23.641  0.00  0.00     0.004 A 
ATOM      8  C   UNL d   1     -44.748  11.216  23.315  0.00  0.00     0.019 A 
ATOM      9  C   UNL d   1     -45.471  10.050  23.698  0.00  0.00     0.000 A 
ATOM     10  C   UNL d   1     -44.752  10.428  23.534  0.00  0.00     0.002 A 
ENDROOT
BRANCH   2  11
ATOM     11  S   UNL d   1     -47.594  11.306  23.523  0.00  0.00    -0.062 SA
BRANCH  11  12
ATOM     12  C   UNL d   1     -48.269  11.747  23.697  0.00  0.00     0.098 C 
BRANCH  12  13
ATOM     13  C   UNL d   1     -49.009  11.455  23.506  0.00  0.00     0.272 C 
ATOM     14  N   UNL d   1     -49.668  11.965  23.503  0.00  0.00    -0.267 N 
ATOM     15  C   UNL d   1     -50.416  11.664  23.308  0.00  0.00     0.110 A 
ATOM     16  C   UNL d   1     -49.571  12.751  23.691  0.00  0.00     0.110 A 
ATOM     17  C   UNL d   1     -51.064  12.166  23.305  0.00  0.00     0.142 A 
ATOM     18  O   UNL d   1     -50.971  12.965  23.495  0.00  0.00    -0.300 OA
ATOM     19  C   UNL d   1     -50.219  13.254  23.688  0.00  0.00     0.142 A 
ATOM     20  O   UNL d   1     -49.103  10.656  23.316  0.00  0.00    -0.266 OA
ENDBRANCH  12  13
ENDBRANCH  11  12
ENDBRANCH   2  11
BRANCH   3  21
ATOM     21  C   UNL d   1     -46.124  13.644  22.753  0.00  0.00     0.036 A 
ATOM     22  C   UNL d   1     -45.497  13.925  22.296  0.00  0.00     0.003 A 
ATOM     23  C   UNL d   1     -45.482  14.720  22.075  0.00  0.00     0.000 A 
ATOM     24  C   UNL d   1     -46.091  15.225  22.312  0.00  0.00     0.000 A 
ATOM     25  C   UNL d   1     -46.716  14.936  22.771  0.00  0.00     0.000 A 
ATOM     26  C   UNL d   1     -46.724  14.142  22.987  0.00  0.00     0.003 A 
ENDBRANCH   3  21
TORSDOF 4
ENDMDL
