MODEL 1
REMARK VINA RESULT:      43.0      0.000      0.000
REMARK  7 active torsions:
REMARK  status: ('A' for Active; 'I' for Inactive)
REMARK    1  A    between atoms: C_4  and  S_1 
REMARK    2  A    between atoms: N_10  and  S_1 
REMARK    3  A    between atoms: C_3  and  C_2 
REMARK       I    between atoms: N_6  and  C_3 
REMARK    4  A    between atoms: C_16  and  N_6 
REMARK    5  A    between atoms: C_19  and  N_10 
REMARK    6  A    between atoms: C_12  and  C_24 
REMARK    7  A    between atoms: C_24  and  C_19 
ROOT
ATOM      1  C   UNL d   1      46.199 -18.880  42.591  0.00  0.00     0.086 A 
ATOM      2  C   UNL d   1      46.226 -18.342  43.913  0.00  0.00     0.106 A 
ATOM      3  C   UNL d   1      46.072 -18.253  43.108  0.00  0.00     0.020 A 
ATOM      4  C   UNL d   1      46.484 -19.602  42.880  0.00  0.00     0.145 A 
ATOM      5  C   UNL d   1      46.509 -19.060  44.199  0.00  0.00     0.015 A 
ATOM      6  C   UNL d   1      46.638 -19.691  43.681  0.00  0.00     0.030 A 
ATOM      7  F   UNL d   1      46.613 -20.230  42.370  0.00  0.00    -0.204 F 
ENDROOT
BRANCH   2   8
ATOM      8  S   UNL d   1      46.099 -17.714  44.434  0.00  0.00     0.285 S 
ATOM      9  O   UNL d   1      45.591 -18.187  44.874  0.00  0.00    -0.198 OA
ATOM     10  O   UNL d   1      46.607 -17.238  43.995  0.00  0.00    -0.198 OA
BRANCH   8  11
ATOM     11  N   UNL d   1      45.975 -17.087  44.950  0.00  0.00    -0.157 NA
BRANCH  11  12
ATOM     12  C   UNL d   1      45.971 -16.303  44.652  0.00  0.00     0.112 C 
BRANCH  12  13
ATOM     13  C   UNL d   1      45.420 -15.761  44.913  0.00  0.00     0.021 C 
BRANCH  13  14
ATOM     14  C   UNL d   1      45.470 -14.979  44.695  0.00  0.00     0.002 A 
ATOM     15  C   UNL d   1      44.834 -14.605  44.304  0.00  0.00     0.000 A 
ATOM     16  C   UNL d   1      44.885 -13.809  44.082  0.00  0.00     0.000 A 
ATOM     17  C   UNL d   1      45.573 -13.366  44.244  0.00  0.00     0.000 A 
ATOM     18  C   UNL d   1      46.206 -13.743  44.635  0.00  0.00     0.000 A 
ATOM     19  C   UNL d   1      46.155 -14.539  44.857  0.00  0.00     0.000 A 
ENDBRANCH  13  14
ENDBRANCH  12  13
ENDBRANCH  11  12
ENDBRANCH   8  11
ENDBRANCH   2   8
BRANCH   1  20
ATOM     20  C   UNL d   1      46.050 -18.805  41.788  0.00  0.00     0.281 C 
ATOM     21  N   UNL d   1      45.955 -18.044  41.466  0.00  0.00    -0.208 NA
ATOM     22  O   UNL d   1      45.992 -19.464  41.303  0.00  0.00    -0.265 OA
BRANCH  21  23
ATOM     23  C   UNL d   1      45.805 -17.965  40.664  0.00  0.00     0.085 A 
ATOM     24  C   UNL d   1      45.056 -18.098  40.371  0.00  0.00     0.019 A 
ATOM     25  C   UNL d   1      44.918 -18.015  39.561  0.00  0.00     0.002 A 
ATOM     26  C   UNL d   1      45.525 -17.801  39.045  0.00  0.00     0.000 A 
ATOM     27  C   UNL d   1      46.280 -17.668  39.351  0.00  0.00     0.002 A 
ATOM     28  C   UNL d   1      45.386 -17.719  38.239  0.00  0.00     0.000 C 
ATOM     29  C   UNL d   1      46.423 -17.749  40.157  0.00  0.00     0.019 A 
ENDBRANCH  21  23
ENDBRANCH   1  20
TORSDOF 7
ENDMDL
