MODEL 1
REMARK VINA RESULT:       0.1      0.000      0.000
REMARK  4 active torsions:
REMARK  status: ('A' for Active; 'I' for Inactive)
REMARK    1  A    between atoms: O_8  and  C_1 
REMARK    2  A    between atoms: C_9  and  C_5 
REMARK    3  A    between atoms: C_11  and  O_8 
REMARK    4  A    between atoms: N_12  and  C_9 
ROOT
ATOM      1  C   UNL d   1     -41.280-122.398 -50.769  0.00  0.00     0.161 A 
ATOM      2  C   UNL d   1     -41.277-122.196 -52.422  0.00  0.00     0.108 A 
ATOM      3  C   UNL d   1     -41.357-121.531 -51.917  0.00  0.00     0.064 A 
ATOM      4  C   UNL d   1     -41.358-121.635 -51.093  0.00  0.00     0.222 A 
ATOM      5  C   UNL d   1     -41.276-122.098 -53.233  0.00  0.00     0.079 A 
ATOM      6  O   UNL d   1     -41.199-122.957 -52.095  0.00  0.00    -0.305 OA
ATOM      7  C   UNL d   1     -41.201-123.057 -51.269  0.00  0.00     0.126 A 
ATOM      8  C   UNL d   1     -41.433-120.784 -52.254  0.00  0.00     0.009 A 
ATOM      9  C   UNL d   1     -41.353-121.350 -53.563  0.00  0.00     0.199 A 
ATOM     10  O   UNL d   1     -41.436-120.978 -50.597  0.00  0.00    -0.284 OA
ATOM     11  C   UNL d   1     -41.432-120.692 -53.070  0.00  0.00     0.042 A 
ATOM     12  O   UNL d   1     -41.351-121.255 -54.383  0.00  0.00    -0.286 OA
ATOM     13  C   UNL d   1     -41.123-123.817 -50.947  0.00  0.00     0.029 C 
ENDROOT
BRANCH   1  14
ATOM     14  O   UNL d   1     -41.281-122.493 -49.950  0.00  0.00    -0.301 OA
BRANCH  14  15
ATOM     15  C   UNL d   1     -41.970-122.718 -49.553  0.00  0.00     0.106 A 
ATOM     16  C   UNL d   1     -41.928-122.972 -48.776  0.00  0.00     0.057 A 
ATOM     17 BR   UNL d   1     -41.200-123.004 -48.384  0.00  0.00    -0.047 Br
ATOM     18  C   UNL d   1     -42.619-123.197 -48.381  0.00  0.00     0.009 A 
ATOM     19  C   UNL d   1     -43.351-123.166 -48.770  0.00  0.00     0.001 A 
ATOM     20  C   UNL d   1     -43.384-122.908 -49.557  0.00  0.00     0.002 A 
ATOM     21  C   UNL d   1     -42.695-122.685 -49.945  0.00  0.00     0.025 A 
ENDBRANCH  14  15
ENDBRANCH   1  14
BRANCH   5  22
ATOM     22  C   UNL d   1     -41.199-122.746 -53.719  0.00  0.00     0.085 C 
BRANCH  22  23
ATOM     23  N   UNL d   1     -41.755-123.026 -54.245  0.00  0.00    -0.302 N 
ATOM     24  C   UNL d   1     -42.083-123.771 -54.246  0.00  0.00     0.080 A 
ATOM     25  C   UNL d   1     -42.604-123.811 -54.857  0.00  0.00     0.021 A 
ATOM     26  C   UNL d   1     -42.606-123.109 -55.234  0.00  0.00     0.021 A 
ATOM     27  C   UNL d   1     -42.074-122.612 -54.854  0.00  0.00     0.080 A 
ENDBRANCH  22  23
ENDBRANCH   5  22
TORSDOF 4
ENDMDL
MODEL 2
REMARK VINA RESULT:       2.3      1.925      4.692
REMARK  4 active torsions:
REMARK  status: ('A' for Active; 'I' for Inactive)
REMARK    1  A    between atoms: O_8  and  C_1 
REMARK    2  A    between atoms: C_9  and  C_5 
REMARK    3  A    between atoms: C_11  and  O_8 
REMARK    4  A    between atoms: N_12  and  C_9 
ROOT
ATOM      1  C   UNL d   1     -41.616-121.700 -53.568  0.00  0.00     0.161 A 
ATOM      2  C   UNL d   1     -41.615-122.271 -52.005  0.00  0.00     0.108 A 
ATOM      3  C   UNL d   1     -41.366-122.767 -52.634  0.00  0.00     0.064 A 
ATOM      4  C   UNL d   1     -41.368-122.479 -53.412  0.00  0.00     0.222 A 
ATOM      5  C   UNL d   1     -41.615-122.551 -51.237  0.00  0.00     0.079 A 
ATOM      6  O   UNL d   1     -41.863-121.493 -52.164  0.00  0.00    -0.305 OA
ATOM      7  C   UNL d   1     -41.863-121.208 -52.945  0.00  0.00     0.126 A 
ATOM      8  C   UNL d   1     -41.124-123.535 -52.462  0.00  0.00     0.009 A 
ATOM      9  C   UNL d   1     -41.372-123.318 -51.072  0.00  0.00     0.199 A 
ATOM     10  O   UNL d   1     -41.123-122.969 -54.032  0.00  0.00    -0.284 OA
ATOM     11  C   UNL d   1     -41.126-123.810 -51.688  0.00  0.00     0.042 A 
ATOM     12  O   UNL d   1     -41.373-123.597 -50.295  0.00  0.00    -0.286 OA
ATOM     13  C   UNL d   1     -42.110-120.432 -53.099  0.00  0.00     0.029 C 
ENDROOT
BRANCH   1  14
ATOM     14  O   UNL d   1     -41.615-121.421 -54.345  0.00  0.00    -0.301 OA
BRANCH  14  15
ATOM     15  C   UNL d   1     -42.155-121.713 -54.898  0.00  0.00     0.106 A 
ATOM     16  C   UNL d   1     -41.921-121.828 -55.674  0.00  0.00     0.057 A 
ATOM     17 BR   UNL d   1     -41.147-121.655 -55.908  0.00  0.00    -0.047 Br
ATOM     18  C   UNL d   1     -42.463-122.121 -56.226  0.00  0.00     0.009 A 
ATOM     19  C   UNL d   1     -43.240-122.296 -55.995  0.00  0.00     0.001 A 
ATOM     20  C   UNL d   1     -43.468-122.176 -55.207  0.00  0.00     0.002 A 
ATOM     21  C   UNL d   1     -42.926-121.886 -54.663  0.00  0.00     0.025 A 
ENDBRANCH  14  15
ENDBRANCH   1  14
BRANCH   5  22
ATOM     22  C   UNL d   1     -41.857-122.066 -50.630  0.00  0.00     0.085 C 
BRANCH  22  23
ATOM     23  N   UNL d   1     -42.444-122.227 -50.087  0.00  0.00    -0.302 N 
ATOM     24  C   UNL d   1     -43.239-122.077 -50.182  0.00  0.00     0.080 A 
ATOM     25  C   UNL d   1     -43.617-122.321 -49.515  0.00  0.00     0.021 A 
ATOM     26  C   UNL d   1     -43.076-122.617 -49.011  0.00  0.00     0.021 A 
ATOM     27  C   UNL d   1     -42.337-122.561 -49.365  0.00  0.00     0.080 A 
ENDBRANCH  22  23
ENDBRANCH   5  22
TORSDOF 4
ENDMDL
MODEL 3
REMARK VINA RESULT:       2.7      1.909      4.586
REMARK  4 active torsions:
REMARK  status: ('A' for Active; 'I' for Inactive)
REMARK    1  A    between atoms: O_8  and  C_1 
REMARK    2  A    between atoms: C_9  and  C_5 
REMARK    3  A    between atoms: C_11  and  O_8 
REMARK    4  A    between atoms: N_12  and  C_9 
ROOT
ATOM      1  C   UNL d   1     -41.837-122.436 -51.969  0.00  0.00     0.161 A 
ATOM      2  C   UNL d   1     -42.516-122.761 -50.484  0.00  0.00     0.108 A 
ATOM      3  C   UNL d   1     -42.706-122.050 -50.888  0.00  0.00     0.064 A 
ATOM      4  C   UNL d   1     -42.366-121.891 -51.628  0.00  0.00     0.222 A 
ATOM      5  C   UNL d   1     -42.849-122.920 -49.755  0.00  0.00     0.079 A 
ATOM      6  O   UNL d   1     -41.988-123.303 -50.828  0.00  0.00    -0.305 OA
ATOM      7  C   UNL d   1     -41.649-123.141 -51.570  0.00  0.00     0.126 A 
ATOM      8  C   UNL d   1     -43.230-121.522 -50.535  0.00  0.00     0.009 A 
ATOM      9  C   UNL d   1     -43.371-122.389 -49.409  0.00  0.00     0.199 A 
ATOM     10  O   UNL d   1     -42.554-121.190 -52.024  0.00  0.00    -0.284 OA
ATOM     11  C   UNL d   1     -43.561-121.688 -49.803  0.00  0.00     0.042 A 
ATOM     12  O   UNL d   1     -43.705-122.554 -48.673  0.00  0.00    -0.286 OA
ATOM     13  C   UNL d   1     -41.123-123.684 -51.909  0.00  0.00     0.029 C 
ENDROOT
BRANCH   1  14
ATOM     14  O   UNL d   1     -41.503-122.271 -52.706  0.00  0.00    -0.301 OA
BRANCH  14  15
ATOM     15  C   UNL d   1     -41.789-122.637 -53.389  0.00  0.00     0.106 A 
ATOM     16  C   UNL d   1     -41.650-122.298 -54.121  0.00  0.00     0.057 A 
ATOM     17 BR   UNL d   1     -41.225-121.591 -54.181  0.00  0.00    -0.047 Br
ATOM     18  C   UNL d   1     -41.937-122.666 -54.804  0.00  0.00     0.009 A 
ATOM     19  C   UNL d   1     -42.364-123.375 -54.748  0.00  0.00     0.001 A 
ATOM     20  C   UNL d   1     -42.500-123.711 -54.003  0.00  0.00     0.002 A 
ATOM     21  C   UNL d   1     -42.213-123.341 -53.327  0.00  0.00     0.025 A 
ENDBRANCH  14  15
ENDBRANCH   1  14
BRANCH   5  22
ATOM     22  C   UNL d   1     -42.662-123.611 -49.368  0.00  0.00     0.085 C 
BRANCH  22  23
ATOM     23  N   UNL d   1     -42.257-123.676 -48.663  0.00  0.00    -0.302 N 
ATOM     24  C   UNL d   1     -41.452-123.757 -48.577  0.00  0.00     0.080 A 
ATOM     25  C   UNL d   1     -41.290-123.802 -47.791  0.00  0.00     0.021 A 
ATOM     26  C   UNL d   1     -41.976-123.751 -47.388  0.00  0.00     0.021 A 
ATOM     27  C   UNL d   1     -42.587-123.672 -47.931  0.00  0.00     0.080 A 
ENDBRANCH  22  23
ENDBRANCH   5  22
TORSDOF 4
ENDMDL
