MODEL 1
REMARK VINA RESULT:      -1.2      0.000      0.000
REMARK  5 active torsions:
REMARK  status: ('A' for Active; 'I' for Inactive)
REMARK    1  A    between atoms: C_11  and  C_3 
REMARK    2  A    between atoms: C_14  and  C_7 
REMARK    3  A    between atoms: O_18  and  C_11 
REMARK    4  A    between atoms: C_16  and  C_20 
REMARK    5  A    between atoms: C_20  and  O_18 
ROOT
ATOM      1  C   UNL d   1      57.819  -1.001  30.708  0.00  0.00     0.172 A 
ATOM      2  C   UNL d   1      58.478  -0.541  30.543  0.00  0.00     0.094 A 
ATOM      3  C   UNL d   1      58.998  -1.561  29.699  0.00  0.00     0.081 A 
ATOM      4  C   UNL d   1      58.547   0.210  30.888  0.00  0.00     0.286 A 
ATOM      5  N   UNL d   1      57.232  -0.726  31.209  0.00  0.00    -0.172 NA
ATOM      6  N   UNL d   1      57.957   0.482  31.390  0.00  0.00    -0.152 NA
ATOM      7  C   UNL d   1      59.067  -0.819  30.039  0.00  0.00     0.014 A 
ATOM      8  C   UNL d   1      58.335  -2.032  29.860  0.00  0.00     0.088 A 
ATOM      9  N   UNL d   1      57.743  -1.748  30.369  0.00  0.00    -0.226 NA
ATOM     10  C   UNL d   1      57.300   0.015  31.550  0.00  0.00     0.373 A 
ATOM     11  O   UNL d   1      59.210   0.681  30.726  0.00  0.00    -0.265 OA
ATOM     12  O   UNL d   1      56.706   0.289  32.054  0.00  0.00    -0.242 OA
ATOM     13  C   UNL d   1      58.262  -2.777  29.520  0.00  0.00     0.021 C 
ENDROOT
BRANCH   3  14
ATOM     14  C   UNL d   1      59.582  -1.846  29.195  0.00  0.00     0.302 C 
ATOM     15  O   UNL d   1      59.694  -1.489  28.455  0.00  0.00    -0.259 OA
BRANCH  14  16
ATOM     16  O   UNL d   1      60.054  -2.483  29.420  0.00  0.00    -0.271 OA
BRANCH  16  17
ATOM     17  C   UNL d   1      60.487  -2.900  28.852  0.00  0.00     0.126 C 
BRANCH  17  18
ATOM     18  C   UNL d   1      61.127  -3.368  29.084  0.00  0.00     0.027 C 
ATOM     19  C   UNL d   1      61.129  -4.176  28.929  0.00  0.00     0.002 C 
ENDBRANCH  17  18
ENDBRANCH  16  17
ENDBRANCH  14  16
ENDBRANCH   3  14
BRANCH   7  20
ATOM     20  C   UNL d   1      59.726  -0.350  29.879  0.00  0.00     0.001 A 
ATOM     21  C   UNL d   1      59.727   0.144  29.217  0.00  0.00     0.000 A 
ATOM     22  C   UNL d   1      60.388   0.617  29.052  0.00  0.00     0.000 A 
ATOM     23  C   UNL d   1      61.041   0.591  29.550  0.00  0.00     0.000 A 
ATOM     24  C   UNL d   1      61.041   0.097  30.212  0.00  0.00     0.000 A 
ATOM     25  C   UNL d   1      60.378  -0.375  30.374  0.00  0.00     0.000 A 
ENDBRANCH   7  20
TORSDOF 5
ENDMDL
