MODEL 1
REMARK VINA RESULT:      17.4      0.000      0.000
REMARK  2 active torsions:
REMARK  status: ('A' for Active; 'I' for Inactive)
REMARK    1  A    between atoms: C_6  and  C_1 
REMARK    2  A    between atoms: O_15  and  C_12 
ROOT
ATOM      1  C   UNL d   1     -58.459 -98.756 -44.092  0.00  0.00     0.128 A 
ATOM      2  C   UNL d   1     -58.541 -98.756 -44.935  0.00  0.00     0.306 A 
ATOM      3  C   UNL d   1     -57.709 -98.756 -43.768  0.00  0.00     0.013 A 
ATOM      4  O   UNL d   1     -57.867 -98.756 -45.391  0.00  0.00    -0.273 OA
ATOM      5  C   UNL d   1     -57.055 -98.756 -44.228  0.00  0.00     0.025 A 
ATOM      6  C   UNL d   1     -57.137 -98.756 -45.071  0.00  0.00     0.103 A 
ATOM      7  O   UNL d   1     -59.306 -98.756 -45.277  0.00  0.00    -0.259 OA
ATOM      8  C   UNL d   1     -56.298 -98.756 -43.904  0.00  0.00     0.026 A 
ATOM      9  C   UNL d   1     -56.455 -98.755 -45.528  0.00  0.00     0.027 A 
ATOM     10  C   UNL d   1     -55.613 -98.755 -44.368  0.00  0.00     0.094 A 
ATOM     11  C   UNL d   1     -55.694 -98.755 -45.211  0.00  0.00     0.026 A 
ENDROOT
BRANCH   1  12
ATOM     12  C   UNL d   1     -59.143 -98.756 -43.603  0.00  0.00     0.216 C 
ATOM     13  O   UNL d   1     -59.064 -98.755 -42.785  0.00  0.00    -0.644 OA
ATOM     14  O   UNL d   1     -59.901 -98.758 -43.952  0.00  0.00    -0.644 OA
ENDBRANCH   1  12
BRANCH  10  15
ATOM     15  O   UNL d   1     -54.860 -98.755 -44.019  0.00  0.00    -0.328 OA
ATOM     16  C   UNL d   1     -54.712 -99.207 -43.349  0.00  0.00     0.181 C 
ENDBRANCH  10  15
TORSDOF 2
ENDMDL
MODEL 2
REMARK VINA RESULT:      20.1      1.004      3.534
REMARK  2 active torsions:
REMARK  status: ('A' for Active; 'I' for Inactive)
REMARK    1  A    between atoms: C_6  and  C_1 
REMARK    2  A    between atoms: O_15  and  C_12 
ROOT
ATOM      1  C   UNL d   1     -56.440 -98.796 -44.566  0.00  0.00     0.128 A 
ATOM      2  C   UNL d   1     -56.561 -98.783 -43.728  0.00  0.00     0.306 A 
ATOM      3  C   UNL d   1     -57.092 -98.795 -45.059  0.00  0.00     0.013 A 
ATOM      4  O   UNL d   1     -57.323 -98.770 -43.445  0.00  0.00    -0.273 OA
ATOM      5  C   UNL d   1     -57.837 -98.782 -44.767  0.00  0.00     0.025 A 
ATOM      6  C   UNL d   1     -57.957 -98.769 -43.929  0.00  0.00     0.103 A 
ATOM      7  O   UNL d   1     -55.899 -98.784 -43.215  0.00  0.00    -0.259 OA
ATOM      8  C   UNL d   1     -58.495 -98.781 -45.260  0.00  0.00     0.026 A 
ATOM      9  C   UNL d   1     -58.727 -98.756 -43.646  0.00  0.00     0.027 A 
ATOM     10  C   UNL d   1     -59.271 -98.768 -44.973  0.00  0.00     0.094 A 
ATOM     11  C   UNL d   1     -59.391 -98.755 -44.134  0.00  0.00     0.026 A 
ENDROOT
BRANCH   1  12
ATOM     12  C   UNL d   1     -55.660 -98.809 -44.879  0.00  0.00     0.216 C 
ATOM     13  O   UNL d   1     -55.542 -98.757 -45.690  0.00  0.00    -0.644 OA
ATOM     14  O   UNL d   1     -55.008 -98.876 -44.362  0.00  0.00    -0.644 OA
ENDBRANCH   1  12
BRANCH  10  15
ATOM     15  O   UNL d   1     -59.919 -98.767 -45.490  0.00  0.00    -0.328 OA
ATOM     16  C   UNL d   1     -59.803 -98.790 -46.304  0.00  0.00     0.181 C 
ENDBRANCH  10  15
TORSDOF 2
ENDMDL
