MODEL 1
REMARK VINA RESULT:      13.3      0.000      0.000
REMARK  9 active torsions:
REMARK  status: ('A' for Active; 'I' for Inactive)
REMARK    1  A    between atoms: N_6  and  S_1 
REMARK    2  A    between atoms: C_12  and  S_1 
REMARK    3  A    between atoms: C_2  and  C_3 
REMARK    4  A    between atoms: C_4  and  C_2 
REMARK    5  A    between atoms: C_5  and  C_2 
REMARK    6  A    between atoms: O_14  and  C_4 
REMARK    7  A    between atoms: C_9  and  C_5 
REMARK    8  A    between atoms: C_7  and  N_6 
REMARK    9  A    between atoms: C_29  and  O_14 
ROOT
ATOM      1  C   UNL d   1     -42.365-122.207 -50.273  0.00  0.00     0.049 A 
ATOM      2  C   UNL d   1     -41.541-122.153 -51.435  0.00  0.00     0.094 A 
ATOM      3  C   UNL d   1     -42.365-121.378 -50.244  0.00  0.00     0.196 A 
ATOM      4  C   UNL d   1     -41.955-122.593 -50.867  0.00  0.00     0.023 A 
ATOM      5  C   UNL d   1     -41.949-120.933 -50.815  0.00  0.00     0.040 A 
ATOM      6  C   UNL d   1     -41.539-121.318 -51.408  0.00  0.00     0.021 A 
ATOM      7  O   UNL d   1     -42.779-120.989 -49.646  0.00  0.00    -0.287 OA
ATOM      8  C   UNL d   1     -41.978-120.114 -50.744  0.00  0.00     0.003 A 
ATOM      9  C   UNL d   1     -41.124-120.887 -51.978  0.00  0.00     0.002 A 
ATOM     10  C   UNL d   1     -41.526-119.673 -51.367  0.00  0.00     0.000 A 
ATOM     11  C   UNL d   1     -41.125-120.050 -51.947  0.00  0.00     0.000 A 
ENDROOT
BRANCH   2  12
ATOM     12  N   UNL d   1     -41.128-122.580 -52.035  0.00  0.00    -0.158 NA
BRANCH  12  13
ATOM     13  S   UNL d   1     -41.489-122.723 -52.755  0.00  0.00     0.285 S 
ATOM     14  O   UNL d   1     -41.738-123.478 -52.484  0.00  0.00    -0.198 OA
ATOM     15  O   UNL d   1     -41.253-121.982 -53.041  0.00  0.00    -0.198 OA
BRANCH  13  16
ATOM     16  C   UNL d   1     -41.869-122.885 -53.498  0.00  0.00     0.105 A 
ATOM     17  C   UNL d   1     -41.932-122.315 -54.072  0.00  0.00     0.013 A 
ATOM     18  C   UNL d   1     -42.294-122.471 -54.781  0.00  0.00     0.001 A 
ATOM     19  C   UNL d   1     -42.349-121.889 -55.343  0.00  0.00     0.000 A 
ATOM     20  C   UNL d   1     -42.618-123.245 -54.934  0.00  0.00     0.000 A 
ATOM     21  C   UNL d   1     -42.736-122.044 -56.107  0.00  0.00     0.000 A 
ATOM     22  C   UNL d   1     -43.049-122.805 -56.248  0.00  0.00     0.000 A 
ATOM     23  C   UNL d   1     -42.993-123.412 -55.663  0.00  0.00     0.000 A 
ATOM     24  C   UNL d   1     -42.541-123.798 -54.343  0.00  0.00     0.001 A 
ATOM     25  C   UNL d   1     -42.176-123.638 -53.631  0.00  0.00     0.013 A 
ENDBRANCH  13  16
ENDBRANCH  12  13
ENDBRANCH   2  12
BRANCH   1  26
ATOM     26  C   UNL d   1     -42.781-122.653 -49.703  0.00  0.00     0.110 C 
BRANCH  26  27
ATOM     27  C   UNL d   1     -42.335-123.117 -49.186  0.00  0.00     0.303 C 
ATOM     28  O   UNL d   1     -41.976-123.812 -49.449  0.00  0.00    -0.259 OA
BRANCH  27  29
ATOM     29  O   UNL d   1     -42.275-122.847 -48.415  0.00  0.00    -0.273 OA
BRANCH  29  30
ATOM     30  C   UNL d   1     -41.930-123.340 -47.850  0.00  0.00     0.103 C 
ATOM     31  C   UNL d   1     -41.154-123.529 -47.907  0.00  0.00     0.027 C 
ATOM     32  C   UNL d   1     -42.393-123.628 -47.235  0.00  0.00     0.027 C 
ENDBRANCH  29  30
ENDBRANCH  27  29
ENDBRANCH  26  27
BRANCH  26  33
ATOM     33  C   UNL d   1     -43.614-122.626 -49.662  0.00  0.00     0.272 C 
ATOM     34  O   UNL d   1     -43.971-122.022 -49.275  0.00  0.00    -0.282 OA
BRANCH  33  35
ATOM     35  C   UNL d   1     -44.055-123.216 -50.018  0.00  0.00     0.456 C 
ATOM     36  F   UNL d   1     -44.026-123.634 -49.285  0.00  0.00    -0.163 F 
ATOM     37  F   UNL d   1     -44.066-122.785 -50.720  0.00  0.00    -0.163 F 
ATOM     38  F   UNL d   1     -44.492-123.815 -50.348  0.00  0.00    -0.163 F 
ENDBRANCH  33  35
ENDBRANCH  26  33
ENDBRANCH   1  26
TORSDOF 9
ENDMDL
