MODEL 1
REMARK VINA RESULT:      41.7      0.000      0.000
REMARK  6 active torsions:
REMARK  status: ('A' for Active; 'I' for Inactive)
REMARK    1  A    between atoms: C_11  and  C_2 
REMARK    2  A    between atoms: S_9  and  C_7 
REMARK    3  A    between atoms: C_13  and  S_9 
REMARK    4  A    between atoms: C_10  and  C_13 
REMARK    5  A    between atoms: O_18  and  C_10 
REMARK    6  A    between atoms: C_23  and  O_18 
ROOT
ATOM      1  N   UNL d   1     -54.806-101.462 -44.299  0.00  0.00    -0.191 N 
ATOM      2  C   UNL d   1     -54.759-102.052 -43.732  0.00  0.00     0.187 A 
ATOM      3  N   UNL d   1     -54.721-102.772 -44.123  0.00  0.00    -0.127 NA
ATOM      4  C   UNL d   1     -54.798-101.803 -45.044  0.00  0.00     0.187 A 
ATOM      5  N   UNL d   1     -54.857-100.627 -44.230  0.00  0.00    -0.156 NA
ATOM      6  N   UNL d   1     -54.744-102.627 -44.935  0.00  0.00    -0.127 NA
ATOM      7  C   UNL d   1     -54.898-100.157 -44.908  0.00  0.00     0.131 A 
ATOM      8  C   UNL d   1     -54.839-101.333 -45.721  0.00  0.00     0.043 A 
ATOM      9  C   UNL d   1     -54.890-100.511 -45.653  0.00  0.00     0.031 A 
ENDROOT
BRANCH   7  10
ATOM     10  S   UNL d   1     -54.949 -99.336 -44.840  0.00  0.00    -0.061 SA
BRANCH  10  11
ATOM     11  C   UNL d   1     -55.529 -98.998 -44.363  0.00  0.00     0.094 C 
ATOM     12  C   UNL d   1     -55.364 -98.825 -43.581  0.00  0.00     0.013 C 
BRANCH  11  13
ATOM     13  C   UNL d   1     -56.267 -98.838 -44.672  0.00  0.00     0.306 C 
ATOM     14  O   UNL d   1     -56.366 -98.755 -45.488  0.00  0.00    -0.258 OA
BRANCH  13  15
ATOM     15  O   UNL d   1     -56.924 -98.755 -44.177  0.00  0.00    -0.271 OA
BRANCH  15  16
ATOM     16  C   UNL d   1     -57.671 -98.880 -44.465  0.00  0.00     0.126 C 
ATOM     17  C   UNL d   1     -58.306 -98.766 -43.970  0.00  0.00     0.029 C 
ENDBRANCH  15  16
ENDBRANCH  13  15
ENDBRANCH  11  13
ENDBRANCH  10  11
ENDBRANCH   7  10
BRANCH   2  18
ATOM     18  C   UNL d   1     -54.750-101.949 -42.919  0.00  0.00     0.038 A 
ATOM     19  C   UNL d   1     -54.767-102.614 -42.426  0.00  0.00     0.005 A 
ATOM     20  C   UNL d   1     -54.759-102.516 -41.603  0.00  0.00     0.030 A 
ATOM     21  C   UNL d   1     -54.734-101.756 -41.282  0.00  0.00     0.140 A 
ATOM     22  C   UNL d   1     -54.718-101.092 -41.775  0.00  0.00     0.030 A 
ATOM     23  F   UNL d   1     -54.726-101.655 -40.464  0.00  0.00    -0.204 F 
ATOM     24  C   UNL d   1     -54.726-101.197 -42.595  0.00  0.00     0.005 A 
ENDBRANCH   2  18
TORSDOF 6
ENDMDL
