MODEL 1
REMARK VINA RESULT:      -4.3      0.000      0.000
REMARK  3 active torsions:
REMARK  status: ('A' for Active; 'I' for Inactive)
REMARK    1  A    between atoms: C_2  and  C_1 
REMARK    2  A    between atoms: C_4  and  C_1 
REMARK    3  A    between atoms: C_3  and  C_2 
ROOT
ATOM      1  C   UNL d   1      56.870   0.308  32.839  0.00  0.00     0.000 A 
ATOM      2  C   UNL d   1      56.177   0.306  33.298  0.00  0.00     0.000 A 
ATOM      3  C   UNL d   1      56.216   0.489  34.082  0.00  0.00     0.000 A 
ATOM      4  C   UNL d   1      57.640   0.682  33.984  0.00  0.00     0.000 A 
ATOM      5  C   UNL d   1      57.600   0.495  33.182  0.00  0.00     0.000 A 
ATOM      6  C   UNL d   1      55.466   0.121  32.953  0.00  0.00     0.000 A 
ATOM      7  C   UNL d   1      56.951   0.681  34.444  0.00  0.00     0.000 A 
ATOM      8  C   UNL d   1      55.547   0.495  34.558  0.00  0.00     0.000 A 
ATOM      9  C   UNL d   1      54.781   0.121  33.411  0.00  0.00     0.000 A 
ATOM     10  C   UNL d   1      54.821   0.308  34.214  0.00  0.00     0.000 A 
ENDROOT
BRANCH   1  11
ATOM     11  C   UNL d   1      56.829   0.121  32.035  0.00  0.00     0.006 C 
BRANCH  11  12
ATOM     12  C   UNL d   1      57.475   0.224  31.555  0.00  0.00     0.070 C 
BRANCH  12  13
ATOM     13  C   UNL d   1      57.450  -0.012  30.754  0.00  0.00     0.211 C 
ATOM     14  O   UNL d   1      57.491  -0.800  30.545  0.00  0.00    -0.644 OA
ATOM     15  O   UNL d   1      57.384   0.549  30.151  0.00  0.00    -0.644 OA
ENDBRANCH  12  13
ENDBRANCH  11  12
ENDBRANCH   1  11
TORSDOF 3
ENDMDL
MODEL 2
REMARK VINA RESULT:      -3.5      2.289      3.535
REMARK  3 active torsions:
REMARK  status: ('A' for Active; 'I' for Inactive)
REMARK    1  A    between atoms: C_2  and  C_1 
REMARK    2  A    between atoms: C_4  and  C_1 
REMARK    3  A    between atoms: C_3  and  C_2 
ROOT
ATOM      1  C   UNL d   1      56.005  -0.337  33.407  0.00  0.00     0.000 A 
ATOM      2  C   UNL d   1      56.578  -0.160  32.831  0.00  0.00     0.000 A 
ATOM      3  C   UNL d   1      56.679  -0.654  32.203  0.00  0.00     0.000 A 
ATOM      4  C   UNL d   1      55.642  -1.523  32.697  0.00  0.00     0.000 A 
ATOM      5  C   UNL d   1      55.539  -1.017  33.340  0.00  0.00     0.000 A 
ATOM      6  C   UNL d   1      57.031   0.510  32.906  0.00  0.00     0.000 A 
ATOM      7  C   UNL d   1      56.212  -1.349  32.121  0.00  0.00     0.000 A 
ATOM      8  C   UNL d   1      57.237  -0.503  31.620  0.00  0.00     0.000 A 
ATOM      9  C   UNL d   1      57.598   0.682  32.333  0.00  0.00     0.000 A 
ATOM     10  C   UNL d   1      57.701   0.175  31.690  0.00  0.00     0.000 A 
ENDROOT
BRANCH   1  11
ATOM     11  C   UNL d   1      55.902   0.170  34.051  0.00  0.00     0.006 C 
BRANCH  11  12
ATOM     12  C   UNL d   1      55.603  -0.109  34.752  0.00  0.00     0.070 C 
BRANCH  12  13
ATOM     13  C   UNL d   1      55.430   0.416  35.379  0.00  0.00     0.211 C 
ATOM     14  O   UNL d   1      54.670   0.682  35.508  0.00  0.00    -0.644 OA
ATOM     15  O   UNL d   1      56.027   0.679  35.885  0.00  0.00    -0.644 OA
ENDBRANCH  12  13
ENDBRANCH  11  12
ENDBRANCH   1  11
TORSDOF 3
ENDMDL
MODEL 3
REMARK VINA RESULT:      -3.3      2.782      4.119
REMARK  3 active torsions:
REMARK  status: ('A' for Active; 'I' for Inactive)
REMARK    1  A    between atoms: C_2  and  C_1 
REMARK    2  A    between atoms: C_4  and  C_1 
REMARK    3  A    between atoms: C_3  and  C_2 
ROOT
ATOM      1  C   UNL d   1      58.531  -0.964  29.562  0.00  0.00     0.000 A 
ATOM      2  C   UNL d   1      58.090  -0.553  30.135  0.00  0.00     0.000 A 
ATOM      3  C   UNL d   1      58.040   0.251  30.100  0.00  0.00     0.000 A 
ATOM      4  C   UNL d   1      58.866   0.270  28.920  0.00  0.00     0.000 A 
ATOM      5  C   UNL d   1      58.918  -0.553  28.956  0.00  0.00     0.000 A 
ATOM      6  C   UNL d   1      57.715  -0.964  30.725  0.00  0.00     0.000 A 
ATOM      7  C   UNL d   1      58.428   0.681  29.490  0.00  0.00     0.000 A 
ATOM      8  C   UNL d   1      57.612   0.681  30.653  0.00  0.00     0.000 A 
ATOM      9  C   UNL d   1      57.279  -0.553  31.291  0.00  0.00     0.000 A 
ATOM     10  C   UNL d   1      57.227   0.270  31.255  0.00  0.00     0.000 A 
ENDROOT
BRANCH   1  11
ATOM     11  C   UNL d   1      58.582  -1.787  29.598  0.00  0.00     0.006 C 
BRANCH  11  12
ATOM     12  C   UNL d   1      58.980  -2.201  29.024  0.00  0.00     0.070 C 
BRANCH  12  13
ATOM     13  C   UNL d   1      59.064  -3.031  29.080  0.00  0.00     0.211 C 
ATOM     14  O   UNL d   1      58.457  -3.531  28.861  0.00  0.00    -0.644 OA
ATOM     15  O   UNL d   1      59.765  -3.365  29.359  0.00  0.00    -0.644 OA
ENDBRANCH  12  13
ENDBRANCH  11  12
ENDBRANCH   1  11
TORSDOF 3
ENDMDL
MODEL 4
REMARK VINA RESULT:      -2.9      3.900      5.698
REMARK  3 active torsions:
REMARK  status: ('A' for Active; 'I' for Inactive)
REMARK    1  A    between atoms: C_2  and  C_1 
REMARK    2  A    between atoms: C_4  and  C_1 
REMARK    3  A    between atoms: C_3  and  C_2 
ROOT
ATOM      1  C   UNL d   1      59.501  -1.458  29.137  0.00  0.00     0.000 A 
ATOM      2  C   UNL d   1      59.503  -2.267  28.946  0.00  0.00     0.000 A 
ATOM      3  C   UNL d   1      60.203  -2.646  28.821  0.00  0.00     0.000 A 
ATOM      4  C   UNL d   1      60.930  -1.428  29.072  0.00  0.00     0.000 A 
ATOM      5  C   UNL d   1      60.213  -1.040  29.200  0.00  0.00     0.000 A 
ATOM      6  C   UNL d   1      58.801  -2.668  28.887  0.00  0.00     0.000 A 
ATOM      7  C   UNL d   1      60.935  -2.234  28.881  0.00  0.00     0.000 A 
ATOM      8  C   UNL d   1      60.234  -3.445  28.630  0.00  0.00     0.000 A 
ATOM      9  C   UNL d   1      58.807  -3.470  28.697  0.00  0.00     0.000 A 
ATOM     10  C   UNL d   1      59.523  -3.859  28.569  0.00  0.00     0.000 A 
ENDROOT
BRANCH   1  11
ATOM     11  C   UNL d   1      58.784  -1.069  29.266  0.00  0.00     0.006 C 
BRANCH  11  12
ATOM     12  C   UNL d   1      58.772  -0.298  29.518  0.00  0.00     0.070 C 
BRANCH  12  13
ATOM     13  C   UNL d   1      58.046   0.101  29.629  0.00  0.00     0.211 C 
ATOM     14  O   UNL d   1      57.632   0.034  30.328  0.00  0.00    -0.644 OA
ATOM     15  O   UNL d   1      57.730   0.575  29.031  0.00  0.00    -0.644 OA
ENDBRANCH  12  13
ENDBRANCH  11  12
ENDBRANCH   1  11
TORSDOF 3
ENDMDL
MODEL 5
REMARK VINA RESULT:      -2.3      2.321      4.769
REMARK  3 active torsions:
REMARK  status: ('A' for Active; 'I' for Inactive)
REMARK    1  A    between atoms: C_2  and  C_1 
REMARK    2  A    between atoms: C_4  and  C_1 
REMARK    3  A    between atoms: C_3  and  C_2 
ROOT
ATOM      1  C   UNL d   1      58.552   0.402  29.996  0.00  0.00     0.000 A 
ATOM      2  C   UNL d   1      59.377   0.497  29.977  0.00  0.00     0.000 A 
ATOM      3  C   UNL d   1      59.759   0.531  29.269  0.00  0.00     0.000 A 
ATOM      4  C   UNL d   1      58.511   0.380  28.566  0.00  0.00     0.000 A 
ATOM      5  C   UNL d   1      58.120   0.344  29.292  0.00  0.00     0.000 A 
ATOM      6  C   UNL d   1      59.792   0.553  30.672  0.00  0.00     0.000 A 
ATOM      7  C   UNL d   1      59.334   0.474  28.545  0.00  0.00     0.000 A 
ATOM      8  C   UNL d   1      60.575   0.624  29.221  0.00  0.00     0.000 A 
ATOM      9  C   UNL d   1      60.611   0.646  30.650  0.00  0.00     0.000 A 
ATOM     10  C   UNL d   1      61.002   0.682  29.924  0.00  0.00     0.000 A 
ENDROOT
BRANCH   1  11
ATOM     11  C   UNL d   1      58.160   0.367  30.722  0.00  0.00     0.006 C 
BRANCH  11  12
ATOM     12  C   UNL d   1      57.389   0.118  30.763  0.00  0.00     0.070 C 
BRANCH  12  13
ATOM     13  C   UNL d   1      57.009   0.032  31.502  0.00  0.00     0.211 C 
ATOM     14  O   UNL d   1      56.973  -0.692  31.876  0.00  0.00    -0.644 OA
ATOM     15  O   UNL d   1      56.659   0.681  31.874  0.00  0.00    -0.644 OA
ENDBRANCH  12  13
ENDBRANCH  11  12
ENDBRANCH   1  11
TORSDOF 3
ENDMDL
