MODEL 1
REMARK VINA RESULT:      -5.4      0.000      0.000
REMARK  2 active torsions:
REMARK  status: ('A' for Active; 'I' for Inactive)
REMARK    1  A    between atoms: C_3  and  C_1 
REMARK       I    between atoms: N_6  and  C_3 
REMARK    2  A    between atoms: C_12  and  N_6 
ROOT
ATOM      1  C   UNL d   1      56.226  -0.756  32.486  0.00  0.00     0.008 A 
ATOM      2  S   UNL d   1      55.585  -0.143  33.458  0.00  0.00    -0.086 SA
ATOM      3  C   UNL d   1      56.023  -0.023  32.788  0.00  0.00     0.030 A 
ATOM      4  C   UNL d   1      55.514  -0.932  33.576  0.00  0.00     0.035 A 
ATOM      5  C   UNL d   1      56.928  -0.116  31.405  0.00  0.00     0.085 A 
ATOM      6  C   UNL d   1      56.678  -0.800  31.794  0.00  0.00     0.020 A 
ATOM      7  C   UNL d   1      55.908  -1.327  32.978  0.00  0.00     0.007 A 
ATOM      8  C   UNL d   1      56.273   0.682  32.398  0.00  0.00     0.008 A 
ATOM      9  C   UNL d   1      56.725   0.625  31.707  0.00  0.00     0.020 A 
ENDROOT
BRANCH   5  10
ATOM     10  N   UNL d   1      57.380  -0.173  30.714  0.00  0.00    -0.208 NA
ATOM     11  C   UNL d   1      58.165   0.079  30.713  0.00  0.00     0.285 C 
ATOM     12  O   UNL d   1      58.496   0.387  31.399  0.00  0.00    -0.265 OA
BRANCH  11  13
ATOM     13  C   UNL d   1      58.614   0.023  30.028  0.00  0.00     0.088 A 
ATOM     14  S   UNL d   1      59.171   0.593  29.751  0.00  0.00    -0.071 SA
ATOM     15  C   UNL d   1      59.496   0.316  29.043  0.00  0.00     0.087 A 
ATOM     16 CL   UNL d   1      60.029   0.675  28.612  0.00  0.00    -0.075 Cl
ATOM     17  C   UNL d   1      59.127  -0.450  28.878  0.00  0.00     0.019 A 
ATOM     18  C   UNL d   1      58.598  -0.619  29.475  0.00  0.00     0.013 A 
ENDBRANCH  11  13
ENDBRANCH   5  10
TORSDOF 2
ENDMDL
MODEL 2
REMARK VINA RESULT:      -5.2      1.895      4.210
REMARK  2 active torsions:
REMARK  status: ('A' for Active; 'I' for Inactive)
REMARK    1  A    between atoms: C_3  and  C_1 
REMARK       I    between atoms: N_6  and  C_3 
REMARK    2  A    between atoms: C_12  and  N_6 
ROOT
ATOM      1  C   UNL d   1      58.554  -0.768  29.925  0.00  0.00     0.008 A 
ATOM      2  S   UNL d   1      59.471  -0.108  29.250  0.00  0.00    -0.086 SA
ATOM      3  C   UNL d   1      58.845  -0.022  29.755  0.00  0.00     0.030 A 
ATOM      4  C   UNL d   1      59.572  -0.889  29.103  0.00  0.00     0.035 A 
ATOM      5  C   UNL d   1      57.550  -0.184  30.774  0.00  0.00     0.085 A 
ATOM      6  C   UNL d   1      57.907  -0.846  30.434  0.00  0.00     0.020 A 
ATOM      7  C   UNL d   1      59.008  -1.313  29.517  0.00  0.00     0.007 A 
ATOM      8  C   UNL d   1      58.488   0.661  30.097  0.00  0.00     0.008 A 
ATOM      9  C   UNL d   1      57.841   0.570  30.605  0.00  0.00     0.020 A 
ENDROOT
BRANCH   5  10
ATOM     10  N   UNL d   1      56.903  -0.275  31.282  0.00  0.00    -0.208 NA
ATOM     11  C   UNL d   1      56.984  -0.114  32.087  0.00  0.00     0.285 C 
ATOM     12  O   UNL d   1      57.708   0.137  32.382  0.00  0.00    -0.265 OA
BRANCH  11  13
ATOM     13  C   UNL d   1      56.342  -0.205  32.591  0.00  0.00     0.088 A 
ATOM     14  S   UNL d   1      56.025   0.388  33.101  0.00  0.00    -0.071 SA
ATOM     15  C   UNL d   1      55.383   0.062  33.508  0.00  0.00     0.087 A 
ATOM     16 CL   UNL d   1      54.940   0.424  34.030  0.00  0.00    -0.075 Cl
ATOM     17  C   UNL d   1      55.303  -0.757  33.240  0.00  0.00     0.019 A 
ATOM     18  C   UNL d   1      55.884  -0.910  32.688  0.00  0.00     0.013 A 
ENDBRANCH  11  13
ENDBRANCH   5  10
TORSDOF 2
ENDMDL
MODEL 3
REMARK VINA RESULT:      -5.1      0.838      1.241
REMARK  2 active torsions:
REMARK  status: ('A' for Active; 'I' for Inactive)
REMARK    1  A    between atoms: C_3  and  C_1 
REMARK       I    between atoms: N_6  and  C_3 
REMARK    2  A    between atoms: C_12  and  N_6 
ROOT
ATOM      1  C   UNL d   1      56.209   0.227  33.050  0.00  0.00     0.008 A 
ATOM      2  S   UNL d   1      55.227  -0.497  33.544  0.00  0.00    -0.086 SA
ATOM      3  C   UNL d   1      55.840  -0.503  33.015  0.00  0.00     0.030 A 
ATOM      4  C   UNL d   1      55.209   0.219  33.903  0.00  0.00     0.035 A 
ATOM      5  C   UNL d   1      57.145  -0.198  32.043  0.00  0.00     0.085 A 
ATOM      6  C   UNL d   1      56.861   0.377  32.563  0.00  0.00     0.020 A 
ATOM      7  C   UNL d   1      55.815   0.682  33.605  0.00  0.00     0.007 A 
ATOM      8  C   UNL d   1      56.123  -1.097  32.488  0.00  0.00     0.008 A 
ATOM      9  C   UNL d   1      56.776  -0.935  32.006  0.00  0.00     0.020 A 
ENDROOT
BRANCH   5  10
ATOM     10  N   UNL d   1      57.798  -0.035  31.561  0.00  0.00    -0.208 NA
ATOM     11  C   UNL d   1      57.686   0.185  30.774  0.00  0.00     0.285 C 
ATOM     12  O   UNL d   1      56.924   0.243  30.471  0.00  0.00    -0.265 OA
BRANCH  11  13
ATOM     13  C   UNL d   1      58.333   0.346  30.296  0.00  0.00     0.088 A 
ATOM     14  S   UNL d   1      58.346   0.318  29.453  0.00  0.00    -0.071 SA
ATOM     15  C   UNL d   1      59.107   0.518  29.199  0.00  0.00     0.087 A 
ATOM     16 CL   UNL d   1      59.350   0.558  28.464  0.00  0.00    -0.075 Cl
ATOM     17  C   UNL d   1      59.578   0.675  29.909  0.00  0.00     0.019 A 
ATOM     18  C   UNL d   1      59.105   0.569  30.564  0.00  0.00     0.013 A 
ENDBRANCH  11  13
ENDBRANCH   5  10
TORSDOF 2
ENDMDL
MODEL 4
REMARK VINA RESULT:      -5.1      1.858      4.263
REMARK  2 active torsions:
REMARK  status: ('A' for Active; 'I' for Inactive)
REMARK    1  A    between atoms: C_3  and  C_1 
REMARK       I    between atoms: N_6  and  C_3 
REMARK    2  A    between atoms: C_12  and  N_6 
ROOT
ATOM      1  C   UNL d   1      59.293   0.498  30.099  0.00  0.00     0.008 A 
ATOM      2  S   UNL d   1      59.613   0.681  28.836  0.00  0.00    -0.086 SA
ATOM      3  C   UNL d   1      58.990   0.617  29.349  0.00  0.00     0.030 A 
ATOM      4  C   UNL d   1      60.293   0.603  29.253  0.00  0.00     0.035 A 
ATOM      5  C   UNL d   1      57.958   0.448  30.631  0.00  0.00     0.085 A 
ATOM      6  C   UNL d   1      58.776   0.414  30.739  0.00  0.00     0.020 A 
ATOM      7  C   UNL d   1      60.110   0.489  30.042  0.00  0.00     0.007 A 
ATOM      8  C   UNL d   1      58.156   0.654  29.228  0.00  0.00     0.008 A 
ATOM      9  C   UNL d   1      57.648   0.568  29.876  0.00  0.00     0.020 A 
ENDROOT
BRANCH   5  10
ATOM     10  N   UNL d   1      57.450   0.362  31.279  0.00  0.00    -0.208 NA
ATOM     11  C   UNL d   1      57.121  -0.375  31.451  0.00  0.00     0.285 C 
ATOM     12  O   UNL d   1      57.299  -1.021  30.978  0.00  0.00    -0.265 OA
BRANCH  11  13
ATOM     13  C   UNL d   1      56.617  -0.460  32.094  0.00  0.00     0.088 A 
ATOM     14  S   UNL d   1      56.360   0.158  32.608  0.00  0.00    -0.071 SA
ATOM     15  C   UNL d   1      55.859  -0.170  33.178  0.00  0.00     0.087 A 
ATOM     16 CL   UNL d   1      55.506   0.211  33.752  0.00  0.00    -0.075 Cl
ATOM     17  C   UNL d   1      55.806  -1.018  33.010  0.00  0.00     0.019 A 
ATOM     18  C   UNL d   1      56.265  -1.184  32.356  0.00  0.00     0.013 A 
ENDBRANCH  11  13
ENDBRANCH   5  10
TORSDOF 2
ENDMDL
