MODEL 1
REMARK VINA RESULT:      -6.2      0.000      0.000
REMARK  1 active torsions:
REMARK  status: ('A' for Active; 'I' for Inactive)
REMARK    1  A    between atoms: C_7  and  C_1 
ROOT
ATOM      1  C   UNL d   1      57.384  -0.036  31.113  0.00  0.00     0.102 A 
ATOM      2  C   UNL d   1      57.312  -0.857  31.046  0.00  0.00     0.303 A 
ATOM      3  C   UNL d   1      56.983   0.359  31.721  0.00  0.00     0.011 A 
ATOM      4  O   UNL d   1      56.838  -1.284  31.587  0.00  0.00    -0.273 OA
ATOM      5  C   UNL d   1      56.519  -0.053  32.253  0.00  0.00     0.023 A 
ATOM      6  C   UNL d   1      56.447  -0.874  32.186  0.00  0.00     0.103 A 
ATOM      7  O   UNL d   1      57.718  -1.267  30.428  0.00  0.00    -0.259 OA
ATOM      8  C   UNL d   1      56.126   0.342  32.851  0.00  0.00     0.002 A 
ATOM      9  C   UNL d   1      55.981  -1.301  32.717  0.00  0.00     0.025 A 
ATOM     10  C   UNL d   1      55.665  -0.070  33.379  0.00  0.00     0.000 A 
ATOM     11  C   UNL d   1      55.593  -0.891  33.312  0.00  0.00     0.002 A 
ENDROOT
BRANCH   1  12
ATOM     12  C   UNL d   1      57.862   0.376  30.562  0.00  0.00     0.201 C 
ATOM     13  O   UNL d   1      57.513   0.682  29.878  0.00  0.00    -0.286 OA
ATOM     14  C   UNL d   1      58.663   0.480  30.690  0.00  0.00     0.045 C 
ENDBRANCH   1  12
TORSDOF 1
ENDMDL
MODEL 2
REMARK VINA RESULT:      -5.6      1.054      2.813
REMARK  1 active torsions:
REMARK  status: ('A' for Active; 'I' for Inactive)
REMARK    1  A    between atoms: C_7  and  C_1 
ROOT
ATOM      1  C   UNL d   1      56.058  -0.265  32.775  0.00  0.00     0.102 A 
ATOM      2  C   UNL d   1      56.155  -1.062  32.579  0.00  0.00     0.303 A 
ATOM      3  C   UNL d   1      56.443   0.314  32.325  0.00  0.00     0.011 A 
ATOM      4  O   UNL d   1      56.638  -1.282  31.933  0.00  0.00    -0.273 OA
ATOM      5  C   UNL d   1      56.916   0.107  31.693  0.00  0.00     0.023 A 
ATOM      6  C   UNL d   1      57.014  -0.691  31.496  0.00  0.00     0.103 A 
ATOM      7  O   UNL d   1      55.765  -1.659  33.034  0.00  0.00    -0.259 OA
ATOM      8  C   UNL d   1      57.294   0.682  31.252  0.00  0.00     0.002 A 
ATOM      9  C   UNL d   1      57.489  -0.914  30.860  0.00  0.00     0.025 A 
ATOM     10  C   UNL d   1      57.764   0.473  30.623  0.00  0.00     0.000 A 
ATOM     11  C   UNL d   1      57.861  -0.324  30.427  0.00  0.00     0.002 A 
ENDROOT
BRANCH   1  12
ATOM     12  C   UNL d   1      55.570  -0.063  33.427  0.00  0.00     0.201 C 
ATOM     13  O   UNL d   1      54.749  -0.087  33.334  0.00  0.00    -0.286 OA
ATOM     14  C   UNL d   1      55.892   0.155  34.146  0.00  0.00     0.045 C 
ENDBRANCH   1  12
TORSDOF 1
ENDMDL
MODEL 3
REMARK VINA RESULT:      -4.6      1.278      3.107
REMARK  1 active torsions:
REMARK  status: ('A' for Active; 'I' for Inactive)
REMARK    1  A    between atoms: C_7  and  C_1 
ROOT
ATOM      1  C   UNL d   1      56.469  -0.419  32.664  0.00  0.00     0.102 A 
ATOM      2  C   UNL d   1      56.920   0.172  33.028  0.00  0.00     0.303 A 
ATOM      3  C   UNL d   1      56.642  -0.638  31.884  0.00  0.00     0.011 A 
ATOM      4  O   UNL d   1      57.543   0.543  32.613  0.00  0.00    -0.273 OA
ATOM      5  C   UNL d   1      57.249  -0.279  31.473  0.00  0.00     0.023 A 
ATOM      6  C   UNL d   1      57.700   0.311  31.837  0.00  0.00     0.103 A 
ATOM      7  O   UNL d   1      56.750   0.401  33.825  0.00  0.00    -0.259 OA
ATOM      8  C   UNL d   1      57.414  -0.499  30.703  0.00  0.00     0.002 A 
ATOM      9  C   UNL d   1      58.316   0.682  31.432  0.00  0.00     0.025 A 
ATOM     10  C   UNL d   1      58.019  -0.141  30.296  0.00  0.00     0.000 A 
ATOM     11  C   UNL d   1      58.470   0.450  30.660  0.00  0.00     0.002 A 
ENDROOT
BRANCH   1  12
ATOM     12  C   UNL d   1      55.849  -0.780  33.096  0.00  0.00     0.201 C 
ATOM     13  O   UNL d   1      55.909  -1.582  33.289  0.00  0.00    -0.286 OA
ATOM     14  C   UNL d   1      55.189  -0.355  33.327  0.00  0.00     0.045 C 
ENDBRANCH   1  12
TORSDOF 1
ENDMDL
