MODEL 1
REMARK VINA RESULT:      -8.3      0.000      0.000
REMARK  6 active torsions:
REMARK  status: ('A' for Active; 'I' for Inactive)
REMARK    1  A    between atoms: O_8  and  C_1 
REMARK    2  A    between atoms: C_2  and  C_3 
REMARK    3  A    between atoms: C_3  and  O_8 
REMARK    4  A    between atoms: C_4  and  S_17 
REMARK    5  A    between atoms: C_23  and  C_14 
REMARK    6  A    between atoms: S_17  and  C_23 
ROOT
ATOM      1  C   UNL d   1      51.706  33.552  53.211  0.00  0.00     0.167 A 
ATOM      2  C   UNL d   1      51.771  34.336  52.947  0.00  0.00     0.222 A 
ATOM      3  C   UNL d   1      51.081  34.731  52.711  0.00  0.00     0.069 A 
ATOM      4  C   UNL d   1      50.972  33.176  53.239  0.00  0.00     0.151 A 
ATOM      5  C   UNL d   1      50.348  34.355  52.739  0.00  0.00     0.110 A 
ATOM      6  O   UNL d   1      50.297  33.578  53.003  0.00  0.00    -0.302 OA
ATOM      7  O   UNL d   1      52.498  34.709  52.919  0.00  0.00    -0.284 OA
ENDROOT
BRANCH   5   8
ATOM      8  C   UNL d   1      49.669  34.756  52.503  0.00  0.00     0.063 C 
BRANCH   8   9
ATOM      9  S   UNL d   1      49.400  35.135  53.187  0.00  0.00    -0.046 SA
BRANCH   9  10
ATOM     10  C   UNL d   1      48.702  35.563  53.171  0.00  0.00     0.194 A 
ATOM     11  N   UNL d   1      48.430  35.923  53.859  0.00  0.00    -0.221 NA
ATOM     12  C   UNL d   1      47.736  36.348  53.846  0.00  0.00     0.085 A 
ATOM     13  C   UNL d   1      47.464  36.708  54.534  0.00  0.00     0.021 C 
ATOM     14  C   UNL d   1      47.304  36.420  53.146  0.00  0.00     0.038 A 
ATOM     15  C   UNL d   1      47.588  36.054  52.462  0.00  0.00     0.085 A 
ATOM     16  N   UNL d   1      48.284  35.630  52.484  0.00  0.00    -0.221 NA
ATOM     17  C   UNL d   1      47.156  36.126  51.762  0.00  0.00     0.021 C 
ENDBRANCH   9  10
ENDBRANCH   8   9
ENDBRANCH   5   8
BRANCH   1  18
ATOM     18  O   UNL d   1      52.249  32.990  53.484  0.00  0.00    -0.266 OA
BRANCH  18  19
ATOM     19  C   UNL d   1      52.570  32.437  52.964  0.00  0.00     0.323 C 
ATOM     20  O   UNL d   1      52.497  32.547  52.165  0.00  0.00    -0.257 OA
BRANCH  19  21
ATOM     21  C   UNL d   1      52.968  31.766  53.251  0.00  0.00     0.164 A 
ATOM     22  O   UNL d   1      52.710  31.001  53.154  0.00  0.00    -0.295 OA
ATOM     23  C   UNL d   1      53.268  30.520  53.521  0.00  0.00     0.134 A 
ATOM     24 BR   UNL d   1      53.227  29.702  53.557  0.00  0.00    -0.022 Br
ATOM     25  C   UNL d   1      53.842  30.982  53.828  0.00  0.00     0.034 A 
ATOM     26  C   UNL d   1      53.655  31.756  53.659  0.00  0.00     0.033 A 
ENDBRANCH  19  21
ENDBRANCH  18  19
ENDBRANCH   1  18
TORSDOF 6
ENDMDL
MODEL 2
REMARK VINA RESULT:      -8.1      1.270      1.505
REMARK  6 active torsions:
REMARK  status: ('A' for Active; 'I' for Inactive)
REMARK    1  A    between atoms: O_8  and  C_1 
REMARK    2  A    between atoms: C_2  and  C_3 
REMARK    3  A    between atoms: C_3  and  O_8 
REMARK    4  A    between atoms: C_4  and  S_17 
REMARK    5  A    between atoms: C_23  and  C_14 
REMARK    6  A    between atoms: S_17  and  C_23 
ROOT
ATOM      1  C   UNL d   1      51.559  34.202  52.804  0.00  0.00     0.167 A 
ATOM      2  C   UNL d   1      51.245  34.250  52.038  0.00  0.00     0.222 A 
ATOM      3  C   UNL d   1      50.433  34.403  51.954  0.00  0.00     0.069 A 
ATOM      4  C   UNL d   1      51.078  34.303  53.466  0.00  0.00     0.151 A 
ATOM      5  C   UNL d   1      49.952  34.504  52.616  0.00  0.00     0.110 A 
ATOM      6  O   UNL d   1      50.277  34.454  53.369  0.00  0.00    -0.302 OA
ATOM      7  O   UNL d   1      51.722  34.150  51.382  0.00  0.00    -0.284 OA
ENDROOT
BRANCH   5   8
ATOM      8  C   UNL d   1      49.149  34.656  52.522  0.00  0.00     0.063 C 
BRANCH   8   9
ATOM      9  S   UNL d   1      49.027  35.385  52.893  0.00  0.00    -0.046 SA
BRANCH   9  10
ATOM     10  C   UNL d   1      48.276  35.711  52.920  0.00  0.00     0.194 A 
ATOM     11  N   UNL d   1      48.004  36.048  53.620  0.00  0.00    -0.221 NA
ATOM     12  C   UNL d   1      47.258  36.373  53.649  0.00  0.00     0.085 A 
ATOM     13  C   UNL d   1      46.986  36.709  54.348  0.00  0.00     0.021 C 
ATOM     14  C   UNL d   1      46.773  36.367  52.980  0.00  0.00     0.038 A 
ATOM     15  C   UNL d   1      47.060  36.025  52.284  0.00  0.00     0.085 A 
ATOM     16  N   UNL d   1      47.808  35.702  52.263  0.00  0.00    -0.221 NA
ATOM     17  C   UNL d   1      46.575  36.019  51.615  0.00  0.00     0.021 C 
ENDBRANCH   9  10
ENDBRANCH   8   9
ENDBRANCH   5   8
BRANCH   1  18
ATOM     18  O   UNL d   1      52.318  34.062  53.107  0.00  0.00    -0.266 OA
BRANCH  18  19
ATOM     19  C   UNL d   1      52.533  33.305  53.351  0.00  0.00     0.323 C 
ATOM     20  O   UNL d   1      52.016  32.689  53.256  0.00  0.00    -0.257 OA
BRANCH  19  21
ATOM     21  C   UNL d   1      53.277  33.166  53.696  0.00  0.00     0.164 A 
ATOM     22  O   UNL d   1      53.564  33.562  54.346  0.00  0.00    -0.295 OA
ATOM     23  C   UNL d   1      54.311  33.251  54.495  0.00  0.00     0.134 A 
ATOM     24 BR   UNL d   1      54.803  33.490  55.105  0.00  0.00    -0.022 Br
ATOM     25  C   UNL d   1      54.467  32.687  53.951  0.00  0.00     0.034 A 
ATOM     26  C   UNL d   1      53.823  32.635  53.455  0.00  0.00     0.033 A 
ENDBRANCH  19  21
ENDBRANCH  18  19
ENDBRANCH   1  18
TORSDOF 6
ENDMDL
MODEL 3
REMARK VINA RESULT:      -8.0      2.825      5.902
REMARK  6 active torsions:
REMARK  status: ('A' for Active; 'I' for Inactive)
REMARK    1  A    between atoms: O_8  and  C_1 
REMARK    2  A    between atoms: C_2  and  C_3 
REMARK    3  A    between atoms: C_3  and  O_8 
REMARK    4  A    between atoms: C_4  and  S_17 
REMARK    5  A    between atoms: C_23  and  C_14 
REMARK    6  A    between atoms: S_17  and  C_23 
ROOT
ATOM      1  C   UNL d   1      49.731  34.556  52.436  0.00  0.00     0.167 A 
ATOM      2  C   UNL d   1      50.258  34.407  51.814  0.00  0.00     0.222 A 
ATOM      3  C   UNL d   1      51.050  34.242  51.999  0.00  0.00     0.069 A 
ATOM      4  C   UNL d   1      49.987  34.541  53.220  0.00  0.00     0.151 A 
ATOM      5  C   UNL d   1      51.307  34.228  52.783  0.00  0.00     0.110 A 
ATOM      6  O   UNL d   1      50.773  34.377  53.389  0.00  0.00    -0.302 OA
ATOM      7  O   UNL d   1      50.004  34.422  51.037  0.00  0.00    -0.284 OA
ENDROOT
BRANCH   5   8
ATOM      8  C   UNL d   1      52.094  34.064  52.955  0.00  0.00     0.063 C 
BRANCH   8   9
ATOM      9  S   UNL d   1      52.066  33.427  53.483  0.00  0.00    -0.046 SA
BRANCH   9  10
ATOM     10  C   UNL d   1      52.757  33.057  53.718  0.00  0.00     0.194 A 
ATOM     11  N   UNL d   1      52.925  32.298  53.450  0.00  0.00    -0.221 NA
ATOM     12  C   UNL d   1      53.612  31.929  53.682  0.00  0.00     0.085 A 
ATOM     13  C   UNL d   1      53.779  31.170  53.414  0.00  0.00     0.021 C 
ATOM     14  C   UNL d   1      54.142  32.313  54.186  0.00  0.00     0.038 A 
ATOM     15  C   UNL d   1      53.962  33.075  54.448  0.00  0.00     0.085 A 
ATOM     16  N   UNL d   1      53.272  33.438  54.210  0.00  0.00    -0.221 NA
ATOM     17  C   UNL d   1      54.492  33.459  54.952  0.00  0.00     0.021 C 
ENDBRANCH   9  10
ENDBRANCH   8   9
ENDBRANCH   5   8
BRANCH   1  18
ATOM     18  O   UNL d   1      48.923  34.736  52.476  0.00  0.00    -0.266 OA
BRANCH  18  19
ATOM     19  C   UNL d   1      48.675  35.473  52.748  0.00  0.00     0.323 C 
ATOM     20  O   UNL d   1      49.159  35.906  53.233  0.00  0.00    -0.257 OA
BRANCH  19  21
ATOM     21  C   UNL d   1      47.934  35.779  52.530  0.00  0.00     0.164 A 
ATOM     22  O   UNL d   1      47.426  35.424  52.003  0.00  0.00    -0.295 OA
ATOM     23  C   UNL d   1      46.766  35.912  51.953  0.00  0.00     0.134 A 
ATOM     24 BR   UNL d   1      46.111  35.765  51.482  0.00  0.00    -0.022 Br
ATOM     25  C   UNL d   1      46.874  36.539  52.435  0.00  0.00     0.034 A 
ATOM     26  C   UNL d   1      47.600  36.456  52.793  0.00  0.00     0.033 A 
ENDBRANCH  19  21
ENDBRANCH  18  19
ENDBRANCH   1  18
TORSDOF 6
ENDMDL
MODEL 4
REMARK VINA RESULT:      -6.0      9.647     10.305
REMARK  6 active torsions:
REMARK  status: ('A' for Active; 'I' for Inactive)
REMARK    1  A    between atoms: O_8  and  C_1 
REMARK    2  A    between atoms: C_2  and  C_3 
REMARK    3  A    between atoms: C_3  and  O_8 
REMARK    4  A    between atoms: C_4  and  S_17 
REMARK    5  A    between atoms: C_23  and  C_14 
REMARK    6  A    between atoms: S_17  and  C_23 
ROOT
ATOM      1  C   UNL d   1      44.715  26.201  57.371  0.00  0.00     0.167 A 
ATOM      2  C   UNL d   1      44.983  26.247  58.154  0.00  0.00     0.222 A 
ATOM      3  C   UNL d   1      45.214  26.987  58.449  0.00  0.00     0.069 A 
ATOM      4  C   UNL d   1      44.679  26.874  56.896  0.00  0.00     0.151 A 
ATOM      5  C   UNL d   1      45.178  27.661  57.974  0.00  0.00     0.110 A 
ATOM      6  O   UNL d   1      44.910  27.601  57.200  0.00  0.00    -0.302 OA
ATOM      7  O   UNL d   1      45.019  25.580  58.625  0.00  0.00    -0.284 OA
ENDROOT
BRANCH   5   8
ATOM      8  C   UNL d   1      45.410  28.390  58.276  0.00  0.00     0.063 C 
BRANCH   8   9
ATOM      9  S   UNL d   1      44.717  28.843  58.288  0.00  0.00    -0.046 SA
BRANCH   9  10
ATOM     10  C   UNL d   1      44.737  29.618  58.552  0.00  0.00     0.194 A 
ATOM     11  N   UNL d   1      44.752  30.233  58.007  0.00  0.00    -0.221 NA
ATOM     12  C   UNL d   1      44.773  31.004  58.267  0.00  0.00     0.085 A 
ATOM     13  C   UNL d   1      44.788  31.619  57.722  0.00  0.00     0.021 C 
ATOM     14  C   UNL d   1      44.778  31.172  59.076  0.00  0.00     0.038 A 
ATOM     15  C   UNL d   1      44.763  30.544  59.613  0.00  0.00     0.085 A 
ATOM     16  N   UNL d   1      44.742  29.774  59.344  0.00  0.00    -0.221 NA
ATOM     17  C   UNL d   1      44.768  30.711  60.422  0.00  0.00     0.021 C 
ENDBRANCH   9  10
ENDBRANCH   8   9
ENDBRANCH   5   8
BRANCH   1  18
ATOM     18  O   UNL d   1      44.444  25.582  56.891  0.00  0.00    -0.266 OA
BRANCH  18  19
ATOM     19  C   UNL d   1      44.888  25.337  56.241  0.00  0.00     0.323 C 
ATOM     20  O   UNL d   1      45.469  25.819  55.946  0.00  0.00    -0.257 OA
BRANCH  19  21
ATOM     21  C   UNL d   1      44.746  24.600  55.884  0.00  0.00     0.164 A 
ATOM     22  O   UNL d   1      45.025  23.890  56.167  0.00  0.00    -0.295 OA
ATOM     23  C   UNL d   1      44.756  23.312  55.647  0.00  0.00     0.134 A 
ATOM     24 BR   UNL d   1      44.908  22.510  55.722  0.00  0.00    -0.022 Br
ATOM     25  C   UNL d   1      44.329  23.664  55.071  0.00  0.00     0.034 A 
ATOM     26  C   UNL d   1      44.324  24.464  55.219  0.00  0.00     0.033 A 
ENDBRANCH  19  21
ENDBRANCH  18  19
ENDBRANCH   1  18
TORSDOF 6
ENDMDL
