MODEL 1
REMARK VINA RESULT:      -2.4      0.000      0.000
REMARK  6 active torsions:
REMARK  status: ('A' for Active; 'I' for Inactive)
REMARK    1  A    between atoms: C_6  and  C_1 
REMARK    2  A    between atoms: C_10  and  N_3 
REMARK    3  A    between atoms: O_7  and  C_6 
REMARK    4  A    between atoms: C_8  and  O_7 
REMARK    5  A    between atoms: O_11  and  C_9 
REMARK    6  A    between atoms: C_17  and  C_10 
ROOT
ATOM      1  C   UNL d   1      33.052  19.775 -22.639  0.00  0.00     0.173 A 
ATOM      2  N   UNL d   1      32.887  19.777 -21.820  0.00  0.00    -0.225 NA
ATOM      3  N   UNL d   1      33.085  20.570 -22.863  0.00  0.00    -0.287 N 
ATOM      4  C   UNL d   1      32.947  21.049 -22.218  0.00  0.00     0.083 A 
ATOM      5  C   UNL d   1      32.821  20.547 -21.558  0.00  0.00     0.099 A 
ATOM      6  C   UNL d   1      32.913  21.878 -22.119  0.00  0.00     0.019 A 
ATOM      7  C   UNL d   1      32.668  20.899 -20.830  0.00  0.00     0.021 A 
ATOM      8  C   UNL d   1      32.761  22.185 -21.389  0.00  0.00     0.002 A 
ATOM      9  C   UNL d   1      32.635  21.684 -20.730  0.00  0.00     0.002 A 
ENDROOT
BRANCH   1  10
ATOM     10  C   UNL d   1      33.121  19.017 -22.918  0.00  0.00     0.160 C 
BRANCH  10  11
ATOM     11  O   UNL d   1      32.437  18.570 -23.114  0.00  0.00    -0.300 OA
BRANCH  11  12
ATOM     12  C   UNL d   1      32.495  17.768 -23.353  0.00  0.00     0.122 A 
ATOM     13  C   UNL d   1      31.876  17.420 -23.775  0.00  0.00     0.117 A 
ATOM     14  C   UNL d   1      31.915  16.625 -24.021  0.00  0.00     0.026 A 
ATOM     15  C   UNL d   1      32.592  16.201 -23.829  0.00  0.00     0.002 A 
ATOM     16  C   UNL d   1      33.214  16.550 -23.406  0.00  0.00     0.002 A 
ATOM     17  C   UNL d   1      33.174  17.340 -23.162  0.00  0.00     0.027 A 
BRANCH  13  18
ATOM     18  O   UNL d   1      31.198  17.872 -23.958  0.00  0.00    -0.326 OA
ATOM     19  C   UNL d   1      30.544  17.525 -24.369  0.00  0.00     0.181 C 
ENDBRANCH  13  18
ENDBRANCH  11  12
ENDBRANCH  10  11
ENDBRANCH   1  10
BRANCH   3  20
ATOM     20  C   UNL d   1      33.240  20.674 -23.640  0.00  0.00     0.082 C 
BRANCH  20  21
ATOM     21  C   UNL d   1      33.081  21.382 -24.033  0.00  0.00     0.019 C 
ATOM     22  C   UNL d   1      33.233  21.500 -24.833  0.00  0.00     0.002 C 
ENDBRANCH  20  21
ENDBRANCH   3  20
TORSDOF 6
ENDMDL
MODEL 2
REMARK VINA RESULT:      -2.1      0.681      1.905
REMARK  6 active torsions:
REMARK  status: ('A' for Active; 'I' for Inactive)
REMARK    1  A    between atoms: C_6  and  C_1 
REMARK    2  A    between atoms: C_10  and  N_3 
REMARK    3  A    between atoms: O_7  and  C_6 
REMARK    4  A    between atoms: C_8  and  O_7 
REMARK    5  A    between atoms: O_11  and  C_9 
REMARK    6  A    between atoms: C_17  and  C_10 
ROOT
ATOM      1  C   UNL d   1      33.226  20.075 -23.164  0.00  0.00     0.173 A 
ATOM      2  N   UNL d   1      33.228  20.359 -23.950  0.00  0.00    -0.225 NA
ATOM      3  N   UNL d   1      33.229  20.747 -22.683  0.00  0.00    -0.287 N 
ATOM      4  C   UNL d   1      33.233  21.420 -23.142  0.00  0.00     0.083 A 
ATOM      5  C   UNL d   1      33.232  21.175 -23.943  0.00  0.00     0.099 A 
ATOM      6  C   UNL d   1      33.237  22.236 -22.960  0.00  0.00     0.019 A 
ATOM      7  C   UNL d   1      33.235  21.757 -24.525  0.00  0.00     0.021 A 
ATOM      8  C   UNL d   1      33.240  22.777 -23.558  0.00  0.00     0.002 A 
ATOM      9  C   UNL d   1      33.239  22.531 -24.359  0.00  0.00     0.002 A 
ENDROOT
BRANCH   1  10
ATOM     10  C   UNL d   1      33.222  19.265 -23.149  0.00  0.00     0.160 C 
BRANCH  10  11
ATOM     11  O   UNL d   1      32.638  18.832 -23.570  0.00  0.00    -0.300 OA
BRANCH  11  12
ATOM     12  C   UNL d   1      32.636  17.993 -23.574  0.00  0.00     0.122 A 
ATOM     13  C   UNL d   1      32.149  17.587 -24.102  0.00  0.00     0.117 A 
ATOM     14  C   UNL d   1      32.133  16.754 -24.121  0.00  0.00     0.026 A 
ATOM     15  C   UNL d   1      32.619  16.353 -23.595  0.00  0.00     0.002 A 
ATOM     16  C   UNL d   1      33.108  16.760 -23.064  0.00  0.00     0.002 A 
ATOM     17  C   UNL d   1      33.124  17.588 -23.046  0.00  0.00     0.027 A 
BRANCH  13  18
ATOM     18  O   UNL d   1      31.662  18.017 -24.628  0.00  0.00    -0.326 OA
ATOM     19  C   UNL d   1      31.014  17.643 -25.024  0.00  0.00     0.181 C 
ENDBRANCH  13  18
ENDBRANCH  11  12
ENDBRANCH  10  11
ENDBRANCH   1  10
BRANCH   3  20
ATOM     20  C   UNL d   1      33.228  20.577 -21.902  0.00  0.00     0.082 C 
BRANCH  20  21
ATOM     21  C   UNL d   1      32.640  20.849 -21.391  0.00  0.00     0.019 C 
ATOM     22  C   UNL d   1      32.724  20.866 -20.572  0.00  0.00     0.002 C 
ENDBRANCH  20  21
ENDBRANCH   3  20
TORSDOF 6
ENDMDL
MODEL 3
REMARK VINA RESULT:      -1.5      1.289      1.862
REMARK  6 active torsions:
REMARK  status: ('A' for Active; 'I' for Inactive)
REMARK    1  A    between atoms: C_6  and  C_1 
REMARK    2  A    between atoms: C_10  and  N_3 
REMARK    3  A    between atoms: O_7  and  C_6 
REMARK    4  A    between atoms: C_8  and  O_7 
REMARK    5  A    between atoms: O_11  and  C_9 
REMARK    6  A    between atoms: C_17  and  C_10 
ROOT
ATOM      1  C   UNL d   1      33.128  21.141 -22.469  0.00  0.00     0.173 A 
ATOM      2  N   UNL d   1      33.004  20.711 -21.764  0.00  0.00    -0.225 NA
ATOM      3  N   UNL d   1      33.126  21.938 -22.248  0.00  0.00    -0.287 N 
ATOM      4  C   UNL d   1      33.006  22.005 -21.445  0.00  0.00     0.083 A 
ATOM      5  C   UNL d   1      32.929  21.229 -21.139  0.00  0.00     0.099 A 
ATOM      6  C   UNL d   1      32.953  22.660 -20.928  0.00  0.00     0.019 A 
ATOM      7  C   UNL d   1      32.802  21.144 -20.330  0.00  0.00     0.021 A 
ATOM      8  C   UNL d   1      32.828  22.537 -20.141  0.00  0.00     0.002 A 
ATOM      9  C   UNL d   1      32.751  21.760 -19.835  0.00  0.00     0.002 A 
ENDROOT
BRANCH   1  10
ATOM     10  C   UNL d   1      33.205  20.643 -23.104  0.00  0.00     0.160 C 
BRANCH  10  11
ATOM     11  O   UNL d   1      33.240  19.811 -22.992  0.00  0.00    -0.300 OA
BRANCH  11  12
ATOM     12  C   UNL d   1      33.202  19.283 -23.642  0.00  0.00     0.122 A 
ATOM     13  C   UNL d   1      33.199  18.468 -23.509  0.00  0.00     0.117 A 
ATOM     14  C   UNL d   1      33.162  17.927 -24.142  0.00  0.00     0.026 A 
ATOM     15  C   UNL d   1      33.129  18.235 -24.902  0.00  0.00     0.002 A 
ATOM     16  C   UNL d   1      33.133  19.053 -25.038  0.00  0.00     0.002 A 
ATOM     17  C   UNL d   1      33.169  19.590 -24.407  0.00  0.00     0.027 A 
BRANCH  13  18
ATOM     18  O   UNL d   1      33.232  18.179 -22.726  0.00  0.00    -0.326 OA
ATOM     19  C   UNL d   1      32.943  17.406 -22.536  0.00  0.00     0.181 C 
ENDBRANCH  13  18
ENDBRANCH  11  12
ENDBRANCH  10  11
ENDBRANCH   1  10
BRANCH   3  20
ATOM     20  C   UNL d   1      33.239  22.437 -22.862  0.00  0.00     0.082 C 
BRANCH  20  21
ATOM     21  C   UNL d   1      32.782  23.116 -22.971  0.00  0.00     0.019 C 
ATOM     22  C   UNL d   1      32.909  23.655 -23.579  0.00  0.00     0.002 C 
ENDBRANCH  20  21
ENDBRANCH   3  20
TORSDOF 6
ENDMDL
MODEL 4
REMARK VINA RESULT:      -1.2      1.402      4.501
REMARK  6 active torsions:
REMARK  status: ('A' for Active; 'I' for Inactive)
REMARK    1  A    between atoms: C_6  and  C_1 
REMARK    2  A    between atoms: C_10  and  N_3 
REMARK    3  A    between atoms: O_7  and  C_6 
REMARK    4  A    between atoms: C_8  and  O_7 
REMARK    5  A    between atoms: O_11  and  C_9 
REMARK    6  A    between atoms: C_17  and  C_10 
ROOT
ATOM      1  C   UNL d   1      32.083  17.989 -24.332  0.00  0.00     0.173 A 
ATOM      2  N   UNL d   1      32.639  17.500 -23.944  0.00  0.00    -0.225 NA
ATOM      3  N   UNL d   1      31.391  17.540 -24.387  0.00  0.00    -0.287 N 
ATOM      4  C   UNL d   1      31.506  16.807 -24.052  0.00  0.00     0.083 A 
ATOM      5  C   UNL d   1      32.295  16.781 -23.772  0.00  0.00     0.099 A 
ATOM      6  C   UNL d   1      31.010  16.140 -23.953  0.00  0.00     0.019 A 
ATOM      7  C   UNL d   1      32.552  16.091 -23.406  0.00  0.00     0.021 A 
ATOM      8  C   UNL d   1      31.298  15.482 -23.589  0.00  0.00     0.002 A 
ATOM      9  C   UNL d   1      32.088  15.456 -23.309  0.00  0.00     0.002 A 
ENDROOT
BRANCH   1  10
ATOM     10  C   UNL d   1      32.407  18.710 -24.512  0.00  0.00     0.160 C 
BRANCH  10  11
ATOM     11  O   UNL d   1      32.805  19.159 -23.923  0.00  0.00    -0.300 OA
BRANCH  11  12
ATOM     12  C   UNL d   1      32.952  19.978 -24.026  0.00  0.00     0.122 A 
ATOM     13  C   UNL d   1      33.093  20.456 -23.367  0.00  0.00     0.117 A 
ATOM     14  C   UNL d   1      33.241  21.272 -23.449  0.00  0.00     0.026 A 
ATOM     15  C   UNL d   1      33.241  21.582 -24.209  0.00  0.00     0.002 A 
ATOM     16  C   UNL d   1      33.099  21.104 -24.871  0.00  0.00     0.002 A 
ATOM     17  C   UNL d   1      32.952  20.293 -24.789  0.00  0.00     0.027 A 
BRANCH  13  18
ATOM     18  O   UNL d   1      33.088  20.116 -22.604  0.00  0.00    -0.326 OA
ATOM     19  C   UNL d   1      32.892  20.580 -21.924  0.00  0.00     0.181 C 
ENDBRANCH  13  18
ENDBRANCH  11  12
ENDBRANCH  10  11
ENDBRANCH   1  10
BRANCH   3  20
ATOM     20  C   UNL d   1      30.792  17.927 -24.748  0.00  0.00     0.082 C 
BRANCH  20  21
ATOM     21  C   UNL d   1      30.004  17.695 -24.667  0.00  0.00     0.019 C 
ATOM     22  C   UNL d   1      29.384  18.050 -25.076  0.00  0.00     0.002 C 
ENDBRANCH  20  21
ENDBRANCH   3  20
TORSDOF 6
ENDMDL
MODEL 5
REMARK VINA RESULT:      -0.3      2.044      4.834
REMARK  6 active torsions:
REMARK  status: ('A' for Active; 'I' for Inactive)
REMARK    1  A    between atoms: C_6  and  C_1 
REMARK    2  A    between atoms: C_10  and  N_3 
REMARK    3  A    between atoms: O_7  and  C_6 
REMARK    4  A    between atoms: C_8  and  O_7 
REMARK    5  A    between atoms: O_11  and  C_9 
REMARK    6  A    between atoms: C_17  and  C_10 
ROOT
ATOM      1  C   UNL d   1      30.516  17.670 -24.559  0.00  0.00     0.173 A 
ATOM      2  N   UNL d   1      29.878  17.990 -24.124  0.00  0.00    -0.225 NA
ATOM      3  N   UNL d   1      30.326  16.874 -24.682  0.00  0.00    -0.287 N 
ATOM      4  C   UNL d   1      29.606  16.702 -24.341  0.00  0.00     0.083 A 
ATOM      5  C   UNL d   1      29.322  17.408 -23.989  0.00  0.00     0.099 A 
ATOM      6  C   UNL d   1      29.149  16.004 -24.293  0.00  0.00     0.019 A 
ATOM      7  C   UNL d   1      28.595  17.382 -23.604  0.00  0.00     0.021 A 
ATOM      8  C   UNL d   1      28.442  16.017 -23.907  0.00  0.00     0.002 A 
ATOM      9  C   UNL d   1      28.158  16.722 -23.554  0.00  0.00     0.002 A 
ENDROOT
BRANCH   1  10
ATOM     10  C   UNL d   1      31.079  18.234 -24.704  0.00  0.00     0.160 C 
BRANCH  10  11
ATOM     11  O   UNL d   1      31.586  18.500 -24.088  0.00  0.00    -0.300 OA
BRANCH  11  12
ATOM     12  C   UNL d   1      32.144  19.112 -24.219  0.00  0.00     0.122 A 
ATOM     13  C   UNL d   1      32.567  19.424 -23.582  0.00  0.00     0.117 A 
ATOM     14  C   UNL d   1      33.126  20.032 -23.691  0.00  0.00     0.026 A 
ATOM     15  C   UNL d   1      33.241  20.308 -24.455  0.00  0.00     0.002 A 
ATOM     16  C   UNL d   1      32.818  19.996 -25.096  0.00  0.00     0.002 A 
ATOM     17  C   UNL d   1      32.262  19.391 -24.986  0.00  0.00     0.027 A 
BRANCH  13  18
ATOM     18  O   UNL d   1      32.432  19.126 -22.812  0.00  0.00    -0.326 OA
ATOM     19  C   UNL d   1      32.904  19.383 -22.159  0.00  0.00     0.181 C 
ENDBRANCH  13  18
ENDBRANCH  11  12
ENDBRANCH  10  11
ENDBRANCH   1  10
BRANCH   3  20
ATOM     20  C   UNL d   1      30.883  16.477 -25.095  0.00  0.00     0.082 C 
BRANCH  20  21
ATOM     21  C   UNL d   1      31.157  15.733 -24.865  0.00  0.00     0.019 C 
ATOM     22  C   UNL d   1      31.913  15.456 -25.037  0.00  0.00     0.002 C 
ENDBRANCH  20  21
ENDBRANCH   3  20
TORSDOF 6
ENDMDL
MODEL 6
REMARK VINA RESULT:      -0.3      1.380      2.520
REMARK  6 active torsions:
REMARK  status: ('A' for Active; 'I' for Inactive)
REMARK    1  A    between atoms: C_6  and  C_1 
REMARK    2  A    between atoms: C_10  and  N_3 
REMARK    3  A    between atoms: O_7  and  C_6 
REMARK    4  A    between atoms: C_8  and  O_7 
REMARK    5  A    between atoms: O_11  and  C_9 
REMARK    6  A    between atoms: C_17  and  C_10 
ROOT
ATOM      1  C   UNL d   1      32.982  21.101 -21.608  0.00  0.00     0.173 A 
ATOM      2  N   UNL d   1      32.832  21.687 -22.184  0.00  0.00    -0.225 NA
ATOM      3  N   UNL d   1      32.804  21.452 -20.881  0.00  0.00    -0.287 N 
ATOM      4  C   UNL d   1      32.555  22.219 -20.993  0.00  0.00     0.083 A 
ATOM      5  C   UNL d   1      32.573  22.368 -21.818  0.00  0.00     0.099 A 
ATOM      6  C   UNL d   1      32.309  22.823 -20.470  0.00  0.00     0.019 A 
ATOM      7  C   UNL d   1      32.344  23.114 -22.080  0.00  0.00     0.021 A 
ATOM      8  C   UNL d   1      32.092  23.541 -20.764  0.00  0.00     0.002 A 
ATOM      9  C   UNL d   1      32.110  23.690 -21.589  0.00  0.00     0.002 A 
ENDROOT
BRANCH   1  10
ATOM     10  C   UNL d   1      33.241  20.415 -21.953  0.00  0.00     0.160 C 
BRANCH  10  11
ATOM     11  O   UNL d   1      32.875  20.123 -22.651  0.00  0.00    -0.300 OA
BRANCH  11  12
ATOM     12  C   UNL d   1      32.917  19.311 -22.857  0.00  0.00     0.122 A 
ATOM     13  C   UNL d   1      32.670  19.064 -23.605  0.00  0.00     0.117 A 
ATOM     14  C   UNL d   1      32.704  18.262 -23.828  0.00  0.00     0.026 A 
ATOM     15  C   UNL d   1      32.992  17.727 -23.276  0.00  0.00     0.002 A 
ATOM     16  C   UNL d   1      33.240  17.973 -22.525  0.00  0.00     0.002 A 
ATOM     17  C   UNL d   1      33.206  18.771 -22.304  0.00  0.00     0.027 A 
BRANCH  13  18
ATOM     18  O   UNL d   1      32.380  19.628 -24.150  0.00  0.00    -0.326 OA
ATOM     19  C   UNL d   1      32.354  19.457 -24.978  0.00  0.00     0.181 C 
ENDBRANCH  13  18
ENDBRANCH  11  12
ENDBRANCH  10  11
ENDBRANCH   1  10
BRANCH   3  20
ATOM     20  C   UNL d   1      32.917  20.964 -20.258  0.00  0.00     0.082 C 
BRANCH  20  21
ATOM     21  C   UNL d   1      33.217  21.229 -19.536  0.00  0.00     0.019 C 
ATOM     22  C   UNL d   1      33.241  20.764 -18.858  0.00  0.00     0.002 C 
ENDBRANCH  20  21
ENDBRANCH   3  20
TORSDOF 6
ENDMDL
MODEL 7
REMARK VINA RESULT:       0.3      2.179      3.904
REMARK  6 active torsions:
REMARK  status: ('A' for Active; 'I' for Inactive)
REMARK    1  A    between atoms: C_6  and  C_1 
REMARK    2  A    between atoms: C_10  and  N_3 
REMARK    3  A    between atoms: O_7  and  C_6 
REMARK    4  A    between atoms: C_8  and  O_7 
REMARK    5  A    between atoms: O_11  and  C_9 
REMARK    6  A    between atoms: C_17  and  C_10 
ROOT
ATOM      1  C   UNL d   1      31.444  17.316 -24.450  0.00  0.00     0.173 A 
ATOM      2  N   UNL d   1      31.191  17.982 -24.012  0.00  0.00    -0.225 NA
ATOM      3  N   UNL d   1      32.234  17.462 -24.642  0.00  0.00    -0.287 N 
ATOM      4  C   UNL d   1      32.468  18.182 -24.341  0.00  0.00     0.083 A 
ATOM      5  C   UNL d   1      31.808  18.511 -23.942  0.00  0.00     0.099 A 
ATOM      6  C   UNL d   1      33.189  18.604 -24.364  0.00  0.00     0.019 A 
ATOM      7  C   UNL d   1      31.900  19.247 -23.585  0.00  0.00     0.021 A 
ATOM      8  C   UNL d   1      33.241  19.323 -24.002  0.00  0.00     0.002 A 
ATOM      9  C   UNL d   1      32.581  19.651 -23.603  0.00  0.00     0.002 A 
ENDROOT
BRANCH   1  10
ATOM     10  C   UNL d   1      30.844  16.777 -24.530  0.00  0.00     0.160 C 
BRANCH  10  11
ATOM     11  O   UNL d   1      30.186  16.790 -24.007  0.00  0.00    -0.300 OA
BRANCH  11  12
ATOM     12  C   UNL d   1      29.496  16.338 -24.165  0.00  0.00     0.122 A 
ATOM     13  C   UNL d   1      29.059  16.025 -23.539  0.00  0.00     0.117 A 
ATOM     14  C   UNL d   1      28.372  15.574 -23.675  0.00  0.00     0.026 A 
ATOM     15  C   UNL d   1      28.146  15.453 -24.455  0.00  0.00     0.002 A 
ATOM     16  C   UNL d   1      28.584  15.767 -25.085  0.00  0.00     0.002 A 
ATOM     17  C   UNL d   1      29.268  16.215 -24.948  0.00  0.00     0.027 A 
BRANCH  13  18
ATOM     18  O   UNL d   1      29.309  16.162 -22.753  0.00  0.00    -0.326 OA
ATOM     19  C   UNL d   1      28.906  15.802 -22.101  0.00  0.00     0.181 C 
ENDBRANCH  13  18
ENDBRANCH  11  12
ENDBRANCH  10  11
ENDBRANCH   1  10
BRANCH   3  20
ATOM     20  C   UNL d   1      32.570  16.874 -25.067  0.00  0.00     0.082 C 
BRANCH  20  21
ATOM     21  C   UNL d   1      32.971  16.246 -24.713  0.00  0.00     0.019 C 
ATOM     22  C   UNL d   1      33.124  15.533 -25.096  0.00  0.00     0.002 C 
ENDBRANCH  20  21
ENDBRANCH   3  20
TORSDOF 6
ENDMDL
MODEL 8
REMARK VINA RESULT:       0.5      3.025      4.940
REMARK  6 active torsions:
REMARK  status: ('A' for Active; 'I' for Inactive)
REMARK    1  A    between atoms: C_6  and  C_1 
REMARK    2  A    between atoms: C_10  and  N_3 
REMARK    3  A    between atoms: O_7  and  C_6 
REMARK    4  A    between atoms: C_8  and  O_7 
REMARK    5  A    between atoms: O_11  and  C_9 
REMARK    6  A    between atoms: C_17  and  C_10 
ROOT
ATOM      1  C   UNL d   1      29.939  16.689 -24.247  0.00  0.00     0.173 A 
ATOM      2  N   UNL d   1      30.045  16.137 -23.629  0.00  0.00    -0.225 NA
ATOM      3  N   UNL d   1      29.131  16.861 -24.258  0.00  0.00    -0.287 N 
ATOM      4  C   UNL d   1      28.747  16.439 -23.676  0.00  0.00     0.083 A 
ATOM      5  C   UNL d   1      29.325  15.981 -23.278  0.00  0.00     0.099 A 
ATOM      6  C   UNL d   1      27.948  16.394 -23.436  0.00  0.00     0.019 A 
ATOM      7  C   UNL d   1      29.077  15.499 -22.659  0.00  0.00     0.021 A 
ATOM      8  C   UNL d   1      27.743  15.910 -22.824  0.00  0.00     0.002 A 
ATOM      9  C   UNL d   1      28.321  15.453 -22.427  0.00  0.00     0.002 A 
ENDROOT
BRANCH   1  10
ATOM     10  C   UNL d   1      30.645  16.858 -24.609  0.00  0.00     0.160 C 
BRANCH  10  11
ATOM     11  O   UNL d   1      31.363  16.839 -24.174  0.00  0.00    -0.300 OA
BRANCH  11  12
ATOM     12  C   UNL d   1      31.974  17.396 -24.319  0.00  0.00     0.122 A 
ATOM     13  C   UNL d   1      32.624  17.433 -23.811  0.00  0.00     0.117 A 
ATOM     14  C   UNL d   1      33.240  17.979 -23.937  0.00  0.00     0.026 A 
ATOM     15  C   UNL d   1      33.177  18.478 -24.586  0.00  0.00     0.002 A 
ATOM     16  C   UNL d   1      32.526  18.442 -25.097  0.00  0.00     0.002 A 
ATOM     17  C   UNL d   1      31.913  17.898 -24.970  0.00  0.00     0.027 A 
BRANCH  13  18
ATOM     18  O   UNL d   1      32.665  16.914 -23.157  0.00  0.00    -0.326 OA
ATOM     19  C   UNL d   1      33.084  17.134 -22.455  0.00  0.00     0.181 C 
ENDBRANCH  13  18
ENDBRANCH  11  12
ENDBRANCH  10  11
ENDBRANCH   1  10
BRANCH   3  20
ATOM     20  C   UNL d   1      28.926  17.388 -24.823  0.00  0.00     0.082 C 
BRANCH  20  21
ATOM     21  C   UNL d   1      28.360  17.975 -24.698  0.00  0.00     0.019 C 
ATOM     22  C   UNL d   1      28.364  18.698 -25.089  0.00  0.00     0.002 C 
ENDBRANCH  20  21
ENDBRANCH   3  20
TORSDOF 6
ENDMDL
