MODEL 1
REMARK VINA RESULT:      -2.7      0.000      0.000
REMARK  5 active torsions:
REMARK  status: ('A' for Active; 'I' for Inactive)
REMARK    1  A    between atoms: S_2  and  C_1 
REMARK    2  A    between atoms: C_9  and  S_2 
REMARK    3  A    between atoms: C_8  and  N_3 
REMARK    4  A    between atoms: C_7  and  C_8 
REMARK       I    between atoms: N_12  and  C_7 
REMARK    5  A    between atoms: C_14  and  C_9 
ROOT
ATOM      1  C   UNL d   1      58.530  -0.728  29.842  0.00  0.00     0.107 A 
ATOM      2  N   UNL d   1      58.006  -0.155  30.925  0.00  0.00    -0.299 N 
ATOM      3  C   UNL d   1      57.834  -0.648  30.287  0.00  0.00     0.092 A 
ATOM      4  C   UNL d   1      59.122  -0.285  30.209  0.00  0.00     0.028 A 
ATOM      5  C   UNL d   1      58.795   0.070  30.881  0.00  0.00     0.065 A 
ATOM      6  C   UNL d   1      59.913  -0.160  30.018  0.00  0.00     0.002 A 
ATOM      7  C   UNL d   1      59.267   0.549  31.358  0.00  0.00     0.018 A 
ATOM      8  C   UNL d   1      60.388   0.321  30.497  0.00  0.00     0.000 A 
ATOM      9  C   UNL d   1      60.058   0.674  31.168  0.00  0.00     0.002 A 
ENDROOT
BRANCH   1  10
ATOM     10  S   UNL d   1      58.613  -1.176  29.149  0.00  0.00     0.212 S 
ATOM     11  O   UNL d   1      58.594  -1.830  29.650  0.00  0.00    -0.217 OA
ATOM     12  O   UNL d   1      58.632  -0.516  28.649  0.00  0.00    -0.217 OA
BRANCH  10  13
ATOM     13  C   UNL d   1      58.697  -1.619  28.460  0.00  0.00     0.099 C 
BRANCH  13  14
ATOM     14  C   UNL d   1      58.892  -2.416  28.507  0.00  0.00     0.011 A 
ATOM     15  C   UNL d   1      59.682  -2.647  28.455  0.00  0.00     0.001 A 
ATOM     16  C   UNL d   1      59.876  -3.456  28.503  0.00  0.00     0.000 A 
ATOM     17  C   UNL d   1      59.277  -4.022  28.601  0.00  0.00     0.000 A 
ATOM     18  C   UNL d   1      58.491  -3.775  28.651  0.00  0.00     0.000 A 
ATOM     19  C   UNL d   1      58.303  -2.979  28.604  0.00  0.00     0.001 A 
ENDBRANCH  13  14
ENDBRANCH  10  13
ENDBRANCH   1  10
BRANCH   2  20
ATOM     20  C   UNL d   1      57.472   0.074  31.511  0.00  0.00     0.142 C 
BRANCH  20  21
ATOM     21  C   UNL d   1      56.897  -0.453  31.774  0.00  0.00     0.283 C 
ATOM     22  N   UNL d   1      56.372  -0.229  32.370  0.00  0.00    -0.268 N 
ATOM     23  C   UNL d   1      55.790  -0.757  32.638  0.00  0.00     0.102 C 
ATOM     24  C   UNL d   1      56.423   0.523  32.704  0.00  0.00     0.102 C 
ATOM     25  O   UNL d   1      56.846  -1.203  31.440  0.00  0.00    -0.265 OA
ENDBRANCH  20  21
ENDBRANCH   2  20
TORSDOF 5
ENDMDL
MODEL 2
REMARK VINA RESULT:      -1.7      1.072      1.480
REMARK  5 active torsions:
REMARK  status: ('A' for Active; 'I' for Inactive)
REMARK    1  A    between atoms: S_2  and  C_1 
REMARK    2  A    between atoms: C_9  and  S_2 
REMARK    3  A    between atoms: C_8  and  N_3 
REMARK    4  A    between atoms: C_7  and  C_8 
REMARK       I    between atoms: N_12  and  C_7 
REMARK    5  A    between atoms: C_14  and  C_9 
ROOT
ATOM      1  C   UNL d   1      57.992  -0.072  30.627  0.00  0.00     0.107 A 
ATOM      2  N   UNL d   1      57.278  -0.014  31.750  0.00  0.00    -0.299 N 
ATOM      3  C   UNL d   1      57.238  -0.199  30.948  0.00  0.00     0.092 A 
ATOM      4  C   UNL d   1      58.489   0.190  31.231  0.00  0.00     0.028 A 
ATOM      5  C   UNL d   1      58.043   0.225  31.928  0.00  0.00     0.065 A 
ATOM      6  C   UNL d   1      59.284   0.400  31.237  0.00  0.00     0.002 A 
ATOM      7  C   UNL d   1      58.404   0.472  32.628  0.00  0.00     0.018 A 
ATOM      8  C   UNL d   1      59.647   0.648  31.940  0.00  0.00     0.000 A 
ATOM      9  C   UNL d   1      59.199   0.682  32.634  0.00  0.00     0.002 A 
ENDROOT
BRANCH   1  10
ATOM     10  S   UNL d   1      58.207  -0.188  29.834  0.00  0.00     0.212 S 
ATOM     11  O   UNL d   1      57.979  -0.970  29.957  0.00  0.00    -0.217 OA
ATOM     12  O   UNL d   1      58.436   0.599  29.714  0.00  0.00    -0.217 OA
BRANCH  10  13
ATOM     13  C   UNL d   1      58.422  -0.301  29.047  0.00  0.00     0.099 C 
BRANCH  13  14
ATOM     14  C   UNL d   1      59.010  -0.843  28.856  0.00  0.00     0.011 A 
ATOM     15  C   UNL d   1      59.767  -0.574  28.666  0.00  0.00     0.001 A 
ATOM     16  C   UNL d   1      60.361  -1.126  28.474  0.00  0.00     0.000 A 
ATOM     17  C   UNL d   1      60.190  -1.938  28.474  0.00  0.00     0.000 A 
ATOM     18  C   UNL d   1      59.428  -2.191  28.667  0.00  0.00     0.000 A 
ATOM     19  C   UNL d   1      58.845  -1.646  28.856  0.00  0.00     0.001 A 
ENDBRANCH  13  14
ENDBRANCH  10  13
ENDBRANCH   1  10
BRANCH   2  20
ATOM     20  C   UNL d   1      56.652  -0.062  32.285  0.00  0.00     0.142 C 
BRANCH  20  21
ATOM     21  C   UNL d   1      56.259  -0.777  32.397  0.00  0.00     0.283 C 
ATOM     22  N   UNL d   1      55.618  -0.819  32.914  0.00  0.00    -0.268 N 
ATOM     23  C   UNL d   1      55.218  -1.537  33.031  0.00  0.00     0.102 C 
ATOM     24  C   UNL d   1      55.369  -0.146  33.319  0.00  0.00     0.102 C 
ATOM     25  O   UNL d   1      56.507  -1.449  31.992  0.00  0.00    -0.265 OA
ENDBRANCH  20  21
ENDBRANCH   2  20
TORSDOF 5
ENDMDL
MODEL 3
REMARK VINA RESULT:      -1.4      1.286      4.070
REMARK  5 active torsions:
REMARK  status: ('A' for Active; 'I' for Inactive)
REMARK    1  A    between atoms: S_2  and  C_1 
REMARK    2  A    between atoms: C_9  and  S_2 
REMARK    3  A    between atoms: C_8  and  N_3 
REMARK    4  A    between atoms: C_7  and  C_8 
REMARK       I    between atoms: N_12  and  C_7 
REMARK    5  A    between atoms: C_14  and  C_9 
ROOT
ATOM      1  C   UNL d   1      57.971   0.231  31.165  0.00  0.00     0.107 A 
ATOM      2  N   UNL d   1      58.776  -0.203  30.197  0.00  0.00    -0.299 N 
ATOM      3  C   UNL d   1      57.985  -0.105  30.407  0.00  0.00     0.092 A 
ATOM      4  C   UNL d   1      58.750   0.337  31.415  0.00  0.00     0.028 A 
ATOM      5  C   UNL d   1      59.249   0.066  30.812  0.00  0.00     0.065 A 
ATOM      6  C   UNL d   1      59.069   0.642  32.110  0.00  0.00     0.002 A 
ATOM      7  C   UNL d   1      60.067   0.105  30.913  0.00  0.00     0.018 A 
ATOM      8  C   UNL d   1      59.890   0.682  32.212  0.00  0.00     0.000 A 
ATOM      9  C   UNL d   1      60.385   0.411  31.608  0.00  0.00     0.002 A 
ENDROOT
BRANCH   1  10
ATOM     10  S   UNL d   1      57.290   0.427  31.597  0.00  0.00     0.212 S 
ATOM     11  O   UNL d   1      57.731   0.215  32.260  0.00  0.00    -0.217 OA
ATOM     12  O   UNL d   1      56.850   0.640  30.928  0.00  0.00    -0.217 OA
BRANCH  10  13
ATOM     13  C   UNL d   1      56.613   0.622  32.023  0.00  0.00     0.099 C 
BRANCH  13  14
ATOM     14  C   UNL d   1      56.279   0.072  32.535  0.00  0.00     0.011 A 
ATOM     15  C   UNL d   1      56.229   0.241  33.341  0.00  0.00     0.001 A 
ATOM     16  C   UNL d   1      55.890  -0.319  33.856  0.00  0.00     0.000 A 
ATOM     17  C   UNL d   1      55.605  -1.039  33.559  0.00  0.00     0.000 A 
ATOM     18  C   UNL d   1      55.661  -1.193  32.749  0.00  0.00     0.000 A 
ATOM     19  C   UNL d   1      55.995  -0.641  32.244  0.00  0.00     0.001 A 
ENDBRANCH  13  14
ENDBRANCH  10  13
ENDBRANCH   1  10
BRANCH   2  20
ATOM     20  C   UNL d   1      59.047  -0.521  29.485  0.00  0.00     0.142 C 
BRANCH  20  21
ATOM     21  C   UNL d   1      58.874  -1.302  29.290  0.00  0.00     0.283 C 
ATOM     22  N   UNL d   1      59.368  -1.718  28.777  0.00  0.00    -0.268 N 
ATOM     23  C   UNL d   1      59.199  -2.506  28.577  0.00  0.00     0.102 C 
ATOM     24  C   UNL d   1      60.035  -1.353  28.459  0.00  0.00     0.102 C 
ATOM     25  O   UNL d   1      58.209  -1.667  29.608  0.00  0.00    -0.265 OA
ENDBRANCH  20  21
ENDBRANCH   2  20
TORSDOF 5
ENDMDL
MODEL 4
REMARK VINA RESULT:      -0.5      8.130      9.712
REMARK  5 active torsions:
REMARK  status: ('A' for Active; 'I' for Inactive)
REMARK    1  A    between atoms: S_2  and  C_1 
REMARK    2  A    between atoms: C_9  and  S_2 
REMARK    3  A    between atoms: C_8  and  N_3 
REMARK    4  A    between atoms: C_7  and  C_8 
REMARK       I    between atoms: N_12  and  C_7 
REMARK    5  A    between atoms: C_14  and  C_9 
ROOT
ATOM      1  C   UNL d   1      59.586  -9.719  33.069  0.00  0.00     0.107 A 
ATOM      2  N   UNL d   1      59.942  -9.783  31.787  0.00  0.00    -0.299 N 
ATOM      3  C   UNL d   1      60.237  -9.745  32.556  0.00  0.00     0.092 A 
ATOM      4  C   UNL d   1      58.898  -9.741  32.614  0.00  0.00     0.028 A 
ATOM      5  C   UNL d   1      59.121  -9.781  31.818  0.00  0.00     0.065 A 
ATOM      6  C   UNL d   1      58.102  -9.729  32.821  0.00  0.00     0.002 A 
ATOM      7  C   UNL d   1      58.539  -9.809  31.235  0.00  0.00     0.018 A 
ATOM      8  C   UNL d   1      57.516  -9.758  32.235  0.00  0.00     0.000 A 
ATOM      9  C   UNL d   1      57.743  -9.798  31.441  0.00  0.00     0.002 A 
ENDROOT
BRANCH   1  10
ATOM     10  S   UNL d   1      59.623  -9.677  33.897  0.00  0.00     0.212 S 
ATOM     11  O   UNL d   1      60.436  -9.777  33.798  0.00  0.00    -0.217 OA
ATOM     12  O   UNL d   1      58.807  -9.577  33.992  0.00  0.00    -0.217 OA
BRANCH  10  13
ATOM     13  C   UNL d   1      59.658  -9.636  34.719  0.00  0.00     0.099 C 
BRANCH  13  14
ATOM     14  C   UNL d   1      59.881  -8.935  35.085  0.00  0.00     0.011 A 
ATOM     15  C   UNL d   1      60.681  -8.748  35.157  0.00  0.00     0.001 A 
ATOM     16  C   UNL d   1      60.903  -8.036  35.529  0.00  0.00     0.000 A 
ATOM     17  C   UNL d   1      60.322  -7.521  35.822  0.00  0.00     0.000 A 
ATOM     18  C   UNL d   1      59.526  -7.722  35.742  0.00  0.00     0.000 A 
ATOM     19  C   UNL d   1      59.310  -8.423  35.376  0.00  0.00     0.001 A 
ENDBRANCH  13  14
ENDBRANCH  10  13
ENDBRANCH   1  10
BRANCH   2  20
ATOM     20  C   UNL d   1      60.397  -9.818  31.100  0.00  0.00     0.142 C 
BRANCH  20  21
ATOM     21  C   UNL d   1      60.715  -9.129  30.781  0.00  0.00     0.283 C 
ATOM     22  N   UNL d   1      60.813  -9.058  29.965  0.00  0.00    -0.268 N 
ATOM     23  C   UNL d   1      61.133  -8.365  29.638  0.00  0.00     0.102 C 
ATOM     24  C   UNL d   1      60.592  -9.676  29.467  0.00  0.00     0.102 C 
ATOM     25  O   UNL d   1      60.936  -8.511  31.277  0.00  0.00    -0.265 OA
ENDBRANCH  20  21
ENDBRANCH   2  20
TORSDOF 5
ENDMDL
MODEL 5
REMARK VINA RESULT:      -0.0      1.507      4.196
REMARK  5 active torsions:
REMARK  status: ('A' for Active; 'I' for Inactive)
REMARK    1  A    between atoms: S_2  and  C_1 
REMARK    2  A    between atoms: C_9  and  S_2 
REMARK    3  A    between atoms: C_8  and  N_3 
REMARK    4  A    between atoms: C_7  and  C_8 
REMARK       I    between atoms: N_12  and  C_7 
REMARK    5  A    between atoms: C_14  and  C_9 
ROOT
ATOM      1  C   UNL d   1      58.048  -0.200  30.879  0.00  0.00     0.107 A 
ATOM      2  N   UNL d   1      58.891  -0.996  30.222  0.00  0.00    -0.299 N 
ATOM      3  C   UNL d   1      58.583  -0.828  30.968  0.00  0.00     0.092 A 
ATOM      4  C   UNL d   1      58.032   0.013  30.082  0.00  0.00     0.028 A 
ATOM      5  C   UNL d   1      58.556  -0.483  29.676  0.00  0.00     0.065 A 
ATOM      6  C   UNL d   1      57.610   0.591  29.676  0.00  0.00     0.002 A 
ATOM      7  C   UNL d   1      58.651  -0.393  28.861  0.00  0.00     0.018 A 
ATOM      8  C   UNL d   1      57.705   0.682  28.858  0.00  0.00     0.000 A 
ATOM      9  C   UNL d   1      58.229   0.185  28.455  0.00  0.00     0.002 A 
ENDROOT
BRANCH   1  10
ATOM     10  S   UNL d   1      57.608   0.152  31.487  0.00  0.00     0.212 S 
ATOM     11  O   UNL d   1      56.987   0.154  30.945  0.00  0.00    -0.217 OA
ATOM     12  O   UNL d   1      58.233   0.148  32.030  0.00  0.00    -0.217 OA
BRANCH  10  13
ATOM     13  C   UNL d   1      57.172   0.501  32.092  0.00  0.00     0.099 C 
BRANCH  13  14
ATOM     14  C   UNL d   1      56.596   0.066  32.487  0.00  0.00     0.011 A 
ATOM     15  C   UNL d   1      56.639  -0.757  32.492  0.00  0.00     0.001 A 
ATOM     16  C   UNL d   1      56.053  -1.195  32.893  0.00  0.00     0.000 A 
ATOM     17  C   UNL d   1      55.435  -0.803  33.282  0.00  0.00     0.000 A 
ATOM     18  C   UNL d   1      55.407   0.022  33.268  0.00  0.00     0.000 A 
ATOM     19  C   UNL d   1      55.983   0.451  32.873  0.00  0.00     0.001 A 
ENDBRANCH  13  14
ENDBRANCH  10  13
ENDBRANCH   1  10
BRANCH   2  20
ATOM     20  C   UNL d   1      59.445  -1.584  30.053  0.00  0.00     0.142 C 
BRANCH  20  21
ATOM     21  C   UNL d   1      59.193  -2.327  29.801  0.00  0.00     0.283 C 
ATOM     22  N   UNL d   1      59.715  -2.824  29.399  0.00  0.00    -0.268 N 
ATOM     23  C   UNL d   1      59.467  -3.574  29.142  0.00  0.00     0.102 C 
ATOM     24  C   UNL d   1      60.487  -2.579  29.250  0.00  0.00     0.102 C 
ATOM     25  O   UNL d   1      58.422  -2.571  29.949  0.00  0.00    -0.265 OA
ENDBRANCH  20  21
ENDBRANCH   2  20
TORSDOF 5
ENDMDL
