MODEL 1
REMARK VINA RESULT:      -8.3      0.000      0.000
REMARK  2 active torsions:
REMARK  status: ('A' for Active; 'I' for Inactive)
REMARK    1  A    between atoms: C_2  and  N_1 
REMARK    2  A    between atoms: O_12  and  C_10 
ROOT
ATOM      1  C   UNL d   1      53.747  32.143  53.781  0.00  0.00     0.072 A 
ATOM      2  C   UNL d   1      53.916  31.339  53.820  0.00  0.00     0.042 A 
ATOM      3  C   UNL d   1      53.426  30.811  53.420  0.00  0.00     0.096 A 
ATOM      4  C   UNL d   1      53.095  32.411  53.348  0.00  0.00     0.018 A 
ATOM      5  C   UNL d   1      52.615  31.899  52.957  0.00  0.00     0.004 A 
ATOM      6  C   UNL d   1      52.776  31.073  52.988  0.00  0.00     0.024 A 
ENDROOT
BRANCH   1   7
ATOM      7  N   UNL d   1      54.238  32.674  54.181  0.00  0.00    -0.242 N 
ATOM      8  C   UNL d   1      54.169  32.912  54.955  0.00  0.00     0.267 A 
ATOM      9  C   UNL d   1      54.775  33.446  55.124  0.00  0.00     0.066 A 
ATOM     10  O   UNL d   1      53.589  32.661  55.486  0.00  0.00    -0.267 OA
ATOM     11  C   UNL d   1      55.227  33.536  54.433  0.00  0.00     0.066 A 
ATOM     12  C   UNL d   1      54.898  33.058  53.840  0.00  0.00     0.267 A 
ATOM     13  O   UNL d   1      55.172  32.982  53.073  0.00  0.00    -0.267 OA
ENDBRANCH   1   7
BRANCH   3  14
ATOM     14  O   UNL d   1      53.592  29.994  53.456  0.00  0.00    -0.328 OA
ATOM     15  C   UNL d   1      53.064  29.504  53.832  0.00  0.00     0.181 C 
ENDBRANCH   3  14
TORSDOF 2
ENDMDL
MODEL 2
REMARK VINA RESULT:      -8.1      1.893      2.581
REMARK  2 active torsions:
REMARK  status: ('A' for Active; 'I' for Inactive)
REMARK    1  A    between atoms: C_2  and  N_1 
REMARK    2  A    between atoms: O_12  and  C_10 
ROOT
ATOM      1  C   UNL d   1      53.038  33.927  53.762  0.00  0.00     0.072 A 
ATOM      2  C   UNL d   1      52.325  33.522  53.821  0.00  0.00     0.042 A 
ATOM      3  C   UNL d   1      51.698  33.750  53.338  0.00  0.00     0.096 A 
ATOM      4  C   UNL d   1      53.119  34.551  53.225  0.00  0.00     0.018 A 
ATOM      5  C   UNL d   1      52.509  34.776  52.753  0.00  0.00     0.004 A 
ATOM      6  C   UNL d   1      51.773  34.370  52.803  0.00  0.00     0.024 A 
ENDROOT
BRANCH   1   7
ATOM      7  N   UNL d   1      53.668  33.700  54.246  0.00  0.00    -0.242 N 
ATOM      8  C   UNL d   1      53.869  34.020  54.966  0.00  0.00     0.267 A 
ATOM      9  C   UNL d   1      54.534  33.627  55.255  0.00  0.00     0.066 A 
ATOM     10  O   UNL d   1      53.473  34.637  55.346  0.00  0.00    -0.267 OA
ATOM     11  C   UNL d   1      54.746  33.050  54.695  0.00  0.00     0.066 A 
ATOM     12  C   UNL d   1      54.210  33.089  54.063  0.00  0.00     0.267 A 
ATOM     13  O   UNL d   1      54.217  32.619  53.393  0.00  0.00    -0.267 OA
ENDBRANCH   1   7
BRANCH   3  14
ATOM     14  O   UNL d   1      50.971  33.342  53.394  0.00  0.00    -0.328 OA
ATOM     15  C   UNL d   1      50.315  33.664  53.040  0.00  0.00     0.181 C 
ENDBRANCH   3  14
TORSDOF 2
ENDMDL
MODEL 3
REMARK VINA RESULT:      -8.0      1.891      3.060
REMARK  2 active torsions:
REMARK  status: ('A' for Active; 'I' for Inactive)
REMARK    1  A    between atoms: C_2  and  N_1 
REMARK    2  A    between atoms: O_12  and  C_10 
ROOT
ATOM      1  C   UNL d   1      52.790  33.201  53.520  0.00  0.00     0.072 A 
ATOM      2  C   UNL d   1      53.089  33.369  54.267  0.00  0.00     0.042 A 
ATOM      3  C   UNL d   1      53.765  32.972  54.522  0.00  0.00     0.096 A 
ATOM      4  C   UNL d   1      53.163  32.643  53.037  0.00  0.00     0.018 A 
ATOM      5  C   UNL d   1      53.822  32.254  53.283  0.00  0.00     0.004 A 
ATOM      6  C   UNL d   1      54.140  32.416  54.046  0.00  0.00     0.024 A 
ENDROOT
BRANCH   1   7
ATOM      7  N   UNL d   1      52.112  33.598  53.263  0.00  0.00    -0.242 N 
ATOM      8  C   UNL d   1      51.351  33.312  53.263  0.00  0.00     0.267 A 
ATOM      9  C   UNL d   1      50.849  33.892  52.959  0.00  0.00     0.066 A 
ATOM     10  O   UNL d   1      51.117  32.565  53.524  0.00  0.00    -0.267 OA
ATOM     11  C   UNL d   1      51.318  34.551  52.767  0.00  0.00     0.066 A 
ATOM     12  C   UNL d   1      52.106  34.375  52.954  0.00  0.00     0.267 A 
ATOM     13  O   UNL d   1      52.750  34.872  52.853  0.00  0.00    -0.267 OA
ENDBRANCH   1   7
BRANCH   3  14
ATOM     14  O   UNL d   1      54.074  33.139  55.279  0.00  0.00    -0.328 OA
ATOM     15  C   UNL d   1      54.821  33.452  55.336  0.00  0.00     0.181 C 
ENDBRANCH   3  14
TORSDOF 2
ENDMDL
MODEL 4
REMARK VINA RESULT:      -7.9      1.141      3.162
REMARK  2 active torsions:
REMARK  status: ('A' for Active; 'I' for Inactive)
REMARK    1  A    between atoms: C_2  and  N_1 
REMARK    2  A    between atoms: O_12  and  C_10 
ROOT
ATOM      1  C   UNL d   1      53.756  32.295  53.799  0.00  0.00     0.072 A 
ATOM      2  C   UNL d   1      53.377  32.778  54.347  0.00  0.00     0.042 A 
ATOM      3  C   UNL d   1      53.793  33.411  54.671  0.00  0.00     0.096 A 
ATOM      4  C   UNL d   1      54.539  32.447  53.581  0.00  0.00     0.018 A 
ATOM      5  C   UNL d   1      54.947  33.064  53.896  0.00  0.00     0.004 A 
ATOM      6  C   UNL d   1      54.572  33.566  54.458  0.00  0.00     0.024 A 
ENDROOT
BRANCH   1   7
ATOM      7  N   UNL d   1      53.341  31.659  53.473  0.00  0.00    -0.242 N 
ATOM      8  C   UNL d   1      52.832  31.684  52.839  0.00  0.00     0.267 A 
ATOM      9  C   UNL d   1      52.542  30.924  52.702  0.00  0.00     0.066 A 
ATOM     10  O   UNL d   1      52.638  32.357  52.404  0.00  0.00    -0.267 OA
ATOM     11  C   UNL d   1      52.883  30.421  53.269  0.00  0.00     0.066 A 
ATOM     12  C   UNL d   1      53.382  30.872  53.753  0.00  0.00     0.267 A 
ATOM     13  O   UNL d   1      53.827  30.594  54.382  0.00  0.00    -0.267 OA
ENDBRANCH   1   7
BRANCH   3  14
ATOM     14  O   UNL d   1      53.414  33.905  55.227  0.00  0.00    -0.328 OA
ATOM     15  C   UNL d   1      53.272  34.679  55.029  0.00  0.00     0.181 C 
ENDBRANCH   3  14
TORSDOF 2
ENDMDL
MODEL 5
REMARK VINA RESULT:      -7.6      1.938      2.705
REMARK  2 active torsions:
REMARK  status: ('A' for Active; 'I' for Inactive)
REMARK    1  A    between atoms: C_2  and  N_1 
REMARK    2  A    between atoms: O_12  and  C_10 
ROOT
ATOM      1  C   UNL d   1      52.725  33.272  53.670  0.00  0.00     0.072 A 
ATOM      2  C   UNL d   1      53.012  32.588  53.316  0.00  0.00     0.042 A 
ATOM      3  C   UNL d   1      53.614  32.171  53.691  0.00  0.00     0.096 A 
ATOM      4  C   UNL d   1      53.037  33.532  54.390  0.00  0.00     0.018 A 
ATOM      5  C   UNL d   1      53.625  33.126  54.760  0.00  0.00     0.004 A 
ATOM      6  C   UNL d   1      53.929  32.424  54.408  0.00  0.00     0.024 A 
ENDROOT
BRANCH   1   7
ATOM      7  N   UNL d   1      52.121  33.693  53.295  0.00  0.00    -0.242 N 
ATOM      8  C   UNL d   1      51.334  33.491  53.262  0.00  0.00     0.267 A 
ATOM      9  C   UNL d   1      50.929  34.067  52.832  0.00  0.00     0.066 A 
ATOM     10  O   UNL d   1      50.995  32.819  53.603  0.00  0.00    -0.267 OA
ATOM     11  C   UNL d   1      51.484  34.637  52.595  0.00  0.00     0.066 A 
ATOM     12  C   UNL d   1      52.229  34.411  52.880  0.00  0.00     0.267 A 
ATOM     13  O   UNL d   1      52.932  34.818  52.772  0.00  0.00    -0.267 OA
ENDBRANCH   1   7
BRANCH   3  14
ATOM     14  O   UNL d   1      53.911  31.475  53.336  0.00  0.00    -0.328 OA
ATOM     15  C   UNL d   1      53.674  30.756  53.630  0.00  0.00     0.181 C 
ENDBRANCH   3  14
TORSDOF 2
ENDMDL
