MODEL 1
REMARK VINA RESULT:       3.6      0.000      0.000
REMARK  3 active torsions:
REMARK  status: ('A' for Active; 'I' for Inactive)
REMARK    1  A    between atoms: C_8  and  C_1 
REMARK    2  A    between atoms: C_9  and  C_4 
REMARK    3  A    between atoms: O_20  and  C_8 
ROOT
ATOM      1  C   UNL d   1     -41.992-121.462 -53.806  0.00  0.00     0.107 A 
ATOM      2  C   UNL d   1     -42.018-120.884 -53.206  0.00  0.00     0.208 A 
ATOM      3  C   UNL d   1     -41.639-122.461 -52.829  0.00  0.00     0.062 A 
ATOM      4  C   UNL d   1     -41.799-122.257 -53.601  0.00  0.00     0.020 A 
ATOM      5  C   UNL d   1     -41.665-121.883 -52.228  0.00  0.00     0.101 A 
ATOM      6  O   UNL d   1     -41.850-121.102 -52.401  0.00  0.00    -0.288 OA
ATOM      7  C   UNL d   1     -41.453-123.236 -52.644  0.00  0.00     0.194 A 
ATOM      8  C   UNL d   1     -41.505-122.081 -51.444  0.00  0.00     0.002 A 
ATOM      9  C   UNL d   1     -41.318-122.867 -51.266  0.00  0.00     0.042 A 
ATOM     10  C   UNL d   1     -41.292-123.445 -51.867  0.00  0.00     0.019 A 
ATOM     11  O   UNL d   1     -41.427-123.817 -53.247  0.00  0.00    -0.287 OA
ATOM     12  N   UNL d   1     -42.210-120.082 -53.398  0.00  0.00    -0.121 N 
ATOM     13  C   UNL d   1     -41.123-123.372 -50.661  0.00  0.00     0.009 C 
ATOM     14  C   UNL d   1     -41.300-122.429 -50.565  0.00  0.00     0.009 C 
ENDROOT
BRANCH   4  15
ATOM     15  C   UNL d   1     -41.771-122.827 -54.179  0.00  0.00     0.030 A 
ATOM     16  S   UNL d   1     -42.413-123.213 -54.763  0.00  0.00    -0.086 SA
ATOM     17  C   UNL d   1     -41.733-123.817 -55.187  0.00  0.00     0.035 A 
ATOM     18  C   UNL d   1     -41.137-123.646 -54.837  0.00  0.00     0.007 A 
ATOM     19  C   UNL d   1     -41.160-123.146 -54.329  0.00  0.00     0.007 A 
ENDBRANCH   4  15
BRANCH   1  20
ATOM     20  C   UNL d   1     -42.158-121.237 -54.598  0.00  0.00     0.299 C 
ATOM     21  O   UNL d   1     -42.943-121.242 -54.892  0.00  0.00    -0.259 OA
BRANCH  20  22
ATOM     22  O   UNL d   1     -41.556-121.005 -55.108  0.00  0.00    -0.296 OA
ATOM     23  C   UNL d   1     -41.706-120.868 -55.929  0.00  0.00     0.185 C 
ENDBRANCH  20  22
ENDBRANCH   1  20
TORSDOF 3
ENDMDL
MODEL 2
REMARK VINA RESULT:       5.2      1.509      2.642
REMARK  3 active torsions:
REMARK  status: ('A' for Active; 'I' for Inactive)
REMARK    1  A    between atoms: C_8  and  C_1 
REMARK    2  A    between atoms: C_9  and  C_4 
REMARK    3  A    between atoms: O_20  and  C_8 
ROOT
ATOM      1  C   UNL d   1     -41.731-122.494 -52.695  0.00  0.00     0.107 A 
ATOM      2  C   UNL d   1     -41.672-123.322 -52.618  0.00  0.00     0.208 A 
ATOM      3  C   UNL d   1     -41.521-122.347 -51.276  0.00  0.00     0.062 A 
ATOM      4  C   UNL d   1     -41.652-122.013 -52.006  0.00  0.00     0.020 A 
ATOM      5  C   UNL d   1     -41.462-123.176 -51.199  0.00  0.00     0.101 A 
ATOM      6  O   UNL d   1     -41.534-123.667 -51.853  0.00  0.00    -0.288 OA
ATOM      7  C   UNL d   1     -41.447-121.869 -50.617  0.00  0.00     0.194 A 
ATOM      8  C   UNL d   1     -41.329-123.524 -50.464  0.00  0.00     0.002 A 
ATOM      9  C   UNL d   1     -41.256-123.032 -49.803  0.00  0.00     0.042 A 
ATOM     10  C   UNL d   1     -41.315-122.204 -49.879  0.00  0.00     0.019 A 
ATOM     11  O   UNL d   1     -41.507-121.037 -50.694  0.00  0.00    -0.287 OA
ATOM     12  N   UNL d   1     -41.748-123.816 -53.301  0.00  0.00    -0.121 N 
ATOM     13  C   UNL d   1     -41.133-123.030 -49.000  0.00  0.00     0.009 C 
ATOM     14  C   UNL d   1     -41.173-123.817 -49.555  0.00  0.00     0.009 C 
ENDROOT
BRANCH   4  15
ATOM     15  C   UNL d   1     -41.709-121.204 -52.071  0.00  0.00     0.030 A 
ATOM     16  S   UNL d   1     -42.431-120.591 -52.123  0.00  0.00    -0.086 SA
ATOM     17  C   UNL d   1     -41.817-119.800 -52.184  0.00  0.00     0.035 A 
ATOM     18  C   UNL d   1     -41.174-120.104 -52.156  0.00  0.00     0.007 A 
ATOM     19  C   UNL d   1     -41.123-120.813 -52.100  0.00  0.00     0.007 A 
ENDBRANCH   4  15
BRANCH   1  20
ATOM     20  C   UNL d   1     -41.866-122.162 -53.454  0.00  0.00     0.299 C 
ATOM     21  O   UNL d   1     -42.527-121.666 -53.597  0.00  0.00    -0.259 OA
BRANCH  20  22
ATOM     22  O   UNL d   1     -41.355-122.313 -54.081  0.00  0.00    -0.296 OA
ATOM     23  C   UNL d   1     -41.573-122.134 -54.878  0.00  0.00     0.185 C 
ENDBRANCH  20  22
ENDBRANCH   1  20
TORSDOF 3
ENDMDL
MODEL 3
REMARK VINA RESULT:       6.2      2.766      3.954
REMARK  3 active torsions:
REMARK  status: ('A' for Active; 'I' for Inactive)
REMARK    1  A    between atoms: C_8  and  C_1 
REMARK    2  A    between atoms: C_9  and  C_4 
REMARK    3  A    between atoms: O_20  and  C_8 
ROOT
ATOM      1  C   UNL d   1     -43.270-122.476 -50.094  0.00  0.00     0.107 A 
ATOM      2  C   UNL d   1     -43.795-122.300 -49.470  0.00  0.00     0.208 A 
ATOM      3  C   UNL d   1     -42.357-123.079 -49.155  0.00  0.00     0.062 A 
ATOM      4  C   UNL d   1     -42.545-122.871 -49.919  0.00  0.00     0.020 A 
ATOM      5  C   UNL d   1     -42.881-122.903 -48.531  0.00  0.00     0.101 A 
ATOM      6  O   UNL d   1     -43.593-122.519 -48.673  0.00  0.00    -0.288 OA
ATOM      7  C   UNL d   1     -41.651-123.461 -49.000  0.00  0.00     0.194 A 
ATOM      8  C   UNL d   1     -42.699-123.110 -47.754  0.00  0.00     0.002 A 
ATOM      9  C   UNL d   1     -41.982-123.496 -47.608  0.00  0.00     0.042 A 
ATOM     10  C   UNL d   1     -41.457-123.672 -48.232  0.00  0.00     0.019 A 
ATOM     11  O   UNL d   1     -41.123-123.638 -49.627  0.00  0.00    -0.287 OA
ATOM     12  N   UNL d   1     -44.526-121.904 -49.630  0.00  0.00    -0.121 N 
ATOM     13  C   UNL d   1     -41.520-123.817 -47.022  0.00  0.00     0.009 C 
ATOM     14  C   UNL d   1     -42.379-123.399 -46.889  0.00  0.00     0.009 C 
ENDROOT
BRANCH   4  15
ATOM     15  C   UNL d   1     -42.028-123.046 -50.521  0.00  0.00     0.030 A 
ATOM     16  S   UNL d   1     -41.303-122.588 -50.928  0.00  0.00    -0.086 SA
ATOM     17  C   UNL d   1     -41.123-123.342 -51.565  0.00  0.00     0.035 A 
ATOM     18  C   UNL d   1     -41.622-123.817 -51.384  0.00  0.00     0.007 A 
ATOM     19  C   UNL d   1     -42.077-123.664 -50.856  0.00  0.00     0.007 A 
ENDBRANCH   4  15
BRANCH   1  20
ATOM     20  C   UNL d   1     -43.478-122.255 -50.877  0.00  0.00     0.299 C 
ATOM     21  O   UNL d   1     -43.941-122.760 -51.359  0.00  0.00    -0.259 OA
BRANCH  20  22
ATOM     22  O   UNL d   1     -43.232-121.537 -51.194  0.00  0.00    -0.296 OA
ATOM     23  C   UNL d   1     -43.289-121.381 -52.023  0.00  0.00     0.185 C 
ENDBRANCH  20  22
ENDBRANCH   1  20
TORSDOF 3
ENDMDL
