MODEL 1
REMARK VINA RESULT:      36.5      0.000      0.000
REMARK  8 active torsions:
REMARK  status: ('A' for Active; 'I' for Inactive)
REMARK    1  A    between atoms: N_5  and  C_1 
REMARK    2  A    between atoms: C_2  and  N_5 
REMARK    3  A    between atoms: N_3  and  C_2 
REMARK       I    between atoms: C_6  and  N_3 
REMARK    4  A    between atoms: C_13  and  C_6 
REMARK    5  A    between atoms: C_9  and  C_7 
REMARK    6  A    between atoms: C_11  and  C_9 
REMARK    7  A    between atoms: O_18  and  C_11 
REMARK    8  A    between atoms: C_22  and  O_18 
ROOT
ATOM      1  C   UNL d   1      13.334  14.511  -4.285  0.00  0.00     0.225 C 
ATOM      2  S   UNL d   1      13.581  14.718  -5.046  0.00  0.00    -0.037 SA
ENDROOT
BRANCH   1   3
ATOM      3  N   UNL d   1      12.817  13.887  -4.143  0.00  0.00    -0.192 NA
BRANCH   3   4
ATOM      4  C   UNL d   1      13.108  13.204  -3.816  0.00  0.00     0.196 A 
ATOM      5  N   UNL d   1      13.421  12.988  -3.090  0.00  0.00    -0.220 NA
ATOM      6  C   UNL d   1      13.617  12.222  -3.091  0.00  0.00     0.095 A 
ATOM      7  C   UNL d   1      13.446  11.892  -3.809  0.00  0.00     0.058 A 
ATOM      8  S   UNL d   1      13.128  12.481  -4.281  0.00  0.00    -0.046 SA
BRANCH   6   9
ATOM      9  C   UNL d   1      13.967  11.779  -2.423  0.00  0.00     0.088 C 
BRANCH   9  10
ATOM     10  C   UNL d   1      13.868  12.038  -1.661  0.00  0.00     0.302 C 
ATOM     11  O   UNL d   1      13.168  12.403  -1.429  0.00  0.00    -0.259 OA
BRANCH  10  12
ATOM     12  O   UNL d   1      14.485  11.935  -1.103  0.00  0.00    -0.271 OA
BRANCH  12  13
ATOM     13  C   UNL d   1      14.926  12.592  -0.846  0.00  0.00     0.126 C 
ATOM     14  C   UNL d   1      15.191  12.638  -0.078  0.00  0.00     0.029 C 
ENDBRANCH  12  13
ENDBRANCH  10  12
ENDBRANCH   9  10
ENDBRANCH   6   9
ENDBRANCH   3   4
ENDBRANCH   1   3
BRANCH   1  15
ATOM     15  N   UNL d   1      13.622  14.956  -3.631  0.00  0.00    -0.179 NA
ATOM     16  C   UNL d   1      14.195  15.493  -3.759  0.00  0.00     0.281 C 
ATOM     17  O   UNL d   1      14.508  15.618  -4.521  0.00  0.00    -0.265 OA
BRANCH  16  18
ATOM     18  C   UNL d   1      14.497  15.951  -3.107  0.00  0.00     0.058 A 
ATOM     19  C   UNL d   1      14.589  15.607  -2.363  0.00  0.00     0.005 A 
ATOM     20  C   UNL d   1      14.875  16.021  -1.727  0.00  0.00     0.000 A 
ATOM     21  C   UNL d   1      15.082  16.826  -1.833  0.00  0.00     0.000 A 
ATOM     22  C   UNL d   1      14.992  17.167  -2.566  0.00  0.00     0.000 A 
ATOM     23  C   UNL d   1      15.376  17.283  -1.210  0.00  0.00     0.000 C 
ATOM     24  C   UNL d   1      14.702  16.752  -3.221  0.00  0.00     0.005 A 
ENDBRANCH  16  18
ENDBRANCH   1  15
TORSDOF 8
ENDMDL
