MODEL 1
REMARK VINA RESULT:      46.3      0.000      0.000
REMARK  5 active torsions:
REMARK  status: ('A' for Active; 'I' for Inactive)
REMARK    1  A    between atoms: S_10  and  C_6 
REMARK    2  A    between atoms: C_15  and  S_10 
REMARK    3  A    between atoms: C_11  and  C_15 
REMARK       I    between atoms: N_13  and  C_11 
REMARK    4  A    between atoms: C_17  and  N_13 
REMARK    5  A    between atoms: O_25  and  C_18 
ROOT
ATOM      1  C   UNL d   1      46.383 -18.975  42.789  0.00  0.00     0.155 A 
ATOM      2  C   UNL d   1      46.245 -18.182  42.595  0.00  0.00     0.107 A 
ATOM      3  N   UNL d   1      46.489 -19.294  41.399  0.00  0.00    -0.250 N 
ATOM      4  C   UNL d   1      46.505 -19.528  42.196  0.00  0.00     0.285 A 
ATOM      5  N   UNL d   1      46.229 -17.947  41.799  0.00  0.00    -0.220 NA
ATOM      6  C   UNL d   1      46.351 -18.509  41.211  0.00  0.00     0.182 A 
ATOM      7  N   UNL d   1      46.368 -19.045  43.610  0.00  0.00    -0.239 NA
ATOM      8  C   UNL d   1      46.144 -17.758  43.291  0.00  0.00     0.037 A 
ATOM      9  C   UNL d   1      46.220 -18.293  43.927  0.00  0.00     0.083 A 
ATOM     10  O   UNL d   1      46.644 -20.325  42.382  0.00  0.00    -0.265 OA
ATOM     11  C   UNL d   1      46.611 -19.851  40.799  0.00  0.00     0.104 C 
ATOM     12  C   UNL d   1      45.993 -16.963  43.442  0.00  0.00     0.003 A 
ATOM     13  C   UNL d   1      46.145 -18.026  44.707  0.00  0.00     0.019 A 
ATOM     14  C   UNL d   1      45.918 -16.696  44.221  0.00  0.00     0.000 A 
ATOM     15  C   UNL d   1      45.994 -17.226  44.848  0.00  0.00     0.002 A 
ENDROOT
BRANCH   6  16
ATOM     16  S   UNL d   1      46.336 -18.277  40.417  0.00  0.00    -0.044 SA
BRANCH  16  17
ATOM     17  C   UNL d   1      45.641 -17.987  40.082  0.00  0.00     0.101 C 
BRANCH  17  18
ATOM     18  C   UNL d   1      45.675 -17.420  39.487  0.00  0.00     0.286 C 
ATOM     19  N   UNL d   1      44.997 -17.237  39.066  0.00  0.00    -0.208 NA
ATOM     20  O   UNL d   1      46.376 -17.035  39.310  0.00  0.00    -0.265 OA
BRANCH  19  21
ATOM     21  C   UNL d   1      45.026 -16.666  38.465  0.00  0.00     0.085 A 
ATOM     22  C   UNL d   1      45.638 -16.131  38.444  0.00  0.00     0.021 A 
ATOM     23  C   UNL d   1      45.667 -15.560  37.843  0.00  0.00     0.026 A 
ATOM     24  C   UNL d   1      45.076 -15.534  37.268  0.00  0.00     0.094 A 
ATOM     25  C   UNL d   1      44.450 -16.091  37.301  0.00  0.00     0.026 A 
ATOM     26  C   UNL d   1      44.430 -16.651  37.898  0.00  0.00     0.021 A 
BRANCH  24  27
ATOM     27  O   UNL d   1      45.116 -14.958  36.672  0.00  0.00    -0.328 OA
ATOM     28  C   UNL d   1      45.843 -14.681  36.410  0.00  0.00     0.181 C 
ENDBRANCH  24  27
ENDBRANCH  19  21
ENDBRANCH  17  18
ENDBRANCH  16  17
ENDBRANCH   6  16
TORSDOF 5
ENDMDL
