MODEL 1
REMARK VINA RESULT:      29.5      0.000      0.000
REMARK  0 active torsions:
REMARK  status: ('A' for Active; 'I' for Inactive)
ROOT
ATOM      1  C   UNL d   1      14.072  13.600  -2.508  0.00  0.00     0.166 A 
ATOM      2  C   UNL d   1      13.913  12.826  -2.739  0.00  0.00     0.117 A 
ATOM      3  N   UNL d   1      13.844  14.084  -3.138  0.00  0.00    -0.288 N 
ATOM      4  C   UNL d   1      13.600  12.831  -3.483  0.00  0.00     0.038 A 
ATOM      5  N   UNL d   1      14.398  13.769  -1.765  0.00  0.00    -0.225 NA
ATOM      6  C   UNL d   1      13.557  13.616  -3.733  0.00  0.00     0.067 A 
ATOM      7  N   UNL d   1      14.093  12.230  -2.203  0.00  0.00    -0.241 NA
ATOM      8  C   UNL d   1      14.567  13.159  -1.252  0.00  0.00     0.101 A 
ATOM      9  C   UNL d   1      14.409  12.391  -1.484  0.00  0.00     0.099 A 
ATOM     10  C   UNL d   1      13.256  13.796  -4.479  0.00  0.00     0.018 A 
ATOM     11  C   UNL d   1      13.343  12.225  -3.980  0.00  0.00     0.015 A 
ATOM     12  C   UNL d   1      13.042  12.406  -4.727  0.00  0.00     0.058 A 
ATOM     13  C   UNL d   1      13.901  14.892  -3.153  0.00  0.00     0.101 C 
ATOM     14  C   UNL d   1      12.999  13.191  -4.976  0.00  0.00     0.013 A 
ATOM     15 CL   UNL d   1      12.785  11.799  -5.225  0.00  0.00    -0.082 Cl
ATOM     16  C   UNL d   1      14.884  13.320  -0.531  0.00  0.00     0.021 A 
ATOM     17  C   UNL d   1      14.577  11.781  -0.971  0.00  0.00     0.021 A 
ATOM     18  C   UNL d   1      14.905  11.921  -0.219  0.00  0.00     0.002 A 
ATOM     19  C   UNL d   1      15.052  12.691  -0.015  0.00  0.00     0.002 A 
ENDROOT
TORSDOF 0
ENDMDL
MODEL 2
REMARK VINA RESULT:      31.3      1.048      1.727
REMARK  0 active torsions:
REMARK  status: ('A' for Active; 'I' for Inactive)
ROOT
ATOM      1  C   UNL d   1      13.605  12.549  -2.786  0.00  0.00     0.166 A 
ATOM      2  C   UNL d   1      13.889  13.321  -2.794  0.00  0.00     0.117 A 
ATOM      3  N   UNL d   1      13.156  12.458  -3.474  0.00  0.00    -0.288 N 
ATOM      4  C   UNL d   1      13.626  13.693  -3.460  0.00  0.00     0.038 A 
ATOM      5  N   UNL d   1      13.785  12.030  -2.165  0.00  0.00    -0.225 NA
ATOM      6  C   UNL d   1      13.168  13.154  -3.885  0.00  0.00     0.067 A 
ATOM      7  N   UNL d   1      14.358  13.554  -2.161  0.00  0.00    -0.241 NA
ATOM      8  C   UNL d   1      14.252  12.286  -1.550  0.00  0.00     0.101 A 
ATOM      9  C   UNL d   1      14.534  13.054  -1.559  0.00  0.00     0.099 A 
ATOM     10  C   UNL d   1      12.822  13.380  -4.599  0.00  0.00     0.018 A 
ATOM     11  C   UNL d   1      13.738  14.458  -3.748  0.00  0.00     0.015 A 
ATOM     12  C   UNL d   1      13.392  14.683  -4.462  0.00  0.00     0.058 A 
ATOM     13  C   UNL d   1      12.769  11.781  -3.695  0.00  0.00     0.101 C 
ATOM     14  C   UNL d   1      12.934  14.144  -4.887  0.00  0.00     0.013 A 
ATOM     15 CL   UNL d   1      13.504  15.448  -4.751  0.00  0.00    -0.082 Cl
ATOM     16  C   UNL d   1      14.428  11.784  -0.946  0.00  0.00     0.021 A 
ATOM     17  C   UNL d   1      15.001  13.310  -0.944  0.00  0.00     0.021 A 
ATOM     18  C   UNL d   1      15.198  12.811  -0.307  0.00  0.00     0.002 A 
ATOM     19  C   UNL d   1      14.906  12.056  -0.323  0.00  0.00     0.002 A 
ENDROOT
TORSDOF 0
ENDMDL
