MODEL 1
REMARK VINA RESULT:      -8.6      0.000      0.000
REMARK  4 active torsions:
REMARK  status: ('A' for Active; 'I' for Inactive)
REMARK    1  A    between atoms: N_5  and  S_1 
REMARK    2  A    between atoms: C_8  and  S_1 
REMARK    3  A    between atoms: C_2  and  C_7 
REMARK    4  A    between atoms: C_11  and  N_5 
ROOT
ATOM      1  C   UNL d   1      51.783  33.402  53.429  0.00  0.00     0.025 A 
ATOM      2  C   UNL d   1      51.520  34.054  52.997  0.00  0.00     0.020 A 
ATOM      3  C   UNL d   1      50.756  34.077  52.699  0.00  0.00     0.094 A 
ATOM      4  C   UNL d   1      51.282  32.764  53.566  0.00  0.00     0.002 A 
ATOM      5  C   UNL d   1      50.251  33.428  52.839  0.00  0.00     0.020 A 
ATOM      6  C   UNL d   1      52.030  34.693  52.864  0.00  0.00     0.002 C 
ATOM      7  C   UNL d   1      50.519  32.775  53.273  0.00  0.00     0.002 A 
ENDROOT
BRANCH   3   8
ATOM      8  N   UNL d   1      50.492  34.720  52.272  0.00  0.00    -0.158 NA
BRANCH   8   9
ATOM      9  S   UNL d   1      49.709  34.966  52.338  0.00  0.00     0.285 S 
ATOM     10  O   UNL d   1      49.537  34.579  51.624  0.00  0.00    -0.198 OA
ATOM     11  O   UNL d   1      49.889  35.350  53.050  0.00  0.00    -0.198 OA
BRANCH   9  12
ATOM     12  C   UNL d   1      48.923  35.212  52.401  0.00  0.00     0.107 A 
ATOM     13  C   UNL d   1      48.403  35.081  51.769  0.00  0.00     0.040 A 
ATOM     14  C   UNL d   1      47.621  35.331  51.845  0.00  0.00     0.123 A 
ATOM     15  O   UNL d   1      47.099  35.208  51.228  0.00  0.00    -0.301 OA
ATOM     16  C   UNL d   1      47.358  35.703  52.533  0.00  0.00     0.123 A 
ATOM     17  C   UNL d   1      46.315  35.451  51.288  0.00  0.00     0.149 A 
ATOM     18  C   UNL d   1      46.059  35.822  51.980  0.00  0.00     0.149 A 
ATOM     19  O   UNL d   1      46.581  35.945  52.596  0.00  0.00    -0.301 OA
ATOM     20  C   UNL d   1      47.884  35.825  53.152  0.00  0.00     0.028 A 
ATOM     21  C   UNL d   1      48.669  35.581  53.089  0.00  0.00     0.015 A 
ENDBRANCH   9  12
ENDBRANCH   8   9
ENDBRANCH   3   8
BRANCH   1  22
ATOM     22  C   UNL d   1      52.564  33.392  53.727  0.00  0.00     0.112 A 
ATOM     23  S   UNL d   1      53.215  33.044  53.364  0.00  0.00    -0.047 SA
ATOM     24  C   UNL d   1      53.881  33.163  53.849  0.00  0.00     0.130 A 
ATOM     25  N   UNL d   1      54.667  32.951  53.785  0.00  0.00    -0.236 NA
ATOM     26  C   UNL d   1      53.620  33.593  54.518  0.00  0.00     0.106 A 
ATOM     27  C   UNL d   1      55.201  33.157  54.372  0.00  0.00     0.100 A 
ATOM     28  C   UNL d   1      54.950  33.579  55.032  0.00  0.00     0.022 A 
ATOM     29  C   UNL d   1      54.162  33.798  55.107  0.00  0.00     0.023 A 
ATOM     30  N   UNL d   1      52.805  33.735  54.442  0.00  0.00    -0.237 NA
ENDBRANCH   1  22
TORSDOF 4
ENDMDL
MODEL 2
REMARK VINA RESULT:      -8.3      1.998      6.057
REMARK  4 active torsions:
REMARK  status: ('A' for Active; 'I' for Inactive)
REMARK    1  A    between atoms: N_5  and  S_1 
REMARK    2  A    between atoms: C_8  and  S_1 
REMARK    3  A    between atoms: C_2  and  C_7 
REMARK    4  A    between atoms: C_11  and  N_5 
ROOT
ATOM      1  C   UNL d   1      48.669  34.942  51.699  0.00  0.00     0.025 A 
ATOM      2  C   UNL d   1      49.125  34.911  52.386  0.00  0.00     0.020 A 
ATOM      3  C   UNL d   1      49.877  34.583  52.374  0.00  0.00     0.094 A 
ATOM      4  C   UNL d   1      48.964  34.644  50.990  0.00  0.00     0.002 A 
ATOM      5  C   UNL d   1      50.173  34.282  51.655  0.00  0.00     0.020 A 
ATOM      6  C   UNL d   1      48.821  35.213  53.095  0.00  0.00     0.002 C 
ATOM      7  C   UNL d   1      49.712  34.315  50.966  0.00  0.00     0.002 A 
ENDROOT
BRANCH   3   8
ATOM      8  N   UNL d   1      50.330  34.551  53.052  0.00  0.00    -0.158 NA
BRANCH   8   9
ATOM      9  S   UNL d   1      50.986  34.053  53.087  0.00  0.00     0.285 S 
ATOM     10  O   UNL d   1      50.513  33.473  53.446  0.00  0.00    -0.198 OA
ATOM     11  O   UNL d   1      51.450  34.639  52.727  0.00  0.00    -0.198 OA
BRANCH   9  12
ATOM     12  C   UNL d   1      51.640  33.552  53.123  0.00  0.00     0.107 A 
ATOM     13  C   UNL d   1      51.535  32.735  53.025  0.00  0.00     0.040 A 
ATOM     14  C   UNL d   1      52.197  32.246  53.064  0.00  0.00     0.123 A 
ATOM     15  O   UNL d   1      52.106  31.439  52.968  0.00  0.00    -0.301 OA
ATOM     16  C   UNL d   1      52.949  32.558  53.197  0.00  0.00     0.123 A 
ATOM     17  C   UNL d   1      52.757  30.937  53.004  0.00  0.00     0.149 A 
ATOM     18  C   UNL d   1      53.506  31.256  53.138  0.00  0.00     0.149 A 
ATOM     19  O   UNL d   1      53.597  32.062  53.233  0.00  0.00    -0.301 OA
ATOM     20  C   UNL d   1      53.039  33.368  53.293  0.00  0.00     0.028 A 
ATOM     21  C   UNL d   1      52.386  33.870  53.256  0.00  0.00     0.015 A 
ENDBRANCH   9  12
ENDBRANCH   8   9
ENDBRANCH   3   8
BRANCH   1  22
ATOM     22  C   UNL d   1      47.904  35.278  51.725  0.00  0.00     0.112 A 
ATOM     23  S   UNL d   1      47.702  35.988  52.088  0.00  0.00    -0.047 SA
ATOM     24  C   UNL d   1      46.886  36.114  51.982  0.00  0.00     0.130 A 
ATOM     25  N   UNL d   1      46.375  36.708  52.211  0.00  0.00    -0.236 NA
ATOM     26  C   UNL d   1      46.595  35.463  51.544  0.00  0.00     0.106 A 
ATOM     27  C   UNL d   1      45.580  36.670  52.015  0.00  0.00     0.100 A 
ATOM     28  C   UNL d   1      45.288  36.032  51.585  0.00  0.00     0.022 A 
ATOM     29  C   UNL d   1      45.793  35.429  51.349  0.00  0.00     0.023 A 
ATOM     30  N   UNL d   1      47.226  34.946  51.385  0.00  0.00    -0.237 NA
ENDBRANCH   1  22
TORSDOF 4
ENDMDL
