MODEL 1
REMARK VINA RESULT:      73.2      0.000      0.000
REMARK  6 active torsions:
REMARK  status: ('A' for Active; 'I' for Inactive)
REMARK    1  A    between atoms: C_12  and  C_3 
REMARK    2  A    between atoms: O_11  and  C_5 
REMARK    3  A    between atoms: O_16  and  C_10 
REMARK    4  A    between atoms: C_13  and  O_11 
REMARK    5  A    between atoms: C_15  and  O_16 
REMARK    6  A    between atoms: O_24  and  C_21 
ROOT
ATOM      1  C   UNL d   1     -54.766-101.101 -40.992  0.00  0.00     0.201 A 
ATOM      2  C   UNL d   1     -54.761-100.971 -41.808  0.00  0.00     0.085 A 
ATOM      3  C   UNL d   1     -54.792-101.860 -40.695  0.00  0.00     0.064 A 
ATOM      4  C   UNL d   1     -54.783-101.618 -42.319  0.00  0.00     0.107 A 
ATOM      5  C   UNL d   1     -54.734-100.212 -42.117  0.00  0.00     0.110 A 
ATOM      6  C   UNL d   1     -54.815-102.507 -41.206  0.00  0.00     0.126 A 
ATOM      7  O   UNL d   1     -54.811-102.389 -42.021  0.00  0.00    -0.305 OA
ATOM      8  C   UNL d   1     -54.779-101.500 -43.135  0.00  0.00     0.050 A 
ATOM      9  C   UNL d   1     -54.730-100.093 -42.920  0.00  0.00     0.050 A 
ATOM     10  C   UNL d   1     -54.752-100.740 -43.431  0.00  0.00     0.107 A 
ATOM     11  O   UNL d   1     -54.743-100.454 -40.480  0.00  0.00    -0.286 OA
ENDROOT
BRANCH   3  12
ATOM     12  C   UNL d   1     -54.797-101.983 -39.873  0.00  0.00     0.005 A 
ATOM     13  C   UNL d   1     -54.761-102.747 -39.570  0.00  0.00     0.002 A 
ATOM     14  C   UNL d   1     -54.765-102.869 -38.757  0.00  0.00     0.024 A 
ATOM     15  C   UNL d   1     -54.806-102.219 -38.244  0.00  0.00     0.094 A 
ATOM     16  C   UNL d   1     -54.842-101.457 -38.545  0.00  0.00     0.024 A 
ATOM     17  C   UNL d   1     -54.837-101.337 -39.362  0.00  0.00     0.002 A 
BRANCH  15  18
ATOM     18  O   UNL d   1     -54.811-102.339 -37.426  0.00  0.00    -0.328 OA
ATOM     19  C   UNL d   1     -55.436-102.046 -36.964  0.00  0.00     0.181 C 
ENDBRANCH  15  18
ENDBRANCH   3  12
BRANCH   5  20
ATOM     20  O   UNL d   1     -54.711 -99.565 -41.606  0.00  0.00    -0.273 OA
BRANCH  20  21
ATOM     21  C   UNL d   1     -55.407 -99.178 -41.399  0.00  0.00     0.300 C 
ATOM     22  O   UNL d   1     -56.059 -99.200 -41.904  0.00  0.00    -0.259 OA
ATOM     23  C   UNL d   1     -55.451 -98.767 -40.686  0.00  0.00     0.074 C 
ENDBRANCH  20  21
ENDBRANCH   5  20
BRANCH  10  24
ATOM     24  O   UNL d   1     -54.748-100.617 -44.253  0.00  0.00    -0.273 OA
BRANCH  24  25
ATOM     25  C   UNL d   1     -55.361-100.916 -44.715  0.00  0.00     0.300 C 
ATOM     26  O   UNL d   1     -55.615-101.693 -44.612  0.00  0.00    -0.259 OA
ATOM     27  C   UNL d   1     -55.728-100.443 -45.285  0.00  0.00     0.074 C 
ENDBRANCH  24  25
ENDBRANCH  10  24
TORSDOF 6
ENDMDL
