MODEL 1
REMARK VINA RESULT:      12.8      0.000      0.000
REMARK  5 active torsions:
REMARK  status: ('A' for Active; 'I' for Inactive)
REMARK    1  A    between atoms: C_10  and  C_2 
REMARK    2  A    between atoms: S_8  and  C_3 
REMARK    3  A    between atoms: C_6  and  N_7 
REMARK       I    between atoms: N_7  and  C_9 
REMARK    4  A    between atoms: C_15  and  S_8 
REMARK    5  A    between atoms: C_9  and  C_15 
ROOT
ATOM      1  S   UNL d   1      45.705 -16.306  44.230  0.00  0.00    -0.041 SA
ENDROOT
BRANCH   1   2
ATOM      2  C   UNL d   1      45.853 -17.109  44.288  0.00  0.00     0.219 A 
ATOM      3  N   UNL d   1      46.006 -17.553  43.616  0.00  0.00    -0.167 N 
ATOM      4  C   UNL d   1      46.130 -18.322  43.843  0.00  0.00     0.189 A 
ATOM      5  N   UNL d   1      46.028 -17.263  42.845  0.00  0.00    -0.038 N 
ATOM      6  N   UNL d   1      46.064 -18.394  44.644  0.00  0.00    -0.126 NA
ATOM      7  N   UNL d   1      45.891 -17.637  44.922  0.00  0.00    -0.120 NA
BRANCH   4   8
ATOM      8  C   UNL d   1      46.301 -18.946  43.337  0.00  0.00     0.038 A 
ATOM      9  C   UNL d   1      46.342 -18.820  42.503  0.00  0.00     0.003 A 
ATOM     10  C   UNL d   1      46.515 -19.448  41.988  0.00  0.00     0.000 A 
ATOM     11  C   UNL d   1      46.647 -20.213  42.312  0.00  0.00     0.000 A 
ATOM     12  C   UNL d   1      46.603 -20.328  43.141  0.00  0.00     0.000 A 
ATOM     13  C   UNL d   1      46.433 -19.704  43.644  0.00  0.00     0.003 A 
ENDBRANCH   4   8
ENDBRANCH   1   2
BRANCH   1  14
ATOM     14  C   UNL d   1      45.851 -15.798  44.867  0.00  0.00     0.101 C 
BRANCH  14  15
ATOM     15  C   UNL d   1      45.898 -14.993  44.759  0.00  0.00     0.286 C 
ATOM     16  N   UNL d   1      45.232 -14.582  44.443  0.00  0.00    -0.208 NA
ATOM     17  O   UNL d   1      46.575 -14.584  44.952  0.00  0.00    -0.265 OA
BRANCH  16  18
ATOM     18  C   UNL d   1      45.281 -13.752  44.332  0.00  0.00     0.085 A 
ATOM     19  C   UNL d   1      44.709 -13.361  43.876  0.00  0.00     0.018 A 
ATOM     20  C   UNL d   1      44.757 -12.544  43.767  0.00  0.00     0.002 A 
ATOM     21  C   UNL d   1      44.100 -13.778  43.536  0.00  0.00     0.002 C 
ATOM     22  C   UNL d   1      45.376 -12.119  44.113  0.00  0.00     0.000 A 
ATOM     23  C   UNL d   1      45.937 -12.519  44.563  0.00  0.00     0.002 A 
ATOM     24  C   UNL d   1      45.891 -13.311  44.669  0.00  0.00     0.019 A 
ATOM     25  C   UNL d   1      46.553 -12.093  44.907  0.00  0.00     0.000 C 
ENDBRANCH  16  18
ENDBRANCH  14  15
ENDBRANCH   1  14
TORSDOF 5
ENDMDL
