MODEL 1
REMARK VINA RESULT:      30.6      0.000      0.000
REMARK  7 active torsions:
REMARK  status: ('A' for Active; 'I' for Inactive)
REMARK    1  A    between atoms: C_19  and  N_5 
REMARK    2  A    between atoms: C_12  and  C_6 
REMARK       I    between atoms: N_20  and  C_12 
REMARK    3  A    between atoms: C_21  and  C_19 
REMARK    4  A    between atoms: C_26  and  N_20 
REMARK    5  A    between atoms: C_23  and  C_26 
REMARK    6  A    between atoms: C_27  and  C_23 
REMARK    7  A    between atoms: O_24  and  C_27 
ROOT
ATOM      1  C   UNL d   1      46.470 -18.928  42.873  0.00  0.00     0.155 A 
ATOM      2  C   UNL d   1      46.404 -18.213  42.467  0.00  0.00     0.091 A 
ATOM      3  N   UNL d   1      46.547 -19.634  42.457  0.00  0.00    -0.210 NA
ATOM      4  N   UNL d   1      46.489 -18.900  41.221  0.00  0.00    -0.258 N 
ATOM      5  N   UNL d   1      46.460 -18.937  43.697  0.00  0.00    -0.274 N 
ATOM      6  C   UNL d   1      46.317 -17.518  43.723  0.00  0.00     0.094 A 
ATOM      7  C   UNL d   1      46.413 -18.193  41.638  0.00  0.00     0.269 A 
ATOM      8  C   UNL d   1      46.383 -18.235  44.125  0.00  0.00     0.175 A 
ATOM      9  C   UNL d   1      46.557 -19.627  41.630  0.00  0.00     0.152 A 
ATOM     10  C   UNL d   1      46.326 -17.498  42.893  0.00  0.00     0.016 A 
ATOM     11  C   UNL d   1      46.500 -18.892  40.394  0.00  0.00     0.084 A 
ATOM     12  C   UNL d   1      46.633 -20.329  41.210  0.00  0.00     0.038 A 
ATOM     13  N   UNL d   1      46.373 -18.245  44.954  0.00  0.00    -0.128 N 
ATOM     14  C   UNL d   1      46.576 -19.598  39.978  0.00  0.00     0.018 A 
ATOM     15  C   UNL d   1      46.644 -20.323  40.390  0.00  0.00     0.005 A 
ATOM     16  O   UNL d   1      46.346 -17.474  41.239  0.00  0.00    -0.266 OA
ATOM     17  C   UNL d   1      46.588 -19.601  39.151  0.00  0.00     0.002 C 
ENDROOT
BRANCH   6  18
ATOM     18  C   UNL d   1      46.240 -16.815  44.141  0.00  0.00     0.282 C 
ATOM     19  O   UNL d   1      46.577 -16.736  44.890  0.00  0.00    -0.265 OA
ATOM     20  N   UNL d   1      45.825 -16.184  43.814  0.00  0.00    -0.206 NA
BRANCH  20  21
ATOM     21  C   UNL d   1      45.742 -15.473  44.224  0.00  0.00     0.104 C 
BRANCH  21  22
ATOM     22  C   UNL d   1      45.867 -14.752  43.850  0.00  0.00     0.047 C 
BRANCH  22  23
ATOM     23  C   UNL d   1      45.621 -14.055  44.218  0.00  0.00     0.118 C 
BRANCH  23  24
ATOM     24  O   UNL d   1      45.334 -13.422  43.769  0.00  0.00    -0.326 OA
ATOM     25  C   UNL d   1      44.787 -12.894  44.090  0.00  0.00     0.181 C 
ENDBRANCH  23  24
ENDBRANCH  22  23
ENDBRANCH  21  22
ENDBRANCH  20  21
ENDBRANCH   6  18
BRANCH   5  26
ATOM     26  C   UNL d   1      46.526 -19.652  44.104  0.00  0.00     0.083 C 
BRANCH  26  27
ATOM     27  C   UNL d   1      46.008 -19.834  44.721  0.00  0.00     0.019 C 
ATOM     28  C   UNL d   1      45.338 -20.297  44.580  0.00  0.00     0.002 C 
ENDBRANCH  26  27
ENDBRANCH   5  26
TORSDOF 7
ENDMDL
