MODEL 1
REMARK VINA RESULT:      -8.4      0.000      0.000
REMARK  3 active torsions:
REMARK  status: ('A' for Active; 'I' for Inactive)
REMARK    1  A    between atoms: N_2  and  S_1 
REMARK    2  A    between atoms: C_3  and  S_1 
REMARK    3  A    between atoms: O_17  and  C_11 
ROOT
ATOM      1  S   UNL d   1     -48.674  13.742  22.684  0.00  0.00     0.274 S 
ATOM      2  O   UNL d   1     -48.388  13.902  21.905  0.00  0.00    -0.199 OA
ATOM      3  O   UNL d   1     -48.936  13.576  23.464  0.00  0.00    -0.199 OA
ENDROOT
BRANCH   1   4
ATOM      4  N   UNL d   1     -47.898  13.546  22.917  0.00  0.00    -0.212 N 
ATOM      5  C   UNL d   1     -47.281  14.079  22.933  0.00  0.00     0.193 A 
ATOM      6  N   UNL d   1     -46.594  13.640  23.204  0.00  0.00    -0.223 NA
ATOM      7  C   UNL d   1     -46.822  12.868  23.340  0.00  0.00     0.100 A 
ATOM      8  C   UNL d   1     -47.649  12.803  23.159  0.00  0.00     0.094 A 
ATOM      9  C   UNL d   1     -46.408  12.203  23.602  0.00  0.00     0.021 A 
ATOM     10  C   UNL d   1     -48.024  12.075  23.248  0.00  0.00     0.020 A 
ATOM     11  C   UNL d   1     -47.603  11.417  23.511  0.00  0.00     0.002 A 
ATOM     12  C   UNL d   1     -46.802  11.465  23.689  0.00  0.00     0.002 A 
ENDBRANCH   1   4
BRANCH   1  13
ATOM     13  C   UNL d   1     -49.478  13.947  22.434  0.00  0.00     0.127 A 
ATOM     14  C   UNL d   1     -49.869  13.448  21.929  0.00  0.00     0.026 A 
ATOM     15  C   UNL d   1     -50.651  13.669  21.700  0.00  0.00     0.059 A 
ATOM     16 CL   UNL d   1     -51.064  13.153  21.174  0.00  0.00    -0.082 Cl
ATOM     17  C   UNL d   1     -50.999  14.360  21.978  0.00  0.00     0.013 A 
ATOM     18  C   UNL d   1     -50.567  14.856  22.500  0.00  0.00     0.026 A 
ATOM     19  C   UNL d   1     -49.806  14.643  22.724  0.00  0.00     0.106 A 
BRANCH  19  20
ATOM     20  O   UNL d   1     -49.394  15.160  23.251  0.00  0.00    -0.327 OA
ATOM     21  C   UNL d   1     -49.732  15.828  23.560  0.00  0.00     0.181 C 
ENDBRANCH  19  20
ENDBRANCH   1  13
TORSDOF 3
ENDMDL
MODEL 2
REMARK VINA RESULT:      -8.1      1.291      1.998
REMARK  3 active torsions:
REMARK  status: ('A' for Active; 'I' for Inactive)
REMARK    1  A    between atoms: N_2  and  S_1 
REMARK    2  A    between atoms: C_3  and  S_1 
REMARK    3  A    between atoms: O_17  and  C_11 
ROOT
ATOM      1  S   UNL d   1     -49.224  13.188  22.988  0.00  0.00     0.274 S 
ATOM      2  O   UNL d   1     -49.654  13.029  23.698  0.00  0.00    -0.199 OA
ATOM      3  O   UNL d   1     -48.783  13.325  22.287  0.00  0.00    -0.199 OA
ENDROOT
BRANCH   1   4
ATOM      4  N   UNL d   1     -48.787  12.488  23.110  0.00  0.00    -0.212 N 
ATOM      5  C   UNL d   1     -49.118  11.743  23.110  0.00  0.00     0.193 A 
ATOM      6  N   UNL d   1     -48.471  11.195  23.254  0.00  0.00    -0.223 NA
ATOM      7  C   UNL d   1     -47.783  11.629  23.335  0.00  0.00     0.100 A 
ATOM      8  C   UNL d   1     -47.980  12.450  23.244  0.00  0.00     0.094 A 
ATOM      9  C   UNL d   1     -47.000  11.409  23.478  0.00  0.00     0.021 A 
ATOM     10  C   UNL d   1     -47.382  13.015  23.300  0.00  0.00     0.020 A 
ATOM     11  C   UNL d   1     -46.603  12.786  23.443  0.00  0.00     0.002 A 
ATOM     12  C   UNL d   1     -46.399  11.995  23.533  0.00  0.00     0.002 A 
ENDBRANCH   1   4
BRANCH   1  13
ATOM     13  C   UNL d   1     -49.681  13.914  22.869  0.00  0.00     0.127 A 
ATOM     14  C   UNL d   1     -49.528  14.554  23.342  0.00  0.00     0.026 A 
ATOM     15  C   UNL d   1     -49.987  15.250  23.207  0.00  0.00     0.059 A 
ATOM     16 CL   UNL d   1     -49.832  15.920  23.697  0.00  0.00    -0.082 Cl
ATOM     17  C   UNL d   1     -50.562  15.275  22.621  0.00  0.00     0.013 A 
ATOM     18  C   UNL d   1     -50.696  14.596  22.147  0.00  0.00     0.026 A 
ATOM     19  C   UNL d   1     -50.252  13.917  22.276  0.00  0.00     0.106 A 
BRANCH  19  20
ATOM     20  O   UNL d   1     -50.407  13.247  21.786  0.00  0.00    -0.327 OA
ATOM     21  C   UNL d   1     -50.986  13.246  21.219  0.00  0.00     0.181 C 
ENDBRANCH  19  20
ENDBRANCH   1  13
TORSDOF 3
ENDMDL
MODEL 3
REMARK VINA RESULT:      -8.0      1.545      3.813
REMARK  3 active torsions:
REMARK  status: ('A' for Active; 'I' for Inactive)
REMARK    1  A    between atoms: N_2  and  S_1 
REMARK    2  A    between atoms: C_3  and  S_1 
REMARK    3  A    between atoms: O_17  and  C_11 
ROOT
ATOM      1  S   UNL d   1     -48.569  13.386  22.660  0.00  0.00     0.274 S 
ATOM      2  O   UNL d   1     -48.423  13.360  21.828  0.00  0.00    -0.199 OA
ATOM      3  O   UNL d   1     -48.738  13.418  23.481  0.00  0.00    -0.199 OA
ENDROOT
BRANCH   1   4
ATOM      4  N   UNL d   1     -49.365  13.578  22.502  0.00  0.00    -0.212 N 
ATOM      5  C   UNL d   1     -49.875  13.093  22.091  0.00  0.00     0.193 A 
ATOM      6  N   UNL d   1     -50.627  13.509  22.061  0.00  0.00    -0.223 NA
ATOM      7  C   UNL d   1     -50.540  14.220  22.452  0.00  0.00     0.100 A 
ATOM      8  C   UNL d   1     -49.741  14.269  22.734  0.00  0.00     0.094 A 
ATOM      9  C   UNL d   1     -51.064  14.841  22.601  0.00  0.00     0.021 A 
ATOM     10  C   UNL d   1     -49.502  14.937  23.152  0.00  0.00     0.020 A 
ATOM     11  C   UNL d   1     -50.033  15.552  23.296  0.00  0.00     0.002 A 
ATOM     12  C   UNL d   1     -50.809  15.518  23.029  0.00  0.00     0.002 A 
ENDBRANCH   1   4
BRANCH   1  13
ATOM     13  C   UNL d   1     -47.741  13.186  22.816  0.00  0.00     0.127 A 
ATOM     14  C   UNL d   1     -47.166  13.723  22.617  0.00  0.00     0.026 A 
ATOM     15  C   UNL d   1     -46.366  13.505  22.779  0.00  0.00     0.059 A 
ATOM     16 CL   UNL d   1     -45.763  14.060  22.573  0.00  0.00    -0.082 Cl
ATOM     17  C   UNL d   1     -46.181  12.782  23.122  0.00  0.00     0.013 A 
ATOM     18  C   UNL d   1     -46.799  12.249  23.316  0.00  0.00     0.026 A 
ATOM     19  C   UNL d   1     -47.578  12.457  23.160  0.00  0.00     0.106 A 
BRANCH  19  20
ATOM     20  O   UNL d   1     -48.181  11.902  23.365  0.00  0.00    -0.327 OA
ATOM     21  C   UNL d   1     -48.016  11.182  23.697  0.00  0.00     0.181 C 
ENDBRANCH  19  20
ENDBRANCH   1  13
TORSDOF 3
ENDMDL
MODEL 4
REMARK VINA RESULT:      -7.7      1.434      3.568
REMARK  3 active torsions:
REMARK  status: ('A' for Active; 'I' for Inactive)
REMARK    1  A    between atoms: N_2  and  S_1 
REMARK    2  A    between atoms: C_3  and  S_1 
REMARK    3  A    between atoms: O_17  and  C_11 
ROOT
ATOM      1  S   UNL d   1     -48.303  13.513  22.872  0.00  0.00     0.274 S 
ATOM      2  O   UNL d   1     -48.482  13.553  23.697  0.00  0.00    -0.199 OA
ATOM      3  O   UNL d   1     -48.144  13.488  22.049  0.00  0.00    -0.199 OA
ENDROOT
BRANCH   1   4
ATOM      4  N   UNL d   1     -48.966  13.993  22.716  0.00  0.00    -0.212 N 
ATOM      5  C   UNL d   1     -49.050  14.755  22.994  0.00  0.00     0.193 A 
ATOM      6  N   UNL d   1     -49.809  15.033  22.700  0.00  0.00    -0.223 NA
ATOM      7  C   UNL d   1     -50.148  14.433  22.262  0.00  0.00     0.100 A 
ATOM      8  C   UNL d   1     -49.617  13.771  22.269  0.00  0.00     0.094 A 
ATOM      9  C   UNL d   1     -50.863  14.380  21.852  0.00  0.00     0.021 A 
ATOM     10  C   UNL d   1     -49.825  13.084  21.865  0.00  0.00     0.020 A 
ATOM     11  C   UNL d   1     -50.541  13.040  21.458  0.00  0.00     0.002 A 
ATOM     12  C   UNL d   1     -51.064  13.673  21.443  0.00  0.00     0.002 A 
ENDBRANCH   1   4
BRANCH   1  13
ATOM     13  C   UNL d   1     -47.615  13.015  23.043  0.00  0.00     0.127 A 
ATOM     14  C   UNL d   1     -47.737  12.251  23.285  0.00  0.00     0.026 A 
ATOM     15  C   UNL d   1     -47.050  11.785  23.445  0.00  0.00     0.059 A 
ATOM     16 CL   UNL d   1     -47.171  10.988  23.698  0.00  0.00    -0.082 Cl
ATOM     17  C   UNL d   1     -46.294  12.094  23.358  0.00  0.00     0.013 A 
ATOM     18  C   UNL d   1     -46.202  12.889  23.106  0.00  0.00     0.026 A 
ATOM     19  C   UNL d   1     -46.866  13.345  22.949  0.00  0.00     0.106 A 
BRANCH  19  20
ATOM     20  O   UNL d   1     -46.746  14.142  22.696  0.00  0.00    -0.327 OA
ATOM     21  C   UNL d   1     -46.009  14.475  22.642  0.00  0.00     0.181 C 
ENDBRANCH  19  20
ENDBRANCH   1  13
TORSDOF 3
ENDMDL
MODEL 5
REMARK VINA RESULT:      -6.4      9.320     10.610
REMARK  3 active torsions:
REMARK  status: ('A' for Active; 'I' for Inactive)
REMARK    1  A    between atoms: N_2  and  S_1 
REMARK    2  A    between atoms: C_3  and  S_1 
REMARK    3  A    between atoms: O_17  and  C_11 
ROOT
ATOM      1  S   UNL d   1     -39.629  14.531  18.258  0.00  0.00     0.274 S 
ATOM      2  O   UNL d   1     -40.315  14.108  18.002  0.00  0.00    -0.199 OA
ATOM      3  O   UNL d   1     -38.963  14.965  18.526  0.00  0.00    -0.199 OA
ENDROOT
BRANCH   1   4
ATOM      4  N   UNL d   1     -40.114  14.996  18.751  0.00  0.00    -0.212 N 
ATOM      5  C   UNL d   1     -40.590  15.600  18.479  0.00  0.00     0.193 A 
ATOM      6  N   UNL d   1     -40.984  15.922  19.172  0.00  0.00    -0.223 NA
ATOM      7  C   UNL d   1     -40.732  15.504  19.826  0.00  0.00     0.100 A 
ATOM      8  C   UNL d   1     -40.180  14.915  19.564  0.00  0.00     0.094 A 
ATOM      9  C   UNL d   1     -40.917  15.562  20.629  0.00  0.00     0.021 A 
ATOM     10  C   UNL d   1     -39.837  14.410  20.118  0.00  0.00     0.020 A 
ATOM     11  C   UNL d   1     -40.027  14.476  20.918  0.00  0.00     0.002 A 
ATOM     12  C   UNL d   1     -40.560  15.041  21.185  0.00  0.00     0.002 A 
ENDBRANCH   1   4
BRANCH   1  13
ATOM     13  C   UNL d   1     -39.132  14.043  17.742  0.00  0.00     0.127 A 
ATOM     14  C   UNL d   1     -38.965  13.282  17.968  0.00  0.00     0.026 A 
ATOM     15  C   UNL d   1     -38.479  12.827  17.449  0.00  0.00     0.059 A 
ATOM     16 CL   UNL d   1     -38.301  12.033  17.678  0.00  0.00    -0.082 Cl
ATOM     17  C   UNL d   1     -38.188  13.142  16.748  0.00  0.00     0.013 A 
ATOM     18  C   UNL d   1     -38.379  13.933  16.543  0.00  0.00     0.026 A 
ATOM     19  C   UNL d   1     -38.852  14.379  17.045  0.00  0.00     0.106 A 
BRANCH  19  20
ATOM     20  O   UNL d   1     -39.029  15.172  16.816  0.00  0.00    -0.327 OA
ATOM     21  C   UNL d   1     -38.714  15.515  16.153  0.00  0.00     0.181 C 
ENDBRANCH  19  20
ENDBRANCH   1  13
TORSDOF 3
ENDMDL
