MODEL 1
REMARK VINA RESULT:     105.9      0.000      0.000
REMARK  6 active torsions:
REMARK  status: ('A' for Active; 'I' for Inactive)
REMARK    1  A    between atoms: S_12  and  C_5 
REMARK    2  A    between atoms: C_14  and  C_6 
REMARK    3  A    between atoms: C_10  and  C_13 
REMARK    4  A    between atoms: C_21  and  S_12 
REMARK    5  A    between atoms: C_15  and  C_21 
REMARK       I    between atoms: N_16  and  C_15 
REMARK    6  A    between atoms: C_18  and  N_16 
ROOT
ATOM      1  C   UNL d   1     -52.146  26.152  33.316  0.00  0.00     0.186 A 
ATOM      2  C   UNL d   1     -51.385  25.818  33.315  0.00  0.00     0.065 A 
ATOM      3  N   UNL d   1     -52.240  26.970  33.317  0.00  0.00    -0.203 NA
ATOM      4  N   UNL d   1     -50.813  27.119  33.317  0.00  0.00    -0.220 NA
ATOM      5  C   UNL d   1     -50.730  26.307  33.316  0.00  0.00     0.116 A 
ATOM      6  C   UNL d   1     -51.570  27.462  33.317  0.00  0.00     0.165 A 
ATOM      7  O   UNL d   1     -52.811  25.669  33.315  0.00  0.00    -0.289 OA
ATOM      8  C   UNL d   1     -51.296  24.998  33.314  0.00  0.00     0.007 A 
ATOM      9  C   UNL d   1     -52.726  24.842  33.314  0.00  0.00     0.102 A 
ATOM     10  C   UNL d   1     -51.969  24.509  33.314  0.00  0.00     0.023 A 
ATOM     11  C   UNL d   1     -53.385  24.364  33.314  0.00  0.00     0.025 A 
ATOM     12  C   UNL d   1     -51.883  23.695  33.313  0.00  0.00     0.002 A 
ATOM     13  C   UNL d   1     -53.309  23.545  33.313  0.00  0.00     0.002 A 
ATOM     14  C   UNL d   1     -52.554  23.209  33.312  0.00  0.00     0.000 A 
ENDROOT
BRANCH   5  15
ATOM     15  S   UNL d   1     -49.968  25.972  33.315  0.00  0.00    -0.062 SA
BRANCH  15  16
ATOM     16  C   UNL d   1     -49.498  26.020  33.985  0.00  0.00     0.099 C 
BRANCH  16  17
ATOM     17  C   UNL d   1     -48.921  26.603  34.039  0.00  0.00     0.286 C 
ATOM     18  N   UNL d   1     -48.831  27.037  34.739  0.00  0.00    -0.208 NA
ATOM     19  O   UNL d   1     -48.426  26.762  33.401  0.00  0.00    -0.265 OA
BRANCH  18  20
ATOM     20  C   UNL d   1     -48.255  27.618  34.792  0.00  0.00     0.085 A 
ATOM     21  C   UNL d   1     -48.398  28.283  35.244  0.00  0.00     0.025 A 
ATOM     22  C   UNL d   1     -47.828  28.865  35.301  0.00  0.00     0.066 A 
ATOM     23  C   UNL d   1     -47.104  28.783  34.901  0.00  0.00     0.006 A 
ATOM     24  C   UNL d   1     -46.968  28.112  34.449  0.00  0.00     0.002 A 
ATOM     25  C   UNL d   1     -47.543  27.522  34.390  0.00  0.00     0.019 A 
BRANCH  22  26
ATOM     26  C   UNL d   1     -47.963  29.544  35.756  0.00  0.00     0.211 C 
ATOM     27  O   UNL d   1     -48.412  30.157  35.440  0.00  0.00    -0.644 OA
ATOM     28  O   UNL d   1     -47.652  29.608  36.515  0.00  0.00    -0.644 OA
ENDBRANCH  22  26
ENDBRANCH  18  20
ENDBRANCH  16  17
ENDBRANCH  15  16
ENDBRANCH   5  15
BRANCH   6  29
ATOM     29  C   UNL d   1     -51.663  28.282  33.319  0.00  0.00     0.036 A 
ATOM     30  C   UNL d   1     -50.997  28.766  33.329  0.00  0.00     0.005 A 
ATOM     31  C   UNL d   1     -51.084  29.590  33.330  0.00  0.00     0.030 A 
ATOM     32  C   UNL d   1     -51.839  29.926  33.321  0.00  0.00     0.140 A 
ATOM     33  C   UNL d   1     -52.515  29.433  33.311  0.00  0.00     0.030 A 
ATOM     34  F   UNL d   1     -51.929  30.742  33.322  0.00  0.00    -0.204 F 
ATOM     35  C   UNL d   1     -52.416  28.613  33.310  0.00  0.00     0.005 A 
ENDBRANCH   6  29
TORSDOF 6
ENDMDL
