MODEL 1
REMARK VINA RESULT:      19.6      0.000      0.000
REMARK  2 active torsions:
REMARK  status: ('A' for Active; 'I' for Inactive)
REMARK    1  A    between atoms: N_2  and  S_1 
REMARK    2  A    between atoms: C_3  and  S_1 
ROOT
ATOM      1  N   UNL d   1     -54.751-101.747 -37.929  0.00  0.00    -0.229 N 
ATOM      2  C   UNL d   1     -54.727-100.959 -37.719  0.00  0.00     0.092 A 
ATOM      3  C   UNL d   1     -54.735-100.759 -36.919  0.00  0.00     0.018 A 
ATOM      4  C   UNL d   1     -54.783-102.344 -37.357  0.00  0.00     0.092 A 
ATOM      5  C   UNL d   1     -54.767-101.366 -36.336  0.00  0.00     0.003 A 
ATOM      6  C   UNL d   1     -54.790-102.152 -36.575  0.00  0.00     0.020 A 
ATOM      7  C   UNL d   1     -54.712 -99.966 -36.683  0.00  0.00     0.002 A 
ATOM      8  C   UNL d   1     -54.775-101.159 -35.539  0.00  0.00     0.000 A 
ATOM      9  C   UNL d   1     -54.720 -99.777 -35.888  0.00  0.00     0.000 A 
ATOM     10  C   UNL d   1     -54.751-100.374 -35.316  0.00  0.00     0.000 A 
ENDROOT
BRANCH   1  11
ATOM     11  S   UNL d   1     -54.743-101.950 -38.754  0.00  0.00     0.277 S 
ATOM     12  O   UNL d   1     -54.764-102.765 -38.552  0.00  0.00    -0.199 OA
ATOM     13  O   UNL d   1     -54.723-101.140 -38.961  0.00  0.00    -0.199 OA
BRANCH  11  14
ATOM     14  C   UNL d   1     -54.735-102.128 -39.551  0.00  0.00     0.133 A 
ATOM     15  S   UNL d   1     -54.748-102.879 -39.849  0.00  0.00    -0.074 SA
ATOM     16  C   UNL d   1     -54.733-102.832 -40.709  0.00  0.00     0.036 A 
ATOM     17  C   UNL d   1     -54.711-102.006 -40.915  0.00  0.00     0.008 A 
ATOM     18  C   UNL d   1     -54.712-101.587 -40.219  0.00  0.00     0.020 A 
ENDBRANCH  11  14
ENDBRANCH   1  11
TORSDOF 2
ENDMDL
