MODEL 1
REMARK VINA RESULT:      14.1      0.000      0.000
REMARK  2 active torsions:
REMARK  status: ('A' for Active; 'I' for Inactive)
REMARK    1  A    between atoms: C_6  and  C_1 
REMARK    2  A    between atoms: C_7  and  C_5 
ROOT
ATOM      1  C   UNL d   1     -55.398-102.523 -36.551  0.00  0.00     0.169 A 
ATOM      2  C   UNL d   1     -55.905-102.852 -37.003  0.00  0.00     0.048 A 
ATOM      3  N   UNL d   1     -54.725-102.114 -37.603  0.00  0.00    -0.148 NA
ATOM      4  N   UNL d   1     -54.805-102.151 -36.845  0.00  0.00    -0.142 NA
ATOM      5  C   UNL d   1     -55.232-102.443 -38.055  0.00  0.00     0.105 A 
ENDROOT
BRANCH   5   6
ATOM      6  C   UNL d   1     -55.327-102.517 -38.869  0.00  0.00     0.019 A 
ATOM      7  C   UNL d   1     -54.711-102.306 -39.384  0.00  0.00     0.002 A 
ATOM      8  C   UNL d   1     -54.807-102.381 -40.204  0.00  0.00     0.000 A 
ATOM      9  C   UNL d   1     -55.521-102.668 -40.513  0.00  0.00     0.000 A 
ATOM     10  C   UNL d   1     -56.141-102.880 -39.992  0.00  0.00     0.000 A 
ATOM     11  C   UNL d   1     -55.621-102.743 -41.321  0.00  0.00     0.000 C 
ATOM     12  C   UNL d   1     -56.038-102.802 -39.175  0.00  0.00     0.002 A 
ENDBRANCH   5   6
BRANCH   1  13
ATOM     13  C   UNL d   1     -55.478-102.561 -35.792  0.00  0.00     0.231 C 
ATOM     14  O   UNL d   1     -56.097-102.874 -35.491  0.00  0.00    -0.643 OA
ATOM     15  O   UNL d   1     -54.931-102.283 -35.345  0.00  0.00    -0.643 OA
ENDBRANCH   1  13
TORSDOF 2
ENDMDL
