MODEL 1
REMARK VINA RESULT:      -9.1      0.000      0.000
REMARK  4 active torsions:
REMARK  status: ('A' for Active; 'I' for Inactive)
REMARK    1  A    between atoms: C_4  and  N_1 
REMARK    2  A    between atoms: C_8  and  C_2 
REMARK    3  A    between atoms: C_17  and  C_6 
REMARK    4  A    between atoms: C_7  and  C_8 
ROOT
ATOM      1  N   UNL d   1     -48.197  12.037  23.148  0.00  0.00    -0.255 N 
ATOM      2  C   UNL d   1     -46.993  12.594  23.265  0.00  0.00     0.101 A 
ATOM      3  C   UNL d   1     -47.664  11.445  23.394  0.00  0.00     0.305 A 
ATOM      4  C   UNL d   1     -46.922  11.788  23.466  0.00  0.00     0.256 A 
ATOM      5  C   UNL d   1     -47.777  12.734  23.072  0.00  0.00     0.075 A 
ATOM      6  O   UNL d   1     -47.848  10.654  23.540  0.00  0.00    -0.263 OA
ATOM      7  O   UNL d   1     -46.230  11.402  23.698  0.00  0.00    -0.281 OA
ENDROOT
BRANCH   2   8
ATOM      8  C   UNL d   1     -46.380  13.148  23.262  0.00  0.00     0.223 C 
ATOM      9  O   UNL d   1     -46.442  13.836  23.698  0.00  0.00    -0.284 OA
BRANCH   8  10
ATOM     10  C   UNL d   1     -45.700  13.008  22.815  0.00  0.00     0.139 A 
ATOM     11  O   UNL d   1     -45.138  12.419  22.961  0.00  0.00    -0.304 OA
ATOM     12  C   UNL d   1     -44.558  12.482  22.383  0.00  0.00     0.100 A 
ATOM     13  C   UNL d   1     -43.869  12.049  22.247  0.00  0.00     0.025 A 
ATOM     14  C   UNL d   1     -44.751  13.101  21.881  0.00  0.00     0.025 A 
ATOM     15  C   UNL d   1     -43.385  12.233  21.622  0.00  0.00     0.002 A 
ATOM     16  C   UNL d   1     -43.584  12.860  21.116  0.00  0.00     0.000 A 
ATOM     17  C   UNL d   1     -44.264  13.290  21.248  0.00  0.00     0.002 A 
ATOM     18  C   UNL d   1     -45.458  13.428  22.148  0.00  0.00     0.030 A 
ENDBRANCH   8  10
ENDBRANCH   2   8
BRANCH   5  19
ATOM     19  C   UNL d   1     -48.085  13.468  22.839  0.00  0.00     0.017 A 
ATOM     20  C   UNL d   1     -48.127  13.662  22.040  0.00  0.00     0.001 A 
ATOM     21  C   UNL d   1     -48.433  14.392  21.808  0.00  0.00     0.000 A 
ATOM     22  C   UNL d   1     -48.695  14.927  22.381  0.00  0.00     0.000 A 
ATOM     23  C   UNL d   1     -48.651  14.731  23.185  0.00  0.00     0.000 A 
ATOM     24  C   UNL d   1     -49.002  15.662  22.151  0.00  0.00     0.000 C 
ATOM     25  C   UNL d   1     -48.342  13.994  23.410  0.00  0.00     0.001 A 
ENDBRANCH   5  19
BRANCH   1  26
ATOM     26  C   UNL d   1     -49.008  11.933  23.006  0.00  0.00     0.179 A 
ATOM     27  N   UNL d   1     -49.349  11.792  22.276  0.00  0.00    -0.108 NA
ATOM     28  O   UNL d   1     -50.167  11.724  22.391  0.00  0.00    -0.210 OA
ATOM     29  C   UNL d   1     -50.322  11.824  23.191  0.00  0.00     0.128 A 
ATOM     30  C   UNL d   1     -49.597  11.955  23.582  0.00  0.00     0.067 A 
ATOM     31  C   UNL d   1     -51.059  11.800  23.559  0.00  0.00     0.029 C 
ENDBRANCH   1  26
TORSDOF 4
ENDMDL
MODEL 2
REMARK VINA RESULT:      -7.1      1.302      2.512
REMARK  4 active torsions:
REMARK  status: ('A' for Active; 'I' for Inactive)
REMARK    1  A    between atoms: C_4  and  N_1 
REMARK    2  A    between atoms: C_8  and  C_2 
REMARK    3  A    between atoms: C_17  and  C_6 
REMARK    4  A    between atoms: C_7  and  C_8 
ROOT
ATOM      1  N   UNL d   1     -47.896  14.478  22.683  0.00  0.00    -0.255 N 
ATOM      2  C   UNL d   1     -46.866  13.685  22.977  0.00  0.00     0.101 A 
ATOM      3  C   UNL d   1     -47.222  14.960  22.783  0.00  0.00     0.305 A 
ATOM      4  C   UNL d   1     -46.587  14.471  22.963  0.00  0.00     0.256 A 
ATOM      5  C   UNL d   1     -47.667  13.703  22.804  0.00  0.00     0.075 A 
ATOM      6  O   UNL d   1     -47.196  15.781  22.712  0.00  0.00    -0.263 OA
ATOM      7  O   UNL d   1     -45.813  14.716  23.106  0.00  0.00    -0.281 OA
ENDROOT
BRANCH   2   8
ATOM      8  C   UNL d   1     -46.413  13.014  23.136  0.00  0.00     0.223 C 
ATOM      9  O   UNL d   1     -46.657  12.473  23.698  0.00  0.00    -0.284 OA
BRANCH   8  10
ATOM     10  C   UNL d   1     -45.708  12.885  22.725  0.00  0.00     0.139 A 
ATOM     11  O   UNL d   1     -45.496  13.235  22.007  0.00  0.00    -0.304 OA
ATOM     12  C   UNL d   1     -44.753  12.950  21.802  0.00  0.00     0.100 A 
ATOM     13  C   UNL d   1     -44.267  13.100  21.153  0.00  0.00     0.025 A 
ATOM     14  C   UNL d   1     -44.502  12.427  22.383  0.00  0.00     0.025 A 
ATOM     15  C   UNL d   1     -43.544  12.734  21.088  0.00  0.00     0.002 A 
ATOM     16  C   UNL d   1     -43.294  12.207  21.677  0.00  0.00     0.000 A 
ATOM     17  C   UNL d   1     -43.772  12.056  22.320  0.00  0.00     0.002 A 
ATOM     18  C   UNL d   1     -45.092  12.386  22.954  0.00  0.00     0.030 A 
ENDBRANCH   8  10
ENDBRANCH   2   8
BRANCH   5  19
ATOM     19  C   UNL d   1     -48.158  13.035  22.761  0.00  0.00     0.017 A 
ATOM     20  C   UNL d   1     -48.282  12.661  22.039  0.00  0.00     0.001 A 
ATOM     21  C   UNL d   1     -48.770  11.997  21.996  0.00  0.00     0.000 A 
ATOM     22  C   UNL d   1     -49.132  11.711  22.681  0.00  0.00     0.000 A 
ATOM     23  C   UNL d   1     -49.006  12.088  23.408  0.00  0.00     0.000 A 
ATOM     24  C   UNL d   1     -49.622  11.044  22.642  0.00  0.00     0.000 C 
ATOM     25  C   UNL d   1     -48.514  12.756  23.442  0.00  0.00     0.001 A 
ENDBRANCH   5  19
BRANCH   1  26
ATOM     26  C   UNL d   1     -48.659  14.743  22.496  0.00  0.00     0.179 A 
ATOM     27  N   UNL d   1     -48.977  14.785  21.743  0.00  0.00    -0.108 NA
ATOM     28  O   UNL d   1     -49.748  15.079  21.813  0.00  0.00    -0.210 OA
ATOM     29  C   UNL d   1     -49.899  15.216  22.608  0.00  0.00     0.128 A 
ATOM     30  C   UNL d   1     -49.217  15.007  23.042  0.00  0.00     0.067 A 
ATOM     31  C   UNL d   1     -50.595  15.509  22.937  0.00  0.00     0.029 C 
ENDBRANCH   1  26
TORSDOF 4
ENDMDL
