MODEL 1
REMARK VINA RESULT:      -0.6      0.000      0.000
REMARK  6 active torsions:
REMARK  status: ('A' for Active; 'I' for Inactive)
REMARK       I    between atoms: C_3  and  N_1 
REMARK    1  A    between atoms: C_8  and  C_3 
REMARK    2  A    between atoms: S_4  and  N_9 
REMARK    3  A    between atoms: C_24  and  S_4 
REMARK    4  A    between atoms: C_10  and  C_5 
REMARK    5  A    between atoms: C_11  and  C_6 
REMARK    6  A    between atoms: N_9  and  C_23 
ROOT
ATOM      1  N   UNL d   1      58.998  -1.221  29.748  0.00  0.00    -0.193 N 
ATOM      2  N   UNL d   1      58.727  -0.603  30.252  0.00  0.00    -0.163 NA
ATOM      3  C   UNL d   1      59.616  -1.164  29.207  0.00  0.00     0.303 C 
ATOM      4  C   UNL d   1      58.555  -1.878  29.881  0.00  0.00     0.088 A 
ATOM      5  C   UNL d   1      58.106  -0.908  30.695  0.00  0.00     0.103 A 
ATOM      6  C   UNL d   1      57.990  -1.701  30.472  0.00  0.00     0.040 A 
ATOM      7  O   UNL d   1      59.822  -1.811  28.750  0.00  0.00    -0.263 OA
ENDROOT
BRANCH   5   8
ATOM      8  C   UNL d   1      57.658  -0.524  31.263  0.00  0.00     0.019 A 
ATOM      9  C   UNL d   1      56.929  -0.846  31.490  0.00  0.00     0.003 A 
ATOM     10  C   UNL d   1      56.479  -0.470  32.055  0.00  0.00     0.020 A 
ATOM     11  C   UNL d   1      56.745   0.232  32.402  0.00  0.00     0.094 A 
ATOM     12  C   UNL d   1      57.471   0.552  32.175  0.00  0.00     0.020 A 
ATOM     13  C   UNL d   1      57.928   0.174  31.605  0.00  0.00     0.003 A 
BRANCH  11  14
ATOM     14  N   UNL d   1      56.295   0.624  32.979  0.00  0.00    -0.158 NA
BRANCH  14  15
ATOM     15  S   UNL d   1      55.986   0.206  33.606  0.00  0.00     0.286 S 
ATOM     16  O   UNL d   1      56.741   0.164  33.953  0.00  0.00    -0.198 OA
ATOM     17  O   UNL d   1      55.659  -0.224  34.249  0.00  0.00    -0.198 OA
BRANCH  15  18
ATOM     18  C   UNL d   1      55.230   0.247  33.261  0.00  0.00     0.117 C 
ATOM     19  C   UNL d   1      54.597   0.553  33.681  0.00  0.00     0.014 C 
ENDBRANCH  15  18
ENDBRANCH  14  15
ENDBRANCH  11  14
ENDBRANCH   5   8
BRANCH   4  20
ATOM     20  C   UNL d   1      58.617  -2.602  29.526  0.00  0.00     0.018 A 
ATOM     21  C   UNL d   1      58.205  -2.772  28.831  0.00  0.00     0.002 A 
ATOM     22  C   UNL d   1      58.267  -3.514  28.466  0.00  0.00     0.000 A 
ATOM     23  C   UNL d   1      58.755  -4.095  28.810  0.00  0.00     0.000 A 
ATOM     24  C   UNL d   1      59.170  -3.927  29.508  0.00  0.00     0.000 A 
ATOM     25  C   UNL d   1      58.827  -4.836  28.459  0.00  0.00     0.000 C 
ATOM     26  C   UNL d   1      59.103  -3.187  29.865  0.00  0.00     0.002 A 
ENDBRANCH   4  20
BRANCH   3  27
ATOM     27  C   UNL d   1      60.023  -0.450  29.129  0.00  0.00     0.158 A 
ATOM     28  O   UNL d   1      60.489  -0.100  29.715  0.00  0.00    -0.300 OA
ATOM     29  C   UNL d   1      60.790   0.599  29.407  0.00  0.00     0.123 A 
ATOM     30  C   UNL d   1      60.511   0.682  28.632  0.00  0.00     0.029 A 
ATOM     31  C   UNL d   1      60.038   0.030  28.467  0.00  0.00     0.032 A 
ENDBRANCH   3  27
TORSDOF 6
ENDMDL
MODEL 2
REMARK VINA RESULT:       1.4      0.888      2.838
REMARK  6 active torsions:
REMARK  status: ('A' for Active; 'I' for Inactive)
REMARK       I    between atoms: C_3  and  N_1 
REMARK    1  A    between atoms: C_8  and  C_3 
REMARK    2  A    between atoms: S_4  and  N_9 
REMARK    3  A    between atoms: C_24  and  S_4 
REMARK    4  A    between atoms: C_10  and  C_5 
REMARK    5  A    between atoms: C_11  and  C_6 
REMARK    6  A    between atoms: N_9  and  C_23 
ROOT
ATOM      1  N   UNL d   1      58.388  -1.636  29.822  0.00  0.00    -0.193 N 
ATOM      2  N   UNL d   1      57.749  -1.798  30.346  0.00  0.00    -0.163 NA
ATOM      3  C   UNL d   1      58.675  -2.147  29.243  0.00  0.00     0.303 C 
ATOM      4  C   UNL d   1      58.673  -0.901  29.976  0.00  0.00     0.088 A 
ATOM      5  C   UNL d   1      57.657  -1.136  30.824  0.00  0.00     0.103 A 
ATOM      6  C   UNL d   1      58.227  -0.571  30.602  0.00  0.00     0.040 A 
ATOM      7  O   UNL d   1      59.302  -1.919  28.768  0.00  0.00    -0.263 OA
ENDROOT
BRANCH   5   8
ATOM      8  C   UNL d   1      57.110  -1.020  31.423  0.00  0.00     0.019 A 
ATOM      9  C   UNL d   1      57.098  -0.296  31.826  0.00  0.00     0.003 A 
ATOM     10  C   UNL d   1      56.557  -0.175  32.422  0.00  0.00     0.020 A 
ATOM     11  C   UNL d   1      56.020  -0.770  32.627  0.00  0.00     0.094 A 
ATOM     12  C   UNL d   1      56.033  -1.490  32.225  0.00  0.00     0.020 A 
ATOM     13  C   UNL d   1      56.579  -1.616  31.622  0.00  0.00     0.003 A 
BRANCH  11  14
ATOM     14  N   UNL d   1      55.464  -0.657  33.233  0.00  0.00    -0.158 NA
BRANCH  14  15
ATOM     15  S   UNL d   1      55.559  -0.046  33.763  0.00  0.00     0.286 S 
ATOM     16  O   UNL d   1      56.261  -0.393  34.042  0.00  0.00    -0.198 OA
ATOM     17  O   UNL d   1      55.649   0.589  34.305  0.00  0.00    -0.198 OA
BRANCH  15  18
ATOM     18  C   UNL d   1      54.856   0.304  33.485  0.00  0.00     0.117 C 
ATOM     19  C   UNL d   1      54.264   0.519  34.008  0.00  0.00     0.014 C 
ENDBRANCH  15  18
ENDBRANCH  14  15
ENDBRANCH  11  14
ENDBRANCH   5   8
BRANCH   4  20
ATOM     20  C   UNL d   1      59.282  -0.514  29.611  0.00  0.00     0.018 A 
ATOM     21  C   UNL d   1      60.034  -0.490  29.950  0.00  0.00     0.002 A 
ATOM     22  C   UNL d   1      60.660  -0.094  29.576  0.00  0.00     0.000 A 
ATOM     23  C   UNL d   1      60.522   0.284  28.846  0.00  0.00     0.000 A 
ATOM     24  C   UNL d   1      59.767   0.261  28.504  0.00  0.00     0.000 A 
ATOM     25  C   UNL d   1      61.133   0.681  28.464  0.00  0.00     0.000 C 
ATOM     26  C   UNL d   1      59.150  -0.135  28.882  0.00  0.00     0.002 A 
ENDBRANCH   4  20
BRANCH   3  27
ATOM     27  C   UNL d   1      58.326  -2.889  29.146  0.00  0.00     0.158 A 
ATOM     28  O   UNL d   1      57.528  -3.023  28.983  0.00  0.00    -0.300 OA
ATOM     29  C   UNL d   1      57.418  -3.835  28.931  0.00  0.00     0.123 A 
ATOM     30  C   UNL d   1      58.148  -4.203  29.061  0.00  0.00     0.029 A 
ATOM     31  C   UNL d   1      58.705  -3.613  29.194  0.00  0.00     0.032 A 
ENDBRANCH   3  27
TORSDOF 6
ENDMDL
