MODEL 1
REMARK VINA RESULT:       2.8      0.000      0.000
REMARK  5 active torsions:
REMARK  status: ('A' for Active; 'I' for Inactive)
REMARK    1  A    between atoms: C_9  and  C_3 
REMARK    2  A    between atoms: C_8  and  C_4 
REMARK    3  A    between atoms: C_11  and  C_8 
REMARK    4  A    between atoms: O_16  and  C_9 
REMARK    5  A    between atoms: C_18  and  C_11 
ROOT
ATOM      1  N   UNL d   1     -41.447-122.595 -52.998  0.00  0.00    -0.254 N 
ATOM      2  C   UNL d   1     -41.560-122.204 -53.716  0.00  0.00     0.182 A 
ATOM      3  C   UNL d   1     -41.657-121.371 -52.299  0.00  0.00     0.097 A 
ATOM      4  C   UNL d   1     -41.495-122.183 -52.287  0.00  0.00     0.075 A 
ATOM      5  N   UNL d   1     -41.721-121.397 -53.720  0.00  0.00    -0.222 NA
ATOM      6  C   UNL d   1     -41.771-120.977 -53.015  0.00  0.00     0.090 A 
ATOM      7  C   UNL d   1     -41.286-123.403 -52.994  0.00  0.00     0.267 A 
ATOM      8  S   UNL d   1     -41.513-122.614 -54.425  0.00  0.00    -0.049 SA
ATOM      9  C   UNL d   1     -41.238-123.815 -53.705  0.00  0.00     0.068 A 
ATOM     10  O   UNL d   1     -41.172-123.798 -52.278  0.00  0.00    -0.267 OA
ATOM     11  C   UNL d   1     -41.352-123.420 -54.420  0.00  0.00     0.043 A 
ATOM     12  C   UNL d   1     -41.932-120.171 -53.025  0.00  0.00     0.021 C 
ENDROOT
BRANCH   4  13
ATOM     13  C   UNL d   1     -41.381-122.578 -51.572  0.00  0.00     0.018 C 
BRANCH  13  14
ATOM     14  C   UNL d   1     -42.029-122.925 -51.195  0.00  0.00     0.002 C 
BRANCH  14  15
ATOM     15  C   UNL d   1     -41.944-123.222 -50.430  0.00  0.00     0.000 A 
ATOM     16  C   UNL d   1     -41.213-123.494 -50.173  0.00  0.00     0.000 A 
ATOM     17  C   UNL d   1     -41.131-123.790 -49.407  0.00  0.00     0.000 A 
ATOM     18  C   UNL d   1     -41.781-123.812 -48.902  0.00  0.00     0.000 A 
ATOM     19  C   UNL d   1     -42.512-123.539 -49.163  0.00  0.00     0.000 A 
ATOM     20  C   UNL d   1     -42.594-123.243 -49.929  0.00  0.00     0.000 A 
ENDBRANCH  14  15
ENDBRANCH  13  14
ENDBRANCH   4  13
BRANCH   3  21
ATOM     21  C   UNL d   1     -41.706-120.957 -51.592  0.00  0.00     0.299 C 
ATOM     22  O   UNL d   1     -42.329-121.094 -51.069  0.00  0.00    -0.259 OA
BRANCH  21  23
ATOM     23  O   UNL d   1     -41.131-120.400 -51.399  0.00  0.00    -0.296 OA
ATOM     24  C   UNL d   1     -41.158-120.000 -50.677  0.00  0.00     0.185 C 
ENDBRANCH  21  23
ENDBRANCH   3  21
TORSDOF 5
ENDMDL
