MODEL 1
REMARK VINA RESULT:      -6.8      0.000      0.000
REMARK  4 active torsions:
REMARK  status: ('A' for Active; 'I' for Inactive)
REMARK    1  A    between atoms: S_5  and  C_2 
REMARK    2  A    between atoms: C_15  and  S_5 
REMARK    3  A    between atoms: N_11  and  C_8 
REMARK    4  A    between atoms: C_12  and  N_11 
ROOT
ATOM      1  C   UNL d   1     -48.081  12.258  22.951  0.00  0.00     0.197 A 
ATOM      2  C   UNL d   1     -47.290  12.047  23.085  0.00  0.00     0.227 A 
ATOM      3  N   UNL d   1     -48.559  11.699  23.329  0.00  0.00    -0.192 N 
ATOM      4  N   UNL d   1     -48.427  12.881  22.537  0.00  0.00    -0.206 NA
ATOM      5  N   UNL d   1     -47.281  11.361  23.544  0.00  0.00    -0.115 NA
ATOM      6  N   UNL d   1     -48.066  11.142  23.698  0.00  0.00    -0.058 NA
ATOM      7  C   UNL d   1     -49.253  12.949  22.499  0.00  0.00     0.166 A 
ATOM      8  C   UNL d   1     -49.724  12.389  22.878  0.00  0.00     0.054 A 
ATOM      9  C   UNL d   1     -49.385  11.762  23.295  0.00  0.00     0.089 A 
ATOM     10  C   UNL d   1     -50.552  12.452  22.843  0.00  0.00     0.005 A 
ATOM     11  C   UNL d   1     -49.859  11.205  23.672  0.00  0.00     0.019 A 
ATOM     12  C   UNL d   1     -51.025  11.895  23.221  0.00  0.00     0.000 A 
ATOM     13  C   UNL d   1     -50.678  11.271  23.636  0.00  0.00     0.002 A 
ENDROOT
BRANCH   2  14
ATOM     14  S   UNL d   1     -46.629  12.455  22.806  0.00  0.00     0.231 S 
ATOM     15  O   UNL d   1     -46.817  12.191  22.049  0.00  0.00    -0.215 OA
ATOM     16  O   UNL d   1     -46.443  12.718  23.563  0.00  0.00    -0.215 OA
BRANCH  14  17
ATOM     17  C   UNL d   1     -45.981  12.846  22.488  0.00  0.00     0.090 A 
ATOM     18  C   UNL d   1     -45.808  13.617  22.713  0.00  0.00     0.011 A 
ATOM     19  C   UNL d   1     -45.163  14.005  22.396  0.00  0.00     0.001 A 
ATOM     20  C   UNL d   1     -44.679  13.621  21.845  0.00  0.00     0.000 A 
ATOM     21  C   UNL d   1     -44.854  12.845  21.619  0.00  0.00     0.001 A 
ATOM     22  C   UNL d   1     -45.501  12.460  21.938  0.00  0.00     0.011 A 
ENDBRANCH  14  17
ENDBRANCH   2  14
BRANCH   7  23
ATOM     23  N   UNL d   1     -49.599  13.573  22.084  0.00  0.00    -0.227 NA
BRANCH  23  24
ATOM     24  C   UNL d   1     -49.405  14.350  22.272  0.00  0.00     0.083 A 
ATOM     25  C   UNL d   1     -48.822  14.747  21.840  0.00  0.00     0.019 A 
ATOM     26  C   UNL d   1     -48.629  15.525  22.028  0.00  0.00     0.002 A 
ATOM     27  C   UNL d   1     -48.047  15.921  21.598  0.00  0.00     0.000 C 
ATOM     28  C   UNL d   1     -49.017  15.913  22.650  0.00  0.00     0.000 A 
ATOM     29  C   UNL d   1     -49.601  15.508  23.079  0.00  0.00     0.002 A 
ATOM     30  C   UNL d   1     -49.792  14.733  22.890  0.00  0.00     0.019 A 
ATOM     31  C   UNL d   1     -49.988  15.890  23.696  0.00  0.00     0.000 C 
ENDBRANCH  23  24
ENDBRANCH   7  23
TORSDOF 4
ENDMDL
MODEL 2
REMARK VINA RESULT:      -5.4      8.702     10.274
REMARK  4 active torsions:
REMARK  status: ('A' for Active; 'I' for Inactive)
REMARK    1  A    between atoms: S_5  and  C_2 
REMARK    2  A    between atoms: C_15  and  S_5 
REMARK    3  A    between atoms: N_11  and  C_8 
REMARK    4  A    between atoms: C_12  and  N_11 
ROOT
ATOM      1  C   UNL d   1     -40.120  15.356  19.443  0.00  0.00     0.197 A 
ATOM      2  C   UNL d   1     -40.345  15.368  20.241  0.00  0.00     0.227 A 
ATOM      3  N   UNL d   1     -40.773  15.591  18.993  0.00  0.00    -0.192 N 
ATOM      4  N   UNL d   1     -39.410  15.165  19.069  0.00  0.00    -0.206 NA
ATOM      5  N   UNL d   1     -41.135  15.608  20.283  0.00  0.00    -0.115 NA
ATOM      6  N   UNL d   1     -41.403  15.747  19.510  0.00  0.00    -0.058 NA
ATOM      7  C   UNL d   1     -39.350  15.206  18.243  0.00  0.00     0.166 A 
ATOM      8  C   UNL d   1     -40.005  15.441  17.800  0.00  0.00     0.054 A 
ATOM      9  C   UNL d   1     -40.718  15.634  18.167  0.00  0.00     0.089 A 
ATOM     10  C   UNL d   1     -39.950  15.484  16.972  0.00  0.00     0.005 A 
ATOM     11  C   UNL d   1     -41.369  15.868  17.720  0.00  0.00     0.019 A 
ATOM     12  C   UNL d   1     -40.601  15.718  16.526  0.00  0.00     0.000 A 
ATOM     13  C   UNL d   1     -41.311  15.909  16.900  0.00  0.00     0.002 A 
ENDROOT
BRANCH   2  14
ATOM     14  S   UNL d   1     -39.862  15.172  20.882  0.00  0.00     0.231 S 
ATOM     15  O   UNL d   1     -40.264  14.455  20.932  0.00  0.00    -0.215 OA
ATOM     16  O   UNL d   1     -39.462  15.889  20.828  0.00  0.00    -0.215 OA
BRANCH  14  17
ATOM     17  C   UNL d   1     -39.403  14.940  21.520  0.00  0.00     0.090 A 
ATOM     18  C   UNL d   1     -38.888  15.469  21.880  0.00  0.00     0.011 A 
ATOM     19  C   UNL d   1     -38.432  15.236  22.515  0.00  0.00     0.001 A 
ATOM     20  C   UNL d   1     -38.487  14.461  22.802  0.00  0.00     0.000 A 
ATOM     21  C   UNL d   1     -39.006  13.928  22.440  0.00  0.00     0.001 A 
ATOM     22  C   UNL d   1     -39.461  14.165  21.804  0.00  0.00     0.011 A 
ENDBRANCH  14  17
ENDBRANCH   2  14
BRANCH   7  23
ATOM     23  N   UNL d   1     -38.640  15.014  17.869  0.00  0.00    -0.227 NA
BRANCH  23  24
ATOM     24  C   UNL d   1     -38.408  14.228  17.804  0.00  0.00     0.083 A 
ATOM     25  C   UNL d   1     -38.295  13.772  18.483  0.00  0.00     0.019 A 
ATOM     26  C   UNL d   1     -38.063  12.985  18.417  0.00  0.00     0.002 A 
ATOM     27  C   UNL d   1     -37.949  12.530  19.096  0.00  0.00     0.000 C 
ATOM     28  C   UNL d   1     -37.942  12.647  17.669  0.00  0.00     0.000 A 
ATOM     29  C   UNL d   1     -38.058  13.111  16.991  0.00  0.00     0.002 A 
ATOM     30  C   UNL d   1     -38.289  13.895  17.060  0.00  0.00     0.019 A 
ATOM     31  C   UNL d   1     -37.939  12.779  16.248  0.00  0.00     0.000 C 
ENDBRANCH  23  24
ENDBRANCH   7  23
TORSDOF 4
ENDMDL
MODEL 3
REMARK VINA RESULT:      -5.1      7.469      9.616
REMARK  4 active torsions:
REMARK  status: ('A' for Active; 'I' for Inactive)
REMARK    1  A    between atoms: S_5  and  C_2 
REMARK    2  A    between atoms: C_15  and  S_5 
REMARK    3  A    between atoms: N_11  and  C_8 
REMARK    4  A    between atoms: C_12  and  N_11 
ROOT
ATOM      1  C   UNL d   1     -39.106  14.464  18.750  0.00  0.00     0.197 A 
ATOM      2  C   UNL d   1     -38.439  14.078  19.055  0.00  0.00     0.227 A 
ATOM      3  N   UNL d   1     -39.017  14.512  17.929  0.00  0.00    -0.192 N 
ATOM      4  N   UNL d   1     -39.779  14.777  19.109  0.00  0.00    -0.206 NA
ATOM      5  N   UNL d   1     -37.940  13.889  18.425  0.00  0.00    -0.115 NA
ATOM      6  N   UNL d   1     -38.295  14.156  17.725  0.00  0.00    -0.058 NA
ATOM      7  C   UNL d   1     -40.367  15.139  18.650  0.00  0.00     0.166 A 
ATOM      8  C   UNL d   1     -40.272  15.183  17.831  0.00  0.00     0.054 A 
ATOM      9  C   UNL d   1     -39.601  14.873  17.465  0.00  0.00     0.089 A 
ATOM     10  C   UNL d   1     -40.858  15.545  17.366  0.00  0.00     0.005 A 
ATOM     11  C   UNL d   1     -39.511  14.919  16.647  0.00  0.00     0.019 A 
ATOM     12  C   UNL d   1     -40.767  15.591  16.549  0.00  0.00     0.000 A 
ATOM     13  C   UNL d   1     -40.093  15.278  16.190  0.00  0.00     0.002 A 
ENDROOT
BRANCH   2  14
ATOM     14  S   UNL d   1     -38.299  13.914  19.853  0.00  0.00     0.231 S 
ATOM     15  O   UNL d   1     -38.659  13.182  19.737  0.00  0.00    -0.215 OA
ATOM     16  O   UNL d   1     -37.941  14.646  19.964  0.00  0.00    -0.215 OA
BRANCH  14  17
ATOM     17  C   UNL d   1     -38.180  13.711  20.638  0.00  0.00     0.090 A 
ATOM     18  C   UNL d   1     -38.179  12.923  20.872  0.00  0.00     0.011 A 
ATOM     19  C   UNL d   1     -38.060  12.724  21.654  0.00  0.00     0.001 A 
ATOM     20  C   UNL d   1     -37.940  13.317  22.218  0.00  0.00     0.000 A 
ATOM     21  C   UNL d   1     -37.941  14.110  21.983  0.00  0.00     0.001 A 
ATOM     22  C   UNL d   1     -38.060  14.307  21.199  0.00  0.00     0.011 A 
ENDBRANCH  14  17
ENDBRANCH   2  14
BRANCH   7  23
ATOM     23  N   UNL d   1     -41.041  15.452  19.009  0.00  0.00    -0.227 NA
BRANCH  23  24
ATOM     24  C   UNL d   1     -41.259  15.203  19.762  0.00  0.00     0.083 A 
ATOM     25  C   UNL d   1     -41.095  15.676  20.418  0.00  0.00     0.019 A 
ATOM     26  C   UNL d   1     -41.314  15.427  21.172  0.00  0.00     0.002 A 
ATOM     27  C   UNL d   1     -41.150  15.900  21.827  0.00  0.00     0.000 C 
ATOM     28  C   UNL d   1     -41.700  14.700  21.274  0.00  0.00     0.000 A 
ATOM     29  C   UNL d   1     -41.862  14.229  20.610  0.00  0.00     0.002 A 
ATOM     30  C   UNL d   1     -41.642  14.480  19.860  0.00  0.00     0.019 A 
ATOM     31  C   UNL d   1     -42.245  13.508  20.708  0.00  0.00     0.000 C 
ENDBRANCH  23  24
ENDBRANCH   7  23
TORSDOF 4
ENDMDL
MODEL 4
REMARK VINA RESULT:      -4.3      1.525      3.274
REMARK  4 active torsions:
REMARK  status: ('A' for Active; 'I' for Inactive)
REMARK    1  A    between atoms: S_5  and  C_2 
REMARK    2  A    between atoms: C_15  and  S_5 
REMARK    3  A    between atoms: N_11  and  C_8 
REMARK    4  A    between atoms: C_12  and  N_11 
ROOT
ATOM      1  C   UNL d   1     -46.691  13.440  22.817  0.00  0.00     0.197 A 
ATOM      2  C   UNL d   1     -45.959  13.067  22.704  0.00  0.00     0.227 A 
ATOM      3  N   UNL d   1     -46.658  14.179  22.448  0.00  0.00    -0.192 N 
ATOM      4  N   UNL d   1     -47.379  13.205  23.206  0.00  0.00    -0.206 NA
ATOM      5  N   UNL d   1     -45.476  13.575  22.266  0.00  0.00    -0.115 NA
ATOM      6  N   UNL d   1     -45.907  14.266  22.105  0.00  0.00    -0.058 NA
ATOM      7  C   UNL d   1     -48.038  13.708  23.228  0.00  0.00     0.166 A 
ATOM      8  C   UNL d   1     -47.999  14.444  22.858  0.00  0.00     0.054 A 
ATOM      9  C   UNL d   1     -47.314  14.686  22.467  0.00  0.00     0.089 A 
ATOM     10  C   UNL d   1     -48.657  14.952  22.877  0.00  0.00     0.005 A 
ATOM     11  C   UNL d   1     -47.280  15.422  22.099  0.00  0.00     0.019 A 
ATOM     12  C   UNL d   1     -48.621  15.687  22.508  0.00  0.00     0.000 A 
ATOM     13  C   UNL d   1     -47.932  15.922  22.119  0.00  0.00     0.002 A 
ENDROOT
BRANCH   2  14
ATOM     14  S   UNL d   1     -45.751  12.317  22.981  0.00  0.00     0.231 S 
ATOM     15  O   UNL d   1     -46.037  12.005  22.275  0.00  0.00    -0.215 OA
ATOM     16  O   UNL d   1     -45.467  12.633  23.686  0.00  0.00    -0.215 OA
BRANCH  14  17
ATOM     17  C   UNL d   1     -45.560  11.557  23.220  0.00  0.00     0.090 A 
ATOM     18  C   UNL d   1     -46.149  11.020  23.420  0.00  0.00     0.011 A 
ATOM     19  C   UNL d   1     -45.957  10.263  23.657  0.00  0.00     0.001 A 
ATOM     20  C   UNL d   1     -45.163  10.032  23.697  0.00  0.00     0.000 A 
ATOM     21  C   UNL d   1     -44.570  10.572  23.496  0.00  0.00     0.001 A 
ATOM     22  C   UNL d   1     -44.766  11.329  23.259  0.00  0.00     0.011 A 
ENDBRANCH  14  17
ENDBRANCH   2  14
BRANCH   7  23
ATOM     23  N   UNL d   1     -48.727  13.473  23.617  0.00  0.00    -0.227 NA
BRANCH  23  24
ATOM     24  C   UNL d   1     -49.190  12.868  23.306  0.00  0.00     0.083 A 
ATOM     25  C   UNL d   1     -49.185  12.121  23.658  0.00  0.00     0.019 A 
ATOM     26  C   UNL d   1     -49.649  11.516  23.346  0.00  0.00     0.002 A 
ATOM     27  C   UNL d   1     -49.645  10.770  23.698  0.00  0.00     0.000 C 
ATOM     28  C   UNL d   1     -50.122  11.655  22.679  0.00  0.00     0.000 A 
ATOM     29  C   UNL d   1     -50.121  12.408  22.331  0.00  0.00     0.002 A 
ATOM     30  C   UNL d   1     -49.658  13.009  22.644  0.00  0.00     0.019 A 
ATOM     31  C   UNL d   1     -50.589  12.549  21.669  0.00  0.00     0.000 C 
ENDBRANCH  23  24
ENDBRANCH   7  23
TORSDOF 4
ENDMDL
MODEL 5
REMARK VINA RESULT:      -4.2      8.977     10.459
REMARK  4 active torsions:
REMARK  status: ('A' for Active; 'I' for Inactive)
REMARK    1  A    between atoms: S_5  and  C_2 
REMARK    2  A    between atoms: C_15  and  S_5 
REMARK    3  A    between atoms: N_11  and  C_8 
REMARK    4  A    between atoms: C_12  and  N_11 
ROOT
ATOM      1  C   UNL d   1     -38.475  13.707  18.494  0.00  0.00     0.197 A 
ATOM      2  C   UNL d   1     -38.366  13.292  19.203  0.00  0.00     0.227 A 
ATOM      3  N   UNL d   1     -38.214  13.224  17.875  0.00  0.00    -0.192 N 
ATOM      4  N   UNL d   1     -38.777  14.457  18.330  0.00  0.00    -0.206 NA
ATOM      5  N   UNL d   1     -38.038  12.556  19.023  0.00  0.00    -0.115 NA
ATOM      6  N   UNL d   1     -37.942  12.510  18.200  0.00  0.00    -0.058 NA
ATOM      7  C   UNL d   1     -38.819  14.728  17.547  0.00  0.00     0.166 A 
ATOM      8  C   UNL d   1     -38.556  14.241  16.935  0.00  0.00     0.054 A 
ATOM      9  C   UNL d   1     -38.253  13.490  17.091  0.00  0.00     0.089 A 
ATOM     10  C   UNL d   1     -38.596  14.508  16.149  0.00  0.00     0.005 A 
ATOM     11  C   UNL d   1     -37.992  13.008  16.476  0.00  0.00     0.019 A 
ATOM     12  C   UNL d   1     -38.334  14.025  15.535  0.00  0.00     0.000 A 
ATOM     13  C   UNL d   1     -38.032  13.275  15.699  0.00  0.00     0.002 A 
ENDROOT
BRANCH   2  14
ATOM     14  S   UNL d   1     -38.554  13.569  19.958  0.00  0.00     0.231 S 
ATOM     15  O   UNL d   1     -37.992  14.163  19.851  0.00  0.00    -0.215 OA
ATOM     16  O   UNL d   1     -39.113  12.975  20.061  0.00  0.00    -0.215 OA
BRANCH  14  17
ATOM     17  C   UNL d   1     -38.710  13.876  20.702  0.00  0.00     0.090 A 
ATOM     18  C   UNL d   1     -39.448  13.775  21.049  0.00  0.00     0.011 A 
ATOM     19  C   UNL d   1     -39.603  14.081  21.790  0.00  0.00     0.001 A 
ATOM     20  C   UNL d   1     -39.013  14.497  22.196  0.00  0.00     0.000 A 
ATOM     21  C   UNL d   1     -38.270  14.598  21.847  0.00  0.00     0.001 A 
ATOM     22  C   UNL d   1     -38.120  14.290  21.105  0.00  0.00     0.011 A 
ENDBRANCH  14  17
ENDBRANCH   2  14
BRANCH   7  23
ATOM     23  N   UNL d   1     -39.121  15.478  17.383  0.00  0.00    -0.227 NA
BRANCH  23  24
ATOM     24  C   UNL d   1     -39.926  15.625  17.466  0.00  0.00     0.083 A 
ATOM     25  C   UNL d   1     -40.405  15.698  16.797  0.00  0.00     0.019 A 
ATOM     26  C   UNL d   1     -41.211  15.845  16.881  0.00  0.00     0.002 A 
ATOM     27  C   UNL d   1     -41.689  15.917  16.212  0.00  0.00     0.000 C 
ATOM     28  C   UNL d   1     -41.545  15.921  17.636  0.00  0.00     0.000 A 
ATOM     29  C   UNL d   1     -41.057  15.847  18.304  0.00  0.00     0.002 A 
ATOM     30  C   UNL d   1     -40.255  15.700  18.218  0.00  0.00     0.019 A 
ATOM     31  C   UNL d   1     -41.385  15.922  19.055  0.00  0.00     0.000 C 
ENDBRANCH  23  24
ENDBRANCH   7  23
TORSDOF 4
ENDMDL
MODEL 6
REMARK VINA RESULT:      -3.9      7.111      9.343
REMARK  4 active torsions:
REMARK  status: ('A' for Active; 'I' for Inactive)
REMARK    1  A    between atoms: S_5  and  C_2 
REMARK    2  A    between atoms: C_15  and  S_5 
REMARK    3  A    between atoms: N_11  and  C_8 
REMARK    4  A    between atoms: C_12  and  N_11 
ROOT
ATOM      1  C   UNL d   1     -38.982  13.987  19.772  0.00  0.00     0.197 A 
ATOM      2  C   UNL d   1     -38.822  13.933  18.961  0.00  0.00     0.227 A 
ATOM      3  N   UNL d   1     -38.448  13.495  20.169  0.00  0.00    -0.192 N 
ATOM      4  N   UNL d   1     -39.541  14.416  20.201  0.00  0.00    -0.206 NA
ATOM      5  N   UNL d   1     -38.191  13.409  18.857  0.00  0.00    -0.115 NA
ATOM      6  N   UNL d   1     -37.957  13.136  19.604  0.00  0.00    -0.058 NA
ATOM      7  C   UNL d   1     -39.569  14.356  21.028  0.00  0.00     0.166 A 
ATOM      8  C   UNL d   1     -39.033  13.864  21.417  0.00  0.00     0.054 A 
ATOM      9  C   UNL d   1     -38.472  13.431  20.995  0.00  0.00     0.089 A 
ATOM     10  C   UNL d   1     -39.057  13.800  22.245  0.00  0.00     0.005 A 
ATOM     11  C   UNL d   1     -37.940  12.940  21.388  0.00  0.00     0.019 A 
ATOM     12  C   UNL d   1     -38.525  13.310  22.637  0.00  0.00     0.000 A 
ATOM     13  C   UNL d   1     -37.966  12.880  22.208  0.00  0.00     0.002 A 
ENDROOT
BRANCH   2  14
ATOM     14  S   UNL d   1     -39.225  14.334  18.362  0.00  0.00     0.231 S 
ATOM     15  O   UNL d   1     -39.664  13.650  18.234  0.00  0.00    -0.215 OA
ATOM     16  O   UNL d   1     -38.784  15.017  18.492  0.00  0.00    -0.215 OA
BRANCH  14  17
ATOM     17  C   UNL d   1     -39.648  14.697  17.761  0.00  0.00     0.090 A 
ATOM     18  C   UNL d   1     -39.290  14.865  17.040  0.00  0.00     0.011 A 
ATOM     19  C   UNL d   1     -39.713  15.226  16.442  0.00  0.00     0.001 A 
ATOM     20  C   UNL d   1     -40.508  15.426  16.560  0.00  0.00     0.000 A 
ATOM     21  C   UNL d   1     -40.868  15.256  17.286  0.00  0.00     0.001 A 
ATOM     22  C   UNL d   1     -40.441  14.895  17.882  0.00  0.00     0.011 A 
ENDBRANCH  14  17
ENDBRANCH   2  14
BRANCH   7  23
ATOM     23  N   UNL d   1     -40.127  14.786  21.456  0.00  0.00    -0.227 NA
BRANCH  23  24
ATOM     24  C   UNL d   1     -40.929  14.698  21.292  0.00  0.00     0.083 A 
ATOM     25  C   UNL d   1     -41.381  15.355  21.075  0.00  0.00     0.019 A 
ATOM     26  C   UNL d   1     -42.183  15.266  20.911  0.00  0.00     0.002 A 
ATOM     27  C   UNL d   1     -42.635  15.922  20.694  0.00  0.00     0.000 C 
ATOM     28  C   UNL d   1     -42.540  14.519  20.964  0.00  0.00     0.000 A 
ATOM     29  C   UNL d   1     -42.079  13.864  21.183  0.00  0.00     0.002 A 
ATOM     30  C   UNL d   1     -41.280  13.955  21.345  0.00  0.00     0.019 A 
ATOM     31  C   UNL d   1     -42.429  13.122  21.236  0.00  0.00     0.000 C 
ENDBRANCH  23  24
ENDBRANCH   7  23
TORSDOF 4
ENDMDL
