MODEL 1
REMARK VINA RESULT:       7.1      0.000      0.000
REMARK  5 active torsions:
REMARK  status: ('A' for Active; 'I' for Inactive)
REMARK    1  A    between atoms: C_9  and  N_2 
REMARK    2  A    between atoms: C_8  and  O_11 
REMARK    3  A    between atoms: C_12  and  C_9 
REMARK    4  A    between atoms: O_11  and  C_15 
REMARK    5  A    between atoms: C_15  and  C_12 
ROOT
ATOM      1  C   UNL d   1      46.452 -17.842  44.286  0.00  0.00     0.087 C 
ENDROOT
BRANCH   1   2
ATOM      2  N   UNL d   1      46.467 -18.485  43.767  0.00  0.00    -0.251 N 
ATOM      3  C   UNL d   1      46.407 -19.225  44.137  0.00  0.00     0.378 A 
ATOM      4  O   UNL d   1      46.428 -19.816  43.565  0.00  0.00    -0.258 OA
ATOM      5  O   UNL d   1      46.337 -19.346  44.955  0.00  0.00    -0.237 OA
ATOM      6  C   UNL d   1      46.503 -19.434  42.818  0.00  0.00     0.121 A 
ATOM      7  C   UNL d   1      46.551 -19.734  42.050  0.00  0.00     0.026 A 
ATOM      8  C   UNL d   1      46.526 -18.624  42.948  0.00  0.00     0.092 A 
ATOM      9  C   UNL d   1      46.623 -19.211  41.411  0.00  0.00     0.002 A 
ATOM     10  C   UNL d   1      46.646 -18.401  41.541  0.00  0.00     0.002 A 
ATOM     11  C   UNL d   1      46.597 -18.101  42.313  0.00  0.00     0.020 A 
ENDBRANCH   1   2
BRANCH   1  12
ATOM     12  C   UNL d   1      45.959 -17.208  44.135  0.00  0.00     0.046 C 
BRANCH  12  13
ATOM     13  C   UNL d   1      45.952 -16.562  44.653  0.00  0.00     0.124 C 
BRANCH  13  14
ATOM     14  O   UNL d   1      45.310 -16.044  44.650  0.00  0.00    -0.304 OA
BRANCH  14  15
ATOM     15  C   UNL d   1      45.443 -15.225  44.627  0.00  0.00     0.111 A 
ATOM     16  C   UNL d   1      44.826 -14.700  44.778  0.00  0.00     0.080 A 
ATOM     17 CL   UNL d   1      44.071 -14.981  44.955  0.00  0.00    -0.080 Cl
ATOM     18  C   UNL d   1      44.962 -13.888  44.753  0.00  0.00     0.013 A 
ATOM     19  C   UNL d   1      45.707 -13.603  44.579  0.00  0.00     0.001 A 
ATOM     20  C   UNL d   1      46.332 -14.124  44.426  0.00  0.00     0.002 A 
ATOM     21  C   UNL d   1      46.196 -14.937  44.451  0.00  0.00     0.026 A 
ENDBRANCH  14  15
ENDBRANCH  13  14
ENDBRANCH  12  13
ENDBRANCH   1  12
TORSDOF 5
ENDMDL
