MODEL 1
REMARK VINA RESULT:      -4.9      0.000      0.000
REMARK  4 active torsions:
REMARK  status: ('A' for Active; 'I' for Inactive)
REMARK    1  A    between atoms: C_6  and  C_1 
REMARK    2  A    between atoms: C_4  and  C_2 
REMARK    3  A    between atoms: C_3  and  N_5 
REMARK    4  A    between atoms: N_5  and  C_7 
ROOT
ATOM      1  C   UNL d   1     -42.337-122.310 -50.751  0.00  0.00     0.073 A 
ATOM      2  C   UNL d   1     -41.942-121.936 -52.066  0.00  0.00     0.081 A 
ATOM      3  C   UNL d   1     -42.480-122.299 -51.559  0.00  0.00     0.023 A 
ATOM      4  C   UNL d   1     -41.663-121.960 -50.449  0.00  0.00     0.004 A 
ATOM      5  C   UNL d   1     -41.123-121.596 -50.958  0.00  0.00     0.002 A 
ATOM      6  C   UNL d   1     -41.262-121.583 -51.765  0.00  0.00     0.019 A 
ENDROOT
BRANCH   2   7
ATOM      7  N   UNL d   1     -42.080-121.922 -52.875  0.00  0.00    -0.245 NA
BRANCH   7   8
ATOM      8  C   UNL d   1     -41.791-122.539 -53.345  0.00  0.00     0.087 A 
ATOM      9  C   UNL d   1     -41.885-122.508 -54.167  0.00  0.00     0.082 A 
ATOM     10  C   UNL d   1     -41.599-123.122 -54.640  0.00  0.00     0.008 A 
ATOM     11  C   UNL d   1     -41.218-123.769 -54.294  0.00  0.00     0.000 A 
ATOM     12  C   UNL d   1     -41.123-123.804 -53.475  0.00  0.00     0.002 A 
ATOM     13  C   UNL d   1     -41.409-123.189 -52.998  0.00  0.00     0.019 A 
BRANCH   9  14
ATOM     14  C   UNL d   1     -42.269-121.856 -54.519  0.00  0.00     0.212 C 
ATOM     15  O   UNL d   1     -41.816-121.250 -54.841  0.00  0.00    -0.644 OA
ATOM     16  O   UNL d   1     -43.088-121.830 -54.539  0.00  0.00    -0.644 OA
ENDBRANCH   9  14
ENDBRANCH   7   8
ENDBRANCH   2   7
BRANCH   1  17
ATOM     17  C   UNL d   1     -42.875-122.673 -50.244  0.00  0.00     0.419 C 
ATOM     18  F   UNL d   1     -43.414-122.214 -49.808  0.00  0.00    -0.166 F 
ATOM     19  F   UNL d   1     -42.883-123.498 -50.166  0.00  0.00    -0.166 F 
ATOM     20  F   UNL d   1     -43.477-122.830 -49.698  0.00  0.00    -0.166 F 
ENDBRANCH   1  17
TORSDOF 4
ENDMDL
MODEL 2
REMARK VINA RESULT:      -4.6      2.693      3.849
REMARK  4 active torsions:
REMARK  status: ('A' for Active; 'I' for Inactive)
REMARK    1  A    between atoms: C_6  and  C_1 
REMARK    2  A    between atoms: C_4  and  C_2 
REMARK    3  A    between atoms: C_3  and  N_5 
REMARK    4  A    between atoms: N_5  and  C_7 
ROOT
ATOM      1  C   UNL d   1     -41.867-122.367 -54.777  0.00  0.00     0.073 A 
ATOM      2  C   UNL d   1     -41.410-122.418 -53.430  0.00  0.00     0.081 A 
ATOM      3  C   UNL d   1     -41.782-122.011 -54.042  0.00  0.00     0.023 A 
ATOM      4  C   UNL d   1     -41.583-123.123 -54.901  0.00  0.00     0.004 A 
ATOM      5  C   UNL d   1     -41.209-123.531 -54.287  0.00  0.00     0.002 A 
ATOM      6  C   UNL d   1     -41.123-123.179 -53.553  0.00  0.00     0.019 A 
ENDROOT
BRANCH   2   7
ATOM      7  N   UNL d   1     -41.322-122.066 -52.693  0.00  0.00    -0.245 NA
BRANCH   7   8
ATOM      8  C   UNL d   1     -41.319-122.541 -52.016  0.00  0.00     0.087 A 
ATOM      9  C   UNL d   1     -41.514-122.212 -51.282  0.00  0.00     0.082 A 
ATOM     10  C   UNL d   1     -41.512-122.683 -50.603  0.00  0.00     0.008 A 
ATOM     11  C   UNL d   1     -41.317-123.485 -50.655  0.00  0.00     0.000 A 
ATOM     12  C   UNL d   1     -41.123-123.817 -51.385  0.00  0.00     0.002 A 
ATOM     13  C   UNL d   1     -41.123-123.346 -52.068  0.00  0.00     0.019 A 
BRANCH   9  14
ATOM     14  C   UNL d   1     -41.711-121.403 -51.226  0.00  0.00     0.212 C 
ATOM     15  O   UNL d   1     -42.487-121.190 -51.059  0.00  0.00    -0.644 OA
ATOM     16  O   UNL d   1     -41.131-120.835 -51.340  0.00  0.00    -0.644 OA
ENDBRANCH   9  14
ENDBRANCH   7   8
ENDBRANCH   2   7
BRANCH   1  17
ATOM     17  C   UNL d   1     -42.240-121.960 -55.389  0.00  0.00     0.419 C 
ATOM     18  F   UNL d   1     -41.799-121.465 -55.890  0.00  0.00    -0.166 F 
ATOM     19  F   UNL d   1     -43.056-122.043 -55.509  0.00  0.00    -0.166 F 
ATOM     20  F   UNL d   1     -42.409-121.479 -56.040  0.00  0.00    -0.166 F 
ENDBRANCH   1  17
TORSDOF 4
ENDMDL
MODEL 3
REMARK VINA RESULT:      -2.6      2.598      3.887
REMARK  4 active torsions:
REMARK  status: ('A' for Active; 'I' for Inactive)
REMARK    1  A    between atoms: C_6  and  C_1 
REMARK    2  A    between atoms: C_4  and  C_2 
REMARK    3  A    between atoms: C_3  and  N_5 
REMARK    4  A    between atoms: N_5  and  C_7 
ROOT
ATOM      1  C   UNL d   1     -41.689-122.352 -52.787  0.00  0.00     0.073 A 
ATOM      2  C   UNL d   1     -42.111-122.314 -51.428  0.00  0.00     0.081 A 
ATOM      3  C   UNL d   1     -42.160-122.643 -52.182  0.00  0.00     0.023 A 
ATOM      4  C   UNL d   1     -41.172-121.735 -52.643  0.00  0.00     0.004 A 
ATOM      5  C   UNL d   1     -41.123-121.404 -51.887  0.00  0.00     0.002 A 
ATOM      6  C   UNL d   1     -41.591-121.693 -51.281  0.00  0.00     0.019 A 
ENDROOT
BRANCH   2   7
ATOM      7  N   UNL d   1     -42.579-122.602 -50.819  0.00  0.00    -0.245 NA
BRANCH   7   8
ATOM      8  C   UNL d   1     -42.223-123.008 -50.192  0.00  0.00     0.087 A 
ATOM      9  C   UNL d   1     -42.617-123.071 -49.466  0.00  0.00     0.082 A 
ATOM     10  C   UNL d   1     -42.266-123.475 -48.838  0.00  0.00     0.008 A 
ATOM     11  C   UNL d   1     -41.519-123.817 -48.931  0.00  0.00     0.000 A 
ATOM     12  C   UNL d   1     -41.123-123.757 -49.652  0.00  0.00     0.002 A 
ATOM     13  C   UNL d   1     -41.474-123.352 -50.285  0.00  0.00     0.019 A 
BRANCH   9  14
ATOM     14  C   UNL d   1     -43.372-122.726 -49.370  0.00  0.00     0.212 C 
ATOM     15  O   UNL d   1     -43.430-121.981 -49.030  0.00  0.00    -0.644 OA
ATOM     16  O   UNL d   1     -44.039-123.135 -49.615  0.00  0.00    -0.644 OA
ENDBRANCH   9  14
ENDBRANCH   7   8
ENDBRANCH   2   7
BRANCH   1  17
ATOM     17  C   UNL d   1     -41.739-122.681 -53.541  0.00  0.00     0.419 C 
ATOM     18  F   UNL d   1     -41.331-123.384 -53.716  0.00  0.00    -0.166 F 
ATOM     19  F   UNL d   1     -42.194-122.314 -54.128  0.00  0.00    -0.166 F 
ATOM     20  F   UNL d   1     -41.655-123.163 -54.208  0.00  0.00    -0.166 F 
ENDBRANCH   1  17
TORSDOF 4
ENDMDL
MODEL 4
REMARK VINA RESULT:      -2.3      0.970      1.405
REMARK  4 active torsions:
REMARK  status: ('A' for Active; 'I' for Inactive)
REMARK    1  A    between atoms: C_6  and  C_1 
REMARK    2  A    between atoms: C_4  and  C_2 
REMARK    3  A    between atoms: C_3  and  N_5 
REMARK    4  A    between atoms: N_5  and  C_7 
ROOT
ATOM      1  C   UNL d   1     -42.053-122.494 -50.939  0.00  0.00     0.073 A 
ATOM      2  C   UNL d   1     -41.562-122.413 -52.272  0.00  0.00     0.081 A 
ATOM      3  C   UNL d   1     -42.011-122.799 -51.699  0.00  0.00     0.023 A 
ATOM      4  C   UNL d   1     -41.650-121.809 -50.749  0.00  0.00     0.004 A 
ATOM      5  C   UNL d   1     -41.199-121.421 -51.324  0.00  0.00     0.002 A 
ATOM      6  C   UNL d   1     -41.155-121.723 -52.084  0.00  0.00     0.019 A 
ENDROOT
BRANCH   2   7
ATOM      7  N   UNL d   1     -41.517-122.714 -53.035  0.00  0.00    -0.245 NA
BRANCH   7   8
ATOM      8  C   UNL d   1     -41.710-122.226 -53.674  0.00  0.00     0.087 A 
ATOM      9  C   UNL d   1     -41.878-122.562 -54.412  0.00  0.00     0.082 A 
ATOM     10  C   UNL d   1     -42.071-122.079 -55.053  0.00  0.00     0.008 A 
ATOM     11  C   UNL d   1     -42.098-121.258 -54.960  0.00  0.00     0.000 A 
ATOM     12  C   UNL d   1     -41.931-120.918 -54.227  0.00  0.00     0.002 A 
ATOM     13  C   UNL d   1     -41.737-121.402 -53.581  0.00  0.00     0.019 A 
BRANCH   9  14
ATOM     14  C   UNL d   1     -41.852-123.391 -54.509  0.00  0.00     0.212 C 
ATOM     15  O   UNL d   1     -41.123-123.764 -54.569  0.00  0.00    -0.644 OA
ATOM     16  O   UNL d   1     -42.551-123.817 -54.541  0.00  0.00    -0.644 OA
ENDBRANCH   9  14
ENDBRANCH   7   8
ENDBRANCH   2   7
BRANCH   1  17
ATOM     17  C   UNL d   1     -42.502-122.880 -50.366  0.00  0.00     0.419 C 
ATOM     18  F   UNL d   1     -43.106-122.472 -49.965  0.00  0.00    -0.166 F 
ATOM     19  F   UNL d   1     -42.355-123.675 -50.187  0.00  0.00    -0.166 F 
ATOM     20  F   UNL d   1     -43.052-123.070 -49.777  0.00  0.00    -0.166 F 
ENDBRANCH   1  17
TORSDOF 4
ENDMDL
MODEL 5
REMARK VINA RESULT:      -2.0      1.351      2.019
REMARK  4 active torsions:
REMARK  status: ('A' for Active; 'I' for Inactive)
REMARK    1  A    between atoms: C_6  and  C_1 
REMARK    2  A    between atoms: C_4  and  C_2 
REMARK    3  A    between atoms: C_3  and  N_5 
REMARK    4  A    between atoms: N_5  and  C_7 
ROOT
ATOM      1  C   UNL d   1     -42.554-123.098 -49.694  0.00  0.00     0.073 A 
ATOM      2  C   UNL d   1     -41.706-123.415 -50.792  0.00  0.00     0.081 A 
ATOM      3  C   UNL d   1     -42.415-123.111 -50.502  0.00  0.00     0.023 A 
ATOM      4  C   UNL d   1     -41.990-123.385 -49.176  0.00  0.00     0.004 A 
ATOM      5  C   UNL d   1     -41.279-123.689 -49.467  0.00  0.00     0.002 A 
ATOM      6  C   UNL d   1     -41.137-123.704 -50.273  0.00  0.00     0.019 A 
ENDROOT
BRANCH   2   7
ATOM      7  N   UNL d   1     -41.562-123.431 -51.600  0.00  0.00    -0.245 NA
BRANCH   7   8
ATOM      8  C   UNL d   1     -41.439-122.719 -52.003  0.00  0.00     0.087 A 
ATOM      9  C   UNL d   1     -41.509-122.696 -52.828  0.00  0.00     0.082 A 
ATOM     10  C   UNL d   1     -41.387-121.988 -53.234  0.00  0.00     0.008 A 
ATOM     11  C   UNL d   1     -41.194-121.299 -52.819  0.00  0.00     0.000 A 
ATOM     12  C   UNL d   1     -41.123-121.318 -51.997  0.00  0.00     0.002 A 
ATOM     13  C   UNL d   1     -41.245-122.028 -51.586  0.00  0.00     0.019 A 
BRANCH   9  14
ATOM     14  C   UNL d   1     -41.704-123.390 -53.250  0.00  0.00     0.212 C 
ATOM     15  O   UNL d   1     -42.479-123.663 -53.234  0.00  0.00    -0.644 OA
ATOM     16  O   UNL d   1     -41.123-123.785 -53.671  0.00  0.00    -0.644 OA
ENDBRANCH   9  14
ENDBRANCH   7   8
ENDBRANCH   2   7
BRANCH   1  17
ATOM     17  C   UNL d   1     -43.263-122.794 -49.404  0.00  0.00     0.419 C 
ATOM     18  F   UNL d   1     -43.288-122.030 -49.079  0.00  0.00    -0.166 F 
ATOM     19  F   UNL d   1     -43.955-123.249 -49.436  0.00  0.00    -0.166 F 
ATOM     20  F   UNL d   1     -43.848-122.314 -49.069  0.00  0.00    -0.166 F 
ENDBRANCH   1  17
TORSDOF 4
ENDMDL
