MODEL 1
REMARK VINA RESULT:      -3.0      0.000      0.000
REMARK  3 active torsions:
REMARK  status: ('A' for Active; 'I' for Inactive)
REMARK    1  A    between atoms: C_6  and  C_1 
REMARK    2  A    between atoms: C_10  and  C_3 
REMARK    3  A    between atoms: C_8  and  N_4 
REMARK       I    between atoms: N_7  and  C_6 
ROOT
ATOM      1  C   UNL d   1      58.414  -1.092  29.863  0.00  0.00     0.095 A 
ATOM      2  N   UNL d   1      57.963  -2.176  30.674  0.00  0.00    -0.165 NA
ATOM      3  C   UNL d   1      58.380  -1.899  30.025  0.00  0.00     0.107 A 
ATOM      4  N   UNL d   1      57.601  -0.838  31.017  0.00  0.00    -0.228 N 
ATOM      5  C   UNL d   1      58.023  -0.568  30.363  0.00  0.00     0.107 A 
ENDROOT
BRANCH   1   6
ATOM      6  C   UNL d   1      58.835  -0.822  29.208  0.00  0.00     0.268 C 
ATOM      7  N   UNL d   1      59.520  -0.318  29.326  0.00  0.00    -0.272 N 
ATOM      8  C   UNL d   1      59.963  -0.033  28.654  0.00  0.00     0.083 A 
ATOM      9  C   UNL d   1      59.760  -0.100  30.117  0.00  0.00     0.083 A 
ATOM     10  C   UNL d   1      60.643   0.468  28.771  0.00  0.00     0.019 A 
ATOM     11  C   UNL d   1      60.877   0.682  29.561  0.00  0.00     0.003 A 
ATOM     12  C   UNL d   1      60.440   0.401  30.234  0.00  0.00     0.019 A 
ATOM     13  O   UNL d   1      58.609  -1.028  28.455  0.00  0.00    -0.267 OA
ENDBRANCH   1   6
BRANCH   3  14
ATOM     14  C   UNL d   1      58.770  -2.434  29.528  0.00  0.00     0.023 A 
ATOM     15  C   UNL d   1      59.580  -2.557  29.620  0.00  0.00     0.022 A 
ATOM     16  C   UNL d   1      59.964  -3.091  29.123  0.00  0.00     0.099 A 
ATOM     17  N   UNL d   1      59.543  -3.497  28.540  0.00  0.00    -0.242 NA
ATOM     18  C   UNL d   1      58.733  -3.367  28.456  0.00  0.00     0.099 A 
ATOM     19  C   UNL d   1      58.348  -2.835  28.950  0.00  0.00     0.022 A 
ENDBRANCH   3  14
BRANCH   4  20
ATOM     20  C   UNL d   1      57.161  -0.487  31.614  0.00  0.00     0.083 A 
ATOM     21  C   UNL d   1      56.608  -0.926  32.027  0.00  0.00     0.019 A 
ATOM     22  C   UNL d   1      56.167  -0.574  32.624  0.00  0.00     0.002 A 
ATOM     23  C   UNL d   1      56.280   0.224  32.810  0.00  0.00     0.000 A 
ATOM     24  C   UNL d   1      56.841   0.668  32.390  0.00  0.00     0.002 A 
ATOM     25  C   UNL d   1      57.284   0.312  31.789  0.00  0.00     0.019 A 
ENDBRANCH   4  20
TORSDOF 3
ENDMDL
MODEL 2
REMARK VINA RESULT:      -1.8      0.819      1.215
REMARK  3 active torsions:
REMARK  status: ('A' for Active; 'I' for Inactive)
REMARK    1  A    between atoms: C_6  and  C_1 
REMARK    2  A    between atoms: C_10  and  C_3 
REMARK    3  A    between atoms: C_8  and  N_4 
REMARK       I    between atoms: N_7  and  C_6 
ROOT
ATOM      1  C   UNL d   1      58.201  -0.411  30.438  0.00  0.00     0.095 A 
ATOM      2  N   UNL d   1      57.420  -1.500  30.927  0.00  0.00    -0.165 NA
ATOM      3  C   UNL d   1      57.959  -1.198  30.389  0.00  0.00     0.107 A 
ATOM      4  N   UNL d   1      57.353  -0.232  31.579  0.00  0.00    -0.228 N 
ATOM      5  C   UNL d   1      57.895   0.065  31.034  0.00  0.00     0.107 A 
ENDROOT
BRANCH   1   6
ATOM      6  C   UNL d   1      58.744  -0.114  29.892  0.00  0.00     0.268 C 
ATOM      7  N   UNL d   1      59.521   0.130  30.161  0.00  0.00    -0.272 N 
ATOM      8  C   UNL d   1      60.089   0.439  29.604  0.00  0.00     0.083 A 
ATOM      9  C   UNL d   1      59.728   0.065  30.987  0.00  0.00     0.083 A 
ATOM     10  C   UNL d   1      60.862   0.682  29.871  0.00  0.00     0.019 A 
ATOM     11  C   UNL d   1      61.063   0.615  30.694  0.00  0.00     0.003 A 
ATOM     12  C   UNL d   1      60.501   0.308  31.254  0.00  0.00     0.019 A 
ATOM     13  O   UNL d   1      58.549  -0.051  29.106  0.00  0.00    -0.267 OA
ENDBRANCH   1   6
BRANCH   3  14
ATOM     14  C   UNL d   1      58.262  -1.684  29.792  0.00  0.00     0.023 A 
ATOM     15  C   UNL d   1      57.909  -1.680  29.047  0.00  0.00     0.022 A 
ATOM     16  C   UNL d   1      58.215  -2.167  28.455  0.00  0.00     0.099 A 
ATOM     17  N   UNL d   1      58.866  -2.652  28.608  0.00  0.00    -0.242 NA
ATOM     18  C   UNL d   1      59.212  -2.649  29.357  0.00  0.00     0.099 A 
ATOM     19  C   UNL d   1      58.909  -2.164  29.948  0.00  0.00     0.022 A 
ENDBRANCH   3  14
BRANCH   4  20
ATOM     20  C   UNL d   1      56.946   0.072  32.224  0.00  0.00     0.083 A 
ATOM     21  C   UNL d   1      57.358   0.334  32.881  0.00  0.00     0.019 A 
ATOM     22  C   UNL d   1      56.950   0.638  33.525  0.00  0.00     0.002 A 
ATOM     23  C   UNL d   1      56.124   0.681  33.514  0.00  0.00     0.000 A 
ATOM     24  C   UNL d   1      55.708   0.415  32.847  0.00  0.00     0.002 A 
ATOM     25  C   UNL d   1      56.120   0.109  32.199  0.00  0.00     0.019 A 
ENDBRANCH   4  20
TORSDOF 3
ENDMDL
