MODEL 1
REMARK VINA RESULT:      -4.2      0.000      0.000
REMARK  4 active torsions:
REMARK  status: ('A' for Active; 'I' for Inactive)
REMARK    1  A    between atoms: C_11  and  C_4 
REMARK    2  A    between atoms: C_12  and  C_5 
REMARK    3  A    between atoms: C_7  and  C_11 
REMARK    4  A    between atoms: C_8  and  C_12 
ROOT
ATOM      1  N   UNL d   1      56.209   0.510  32.778  0.00  0.00    -0.246 NA
ATOM      2  C   UNL d   1      55.982  -1.113  32.684  0.00  0.00     0.003 A 
ATOM      3  C   UNL d   1      55.530  -0.663  33.204  0.00  0.00     0.019 A 
ATOM      4  C   UNL d   1      55.644   0.153  33.251  0.00  0.00     0.081 A 
ATOM      5  C   UNL d   1      56.663   0.068  32.258  0.00  0.00     0.081 A 
ATOM      6  C   UNL d   1      56.548  -0.748  32.211  0.00  0.00     0.019 A 
ATOM      7  C   UNL d   1      55.869  -1.917  32.638  0.00  0.00     0.000 C 
ENDROOT
BRANCH   4   8
ATOM      8  C   UNL d   1      55.172   0.597  33.788  0.00  0.00     0.019 C 
BRANCH   8   9
ATOM      9  C   UNL d   1      55.136   0.390  34.576  0.00  0.00     0.002 C 
ATOM     10  C   UNL d   1      54.536   0.682  35.075  0.00  0.00     0.000 C 
ENDBRANCH   8   9
ENDBRANCH   4   8
BRANCH   5  11
ATOM     11  C   UNL d   1      57.240   0.445  31.777  0.00  0.00     0.019 C 
BRANCH  11  12
ATOM     12  C   UNL d   1      57.461   0.114  31.064  0.00  0.00     0.002 C 
ATOM     13  C   UNL d   1      57.972   0.528  30.557  0.00  0.00     0.000 C 
ENDBRANCH  11  12
ENDBRANCH   5  11
TORSDOF 4
ENDMDL
MODEL 2
REMARK VINA RESULT:      -4.1      8.417      9.595
REMARK  4 active torsions:
REMARK  status: ('A' for Active; 'I' for Inactive)
REMARK    1  A    between atoms: C_11  and  C_4 
REMARK    2  A    between atoms: C_12  and  C_5 
REMARK    3  A    between atoms: C_7  and  C_11 
REMARK    4  A    between atoms: C_8  and  C_12 
ROOT
ATOM      1  N   UNL d   1      60.155  -8.075  34.990  0.00  0.00    -0.246 NA
ATOM      2  C   UNL d   1      59.417  -9.240  35.880  0.00  0.00     0.003 A 
ATOM      3  C   UNL d   1      59.393  -8.456  36.127  0.00  0.00     0.019 A 
ATOM      4  C   UNL d   1      59.764  -7.870  35.679  0.00  0.00     0.081 A 
ATOM      5  C   UNL d   1      60.184  -8.854  34.738  0.00  0.00     0.081 A 
ATOM      6  C   UNL d   1      59.813  -9.441  35.186  0.00  0.00     0.019 A 
ATOM      7  C   UNL d   1      59.052  -9.818  36.321  0.00  0.00     0.000 C 
ENDROOT
BRANCH   4   8
ATOM      8  C   UNL d   1      59.728  -7.073  35.947  0.00  0.00     0.019 C 
BRANCH   8   9
ATOM      9  C   UNL d   1      60.406  -6.681  36.171  0.00  0.00     0.002 C 
ATOM     10  C   UNL d   1      60.405  -5.861  36.319  0.00  0.00     0.000 C 
ENDBRANCH   8   9
ENDBRANCH   4   8
BRANCH   5  11
ATOM     11  C   UNL d   1      60.588  -9.054  34.029  0.00  0.00     0.019 C 
BRANCH  11  12
ATOM     12  C   UNL d   1      60.175  -9.344  33.387  0.00  0.00     0.002 C 
ATOM     13  C   UNL d   1      60.573  -9.501  32.676  0.00  0.00     0.000 C 
ENDBRANCH  11  12
ENDBRANCH   5  11
TORSDOF 4
ENDMDL
MODEL 3
REMARK VINA RESULT:      -3.9      0.223      3.107
REMARK  4 active torsions:
REMARK  status: ('A' for Active; 'I' for Inactive)
REMARK    1  A    between atoms: C_11  and  C_4 
REMARK    2  A    between atoms: C_12  and  C_5 
REMARK    3  A    between atoms: C_7  and  C_11 
REMARK    4  A    between atoms: C_8  and  C_12 
ROOT
ATOM      1  N   UNL d   1      56.170   0.565  32.654  0.00  0.00    -0.246 NA
ATOM      2  C   UNL d   1      56.038  -1.072  32.698  0.00  0.00     0.003 A 
ATOM      3  C   UNL d   1      56.465  -0.709  32.096  0.00  0.00     0.019 A 
ATOM      4  C   UNL d   1      56.531   0.114  32.074  0.00  0.00     0.081 A 
ATOM      5  C   UNL d   1      55.742   0.210  33.257  0.00  0.00     0.081 A 
ATOM      6  C   UNL d   1      55.676  -0.613  33.279  0.00  0.00     0.019 A 
ATOM      7  C   UNL d   1      55.973  -1.882  32.720  0.00  0.00     0.000 C 
ENDROOT
BRANCH   4   8
ATOM      8  C   UNL d   1      56.972   0.468  31.451  0.00  0.00     0.019 C 
BRANCH   8   9
ATOM      9  C   UNL d   1      57.433   0.010  30.959  0.00  0.00     0.002 C 
ATOM     10  C   UNL d   1      57.777   0.324  30.268  0.00  0.00     0.000 C 
ENDBRANCH   8   9
ENDBRANCH   4   8
BRANCH   5  11
ATOM     11  C   UNL d   1      55.375   0.682  33.847  0.00  0.00     0.019 C 
BRANCH  11  12
ATOM     12  C   UNL d   1      55.322   0.411  34.616  0.00  0.00     0.002 C 
ATOM     13  C   UNL d   1      54.711   0.682  35.108  0.00  0.00     0.000 C 
ENDBRANCH  11  12
ENDBRANCH   5  11
TORSDOF 4
ENDMDL
MODEL 4
REMARK VINA RESULT:      -3.6      0.988      1.497
REMARK  4 active torsions:
REMARK  status: ('A' for Active; 'I' for Inactive)
REMARK    1  A    between atoms: C_11  and  C_4 
REMARK    2  A    between atoms: C_12  and  C_5 
REMARK    3  A    between atoms: C_7  and  C_11 
REMARK    4  A    between atoms: C_8  and  C_12 
ROOT
ATOM      1  N   UNL d   1      56.282   0.324  32.245  0.00  0.00    -0.246 NA
ATOM      2  C   UNL d   1      57.520   0.564  33.297  0.00  0.00     0.003 A 
ATOM      3  C   UNL d   1      56.767   0.393  33.579  0.00  0.00     0.019 A 
ATOM      4  C   UNL d   1      56.144   0.272  33.050  0.00  0.00     0.081 A 
ATOM      5  C   UNL d   1      57.030   0.494  31.957  0.00  0.00     0.081 A 
ATOM      6  C   UNL d   1      57.653   0.615  32.486  0.00  0.00     0.019 A 
ATOM      7  C   UNL d   1      58.133   0.682  33.817  0.00  0.00     0.000 C 
ENDROOT
BRANCH   4   8
ATOM      8  C   UNL d   1      55.380   0.098  33.358  0.00  0.00     0.019 C 
BRANCH   8   9
ATOM      9  C   UNL d   1      54.934   0.681  33.712  0.00  0.00     0.002 C 
ATOM     10  C   UNL d   1      54.247   0.499  34.145  0.00  0.00     0.000 C 
ENDBRANCH   8   9
ENDBRANCH   4   8
BRANCH   5  11
ATOM     11  C   UNL d   1      57.160   0.545  31.128  0.00  0.00     0.019 C 
BRANCH  11  12
ATOM     12  C   UNL d   1      57.693   0.044  30.764  0.00  0.00     0.002 C 
ATOM     13  C   UNL d   1      57.954   0.209  29.993  0.00  0.00     0.000 C 
ENDBRANCH  11  12
ENDBRANCH   5  11
TORSDOF 4
ENDMDL
MODEL 5
REMARK VINA RESULT:      -3.5      0.964      3.389
REMARK  4 active torsions:
REMARK  status: ('A' for Active; 'I' for Inactive)
REMARK    1  A    between atoms: C_11  and  C_4 
REMARK    2  A    between atoms: C_12  and  C_5 
REMARK    3  A    between atoms: C_7  and  C_11 
REMARK    4  A    between atoms: C_8  and  C_12 
ROOT
ATOM      1  N   UNL d   1      56.290   0.088  32.359  0.00  0.00    -0.246 NA
ATOM      2  C   UNL d   1      57.480   0.485  33.419  0.00  0.00     0.003 A 
ATOM      3  C   UNL d   1      57.661   0.350  32.628  0.00  0.00     0.019 A 
ATOM      4  C   UNL d   1      57.062   0.150  32.095  0.00  0.00     0.081 A 
ATOM      5  C   UNL d   1      56.103   0.222  33.146  0.00  0.00     0.081 A 
ATOM      6  C   UNL d   1      56.701   0.422  33.679  0.00  0.00     0.019 A 
ATOM      7  C   UNL d   1      58.069   0.682  33.943  0.00  0.00     0.000 C 
ENDROOT
BRANCH   4   8
ATOM      8  C   UNL d   1      57.266   0.015  31.290  0.00  0.00     0.019 C 
BRANCH   8   9
ATOM      9  C   UNL d   1      57.685   0.574  30.870  0.00  0.00     0.002 C 
ATOM     10  C   UNL d   1      58.015   0.401  30.125  0.00  0.00     0.000 C 
ENDBRANCH   8   9
ENDBRANCH   4   8
BRANCH   5  11
ATOM     11  C   UNL d   1      55.306   0.156  33.407  0.00  0.00     0.019 C 
BRANCH  11  12
ATOM     12  C   UNL d   1      55.032   0.627  34.016  0.00  0.00     0.002 C 
ATOM     13  C   UNL d   1      54.217   0.681  34.160  0.00  0.00     0.000 C 
ENDBRANCH  11  12
ENDBRANCH   5  11
TORSDOF 4
ENDMDL
MODEL 6
REMARK VINA RESULT:      -3.4      2.269      4.128
REMARK  4 active torsions:
REMARK  status: ('A' for Active; 'I' for Inactive)
REMARK    1  A    between atoms: C_11  and  C_4 
REMARK    2  A    between atoms: C_12  and  C_5 
REMARK    3  A    between atoms: C_7  and  C_11 
REMARK    4  A    between atoms: C_8  and  C_12 
ROOT
ATOM      1  N   UNL d   1      58.129  -0.632  29.822  0.00  0.00    -0.246 NA
ATOM      2  C   UNL d   1      59.515   0.247  29.876  0.00  0.00     0.003 A 
ATOM      3  C   UNL d   1      58.862   0.479  30.319  0.00  0.00     0.019 A 
ATOM      4  C   UNL d   1      58.165   0.037  30.292  0.00  0.00     0.081 A 
ATOM      5  C   UNL d   1      58.775  -0.869  29.377  0.00  0.00     0.081 A 
ATOM      6  C   UNL d   1      59.473  -0.427  29.405  0.00  0.00     0.019 A 
ATOM      7  C   UNL d   1      60.201   0.682  29.903  0.00  0.00     0.000 C 
ENDROOT
BRANCH   4   8
ATOM      8  C   UNL d   1      57.508   0.291  30.752  0.00  0.00     0.019 C 
BRANCH   8   9
ATOM      9  C   UNL d   1      57.341  -0.065  31.466  0.00  0.00     0.002 C 
ATOM     10  C   UNL d   1      56.685   0.167  31.924  0.00  0.00     0.000 C 
ENDBRANCH   8   9
ENDBRANCH   4   8
BRANCH   5  11
ATOM     11  C   UNL d   1      58.727  -1.558  28.898  0.00  0.00     0.019 C 
BRANCH  11  12
ATOM     12  C   UNL d   1      58.926  -2.288  29.206  0.00  0.00     0.002 C 
ATOM     13  C   UNL d   1      58.873  -2.965  28.729  0.00  0.00     0.000 C 
ENDBRANCH  11  12
ENDBRANCH   5  11
TORSDOF 4
ENDMDL
MODEL 7
REMARK VINA RESULT:      -3.4      8.550      9.975
REMARK  4 active torsions:
REMARK  status: ('A' for Active; 'I' for Inactive)
REMARK    1  A    between atoms: C_11  and  C_4 
REMARK    2  A    between atoms: C_12  and  C_5 
REMARK    3  A    between atoms: C_7  and  C_11 
REMARK    4  A    between atoms: C_8  and  C_12 
ROOT
ATOM      1  N   UNL d   1      59.498  -8.420  35.138  0.00  0.00    -0.246 NA
ATOM      2  C   UNL d   1      60.588  -9.355  35.935  0.00  0.00     0.003 A 
ATOM      3  C   UNL d   1      60.162  -9.666  35.303  0.00  0.00     0.019 A 
ATOM      4  C   UNL d   1      59.614  -9.195  34.903  0.00  0.00     0.081 A 
ATOM      5  C   UNL d   1      59.919  -8.104  35.767  0.00  0.00     0.081 A 
ATOM      6  C   UNL d   1      60.467  -8.574  36.167  0.00  0.00     0.019 A 
ATOM      7  C   UNL d   1      61.127  -9.818  36.330  0.00  0.00     0.000 C 
ENDROOT
BRANCH   4   8
ATOM      8  C   UNL d   1      59.188  -9.531  34.259  0.00  0.00     0.019 C 
BRANCH   8   9
ATOM      9  C   UNL d   1      59.289  -9.245  33.503  0.00  0.00     0.002 C 
ATOM     10  C   UNL d   1      58.834  -9.530  32.866  0.00  0.00     0.000 C 
ENDBRANCH   8   9
ENDBRANCH   4   8
BRANCH   5  11
ATOM     11  C   UNL d   1      59.792  -7.307  36.000  0.00  0.00     0.019 C 
BRANCH  11  12
ATOM     12  C   UNL d   1      60.363  -6.740  35.857  0.00  0.00     0.002 C 
ATOM     13  C   UNL d   1      60.258  -5.967  36.139  0.00  0.00     0.000 C 
ENDBRANCH  11  12
ENDBRANCH   5  11
TORSDOF 4
ENDMDL
MODEL 8
REMARK VINA RESULT:      -3.0      9.345     10.168
REMARK  4 active torsions:
REMARK  status: ('A' for Active; 'I' for Inactive)
REMARK    1  A    between atoms: C_11  and  C_4 
REMARK    2  A    between atoms: C_12  and  C_5 
REMARK    3  A    between atoms: C_7  and  C_11 
REMARK    4  A    between atoms: C_8  and  C_12 
ROOT
ATOM      1  N   UNL d   1      58.949  -9.388  33.819  0.00  0.00    -0.246 NA
ATOM      2  C   UNL d   1      60.365  -9.659  33.033  0.00  0.00     0.003 A 
ATOM      3  C   UNL d   1      59.650  -9.802  32.654  0.00  0.00     0.019 A 
ATOM      4  C   UNL d   1      58.937  -9.666  33.049  0.00  0.00     0.081 A 
ATOM      5  C   UNL d   1      59.659  -9.243  34.203  0.00  0.00     0.081 A 
ATOM      6  C   UNL d   1      60.371  -9.380  33.808  0.00  0.00     0.019 A 
ATOM      7  C   UNL d   1      61.066  -9.794  32.644  0.00  0.00     0.000 C 
ENDROOT
BRANCH   4   8
ATOM      8  C   UNL d   1      58.215  -9.818  32.645  0.00  0.00     0.019 C 
BRANCH   8   9
ATOM      9  C   UNL d   1      58.066  -9.475  31.921  0.00  0.00     0.002 C 
ATOM     10  C   UNL d   1      57.367  -9.638  31.499  0.00  0.00     0.000 C 
ENDBRANCH   8   9
ENDBRANCH   4   8
BRANCH   5  11
ATOM     11  C   UNL d   1      59.659  -8.958  34.993  0.00  0.00     0.019 C 
BRANCH  11  12
ATOM     12  C   UNL d   1      59.690  -8.154  35.141  0.00  0.00     0.002 C 
ATOM     13  C   UNL d   1      59.909  -7.881  35.893  0.00  0.00     0.000 C 
ENDBRANCH  11  12
ENDBRANCH   5  11
TORSDOF 4
ENDMDL
MODEL 9
REMARK VINA RESULT:      -2.1      3.372      5.176
REMARK  4 active torsions:
REMARK  status: ('A' for Active; 'I' for Inactive)
REMARK    1  A    between atoms: C_11  and  C_4 
REMARK    2  A    between atoms: C_12  and  C_5 
REMARK    3  A    between atoms: C_7  and  C_11 
REMARK    4  A    between atoms: C_8  and  C_12 
ROOT
ATOM      1  N   UNL d   1      59.162  -1.011  28.819  0.00  0.00    -0.246 NA
ATOM      2  C   UNL d   1      58.229  -0.524  30.079  0.00  0.00     0.003 A 
ATOM      3  C   UNL d   1      58.171  -1.295  29.797  0.00  0.00     0.019 A 
ATOM      4  C   UNL d   1      58.640  -1.540  29.163  0.00  0.00     0.081 A 
ATOM      5  C   UNL d   1      59.225  -0.242  29.095  0.00  0.00     0.081 A 
ATOM      6  C   UNL d   1      58.756   0.003  29.729  0.00  0.00     0.019 A 
ATOM      7  C   UNL d   1      57.766  -0.283  30.703  0.00  0.00     0.000 C 
ENDROOT
BRANCH   4   8
ATOM      8  C   UNL d   1      58.567  -2.332  28.888  0.00  0.00     0.019 C 
BRANCH   8   9
ATOM      9  C   UNL d   1      59.114  -2.896  29.102  0.00  0.00     0.002 C 
ATOM     10  C   UNL d   1      59.050  -3.685  28.842  0.00  0.00     0.000 C 
ENDBRANCH   8   9
ENDBRANCH   4   8
BRANCH   5  11
ATOM     11  C   UNL d   1      59.765   0.292  28.734  0.00  0.00     0.019 C 
BRANCH  11  12
ATOM     12  C   UNL d   1      60.552   0.089  28.654  0.00  0.00     0.002 C 
ATOM     13  C   UNL d   1      61.133   0.682  28.657  0.00  0.00     0.000 C 
ENDBRANCH  11  12
ENDBRANCH   5  11
TORSDOF 4
ENDMDL
