MODEL 1
REMARK VINA RESULT:      31.4      0.000      0.000
REMARK  1 active torsions:
REMARK  status: ('A' for Active; 'I' for Inactive)
REMARK       I    between atoms: C_3  and  N_1 
REMARK    1  A    between atoms: C_6  and  C_3 
ROOT
ATOM      1  N   UNL d   1      58.475  49.670  50.370  0.00  0.00    -0.175 N 
ATOM      2  N   UNL d   1      58.756  49.658  49.580  0.00  0.00    -0.057 NA
ATOM      3  C   UNL d   1      58.959  49.669  51.058  0.00  0.00     0.282 C 
ATOM      4  N   UNL d   1      58.136  49.663  49.098  0.00  0.00    -0.129 NA
ATOM      5  C   UNL d   1      57.650  49.682  50.342  0.00  0.00     0.107 A 
ATOM      6  C   UNL d   1      57.436  49.678  49.538  0.00  0.00     0.122 A 
ATOM      7  O   UNL d   1      58.596  49.682  51.812  0.00  0.00    -0.265 OA
ATOM      8  C   UNL d   1      57.059  49.697  50.937  0.00  0.00     0.021 A 
ATOM      9  C   UNL d   1      56.626  49.688  49.311  0.00  0.00     0.022 A 
ATOM     10  C   UNL d   1      56.256  49.708  50.713  0.00  0.00     0.002 A 
ATOM     11  C   UNL d   1      56.041  49.703  49.909  0.00  0.00     0.002 A 
ENDROOT
BRANCH   3  12
ATOM     12  C   UNL d   1      59.781  49.656  51.000  0.00  0.00     0.058 A 
ATOM     13  C   UNL d   1      60.249  49.661  51.668  0.00  0.00     0.005 A 
ATOM     14  C   UNL d   1      61.052  49.648  51.609  0.00  0.00     0.000 A 
ATOM     15  C   UNL d   1      59.869  49.680  52.393  0.00  0.00     0.000 A 
ATOM     16  C   UNL d   1      61.500  49.653  52.288  0.00  0.00     0.000 A 
ATOM     17  C   UNL d   1      61.417  49.629  50.863  0.00  0.00     0.000 A 
ATOM     18  C   UNL d   1      61.159  49.671  53.004  0.00  0.00     0.000 A 
ATOM     19  C   UNL d   1      60.342  49.685  53.061  0.00  0.00     0.000 A 
ATOM     20  C   UNL d   1      60.955  49.623  50.181  0.00  0.00     0.000 A 
ATOM     21  C   UNL d   1      60.127  49.637  50.252  0.00  0.00     0.005 A 
ENDBRANCH   3  12
TORSDOF 1
ENDMDL
