MODEL 1
REMARK VINA RESULT:      41.5      0.000      0.000
REMARK  1 active torsions:
REMARK  status: ('A' for Active; 'I' for Inactive)
REMARK       I    between atoms: N_3  and  C_1 
REMARK       I    between atoms: N_5  and  C_1 
REMARK       I    between atoms: C_2  and  N_4 
REMARK    1  A    between atoms: C_6  and  C_2 
ROOT
ATOM      1  C   UNL d   1      41.800 -15.489  36.501  0.00  0.00     0.340 C 
ATOM      2  C   UNL d   1      45.074 -15.853  36.720  0.00  0.00     0.271 C 
ATOM      3  N   UNL d   1      42.621 -15.559  36.455  0.00  0.00    -0.254 N 
ATOM      4  N   UNL d   1      44.245 -15.754  36.652  0.00  0.00    -0.269 N 
ATOM      5  N   UNL d   1      41.321 -16.147  36.364  0.00  0.00    -0.253 N 
ATOM      6  O   UNL d   1      41.458 -14.763  36.681  0.00  0.00    -0.245 OA
ATOM      7  C   UNL d   1      43.102 -14.904  36.620  0.00  0.00     0.104 A 
ATOM      8  C   UNL d   1      42.967 -16.316  36.369  0.00  0.00     0.104 A 
ATOM      9  C   UNL d   1      43.925 -15.007  36.730  0.00  0.00     0.102 A 
ATOM     10  C   UNL d   1      43.780 -16.414  36.463  0.00  0.00     0.102 A 
ATOM     11  O   UNL d   1      45.416 -16.608  36.635  0.00  0.00    -0.266 OA
ATOM     12  O   UNL d   1      40.373 -17.529  36.376  0.00  0.00    -0.300 OA
ATOM     13  C   UNL d   1      40.518 -16.146  36.693  0.00  0.00     0.111 C 
ATOM     14  C   UNL d   1      41.682 -16.939  36.467  0.00  0.00     0.111 C 
ATOM     15  C   UNL d   1      41.194 -17.596  36.331  0.00  0.00     0.142 C 
ATOM     16  C   UNL d   1      40.039 -16.797  36.558  0.00  0.00     0.142 C 
ENDROOT
BRANCH   2  17
ATOM     17  C   UNL d   1      45.556 -15.198  36.893  0.00  0.00     0.086 A 
ATOM     18  S   UNL d   1      46.169 -14.902  36.415  0.00  0.00    -0.082 SA
ATOM     19  C   UNL d   1      46.499 -14.231  36.801  0.00  0.00     0.036 A 
ATOM     20  C   UNL d   1      46.089 -14.125  37.518  0.00  0.00     0.008 A 
ATOM     21  C   UNL d   1      45.505 -14.717  37.573  0.00  0.00     0.012 A 
ENDBRANCH   2  17
TORSDOF 1
ENDMDL
