MODEL 1
REMARK VINA RESULT:      -9.2      0.000      0.000
REMARK  2 active torsions:
REMARK  status: ('A' for Active; 'I' for Inactive)
REMARK    1  A    between atoms: C_11  and  N_1 
REMARK    2  A    between atoms: C_16  and  C_11 
ROOT
ATOM      1  C   UNL d   1      54.004  32.647  53.106  0.00  0.00     0.086 C 
ENDROOT
BRANCH   1   2
ATOM      2  N   UNL d   1      53.719  33.302  53.513  0.00  0.00    -0.240 N 
ATOM      3  C   UNL d   1      53.125  33.810  53.247  0.00  0.00     0.267 A 
ATOM      4  C   UNL d   1      53.013  34.391  53.828  0.00  0.00     0.061 A 
ATOM      5  O   UNL d   1      52.717  33.754  52.539  0.00  0.00    -0.267 OA
ATOM      6  C   UNL d   1      52.505  35.031  53.868  0.00  0.00     0.005 A 
ATOM      7  C   UNL d   1      53.537  34.239  54.446  0.00  0.00     0.061 A 
ATOM      8  C   UNL d   1      52.520  35.522  54.530  0.00  0.00     0.000 A 
ATOM      9  C   UNL d   1      53.040  35.372  55.146  0.00  0.00     0.000 A 
ATOM     10  C   UNL d   1      53.552  34.724  55.101  0.00  0.00     0.005 A 
ATOM     11  C   UNL d   1      53.971  33.566  54.248  0.00  0.00     0.267 A 
ATOM     12  O   UNL d   1      54.562  33.218  54.716  0.00  0.00    -0.267 OA
ENDBRANCH   1   2
BRANCH   1  13
ATOM     13  C   UNL d   1      53.658  31.898  53.215  0.00  0.00     0.018 A 
ATOM     14  C   UNL d   1      53.996  31.367  53.747  0.00  0.00     0.003 A 
ATOM     15  C   UNL d   1      53.643  30.612  53.854  0.00  0.00     0.018 A 
ATOM     16  C   UNL d   1      53.844  29.972  54.335  0.00  0.00     0.019 A 
ATOM     17  C   UNL d   1      52.964  30.411  53.425  0.00  0.00     0.064 A 
ATOM     18  C   UNL d   1      53.295  29.369  54.211  0.00  0.00     0.064 A 
ATOM     19  C   UNL d   1      53.290  28.632  54.581  0.00  0.00     0.019 C 
ATOM     20  N   UNL d   1      52.754  29.645  53.650  0.00  0.00    -0.304 N 
ATOM     21  C   UNL d   1      52.101  29.214  53.357  0.00  0.00     0.099 C 
ATOM     22  C   UNL d   1      52.629  30.947  52.892  0.00  0.00     0.018 A 
ATOM     23  C   UNL d   1      52.972  31.687  52.786  0.00  0.00     0.003 A 
ENDBRANCH   1  13
TORSDOF 2
ENDMDL
MODEL 2
REMARK VINA RESULT:      -8.9      1.776      4.417
REMARK  2 active torsions:
REMARK  status: ('A' for Active; 'I' for Inactive)
REMARK    1  A    between atoms: C_11  and  N_1 
REMARK    2  A    between atoms: C_16  and  C_11 
ROOT
ATOM      1  C   UNL d   1      53.228  32.777  53.093  0.00  0.00     0.086 C 
ENDROOT
BRANCH   1   2
ATOM      2  N   UNL d   1      53.235  31.991  53.332  0.00  0.00    -0.240 N 
ATOM      3  C   UNL d   1      53.487  31.716  54.068  0.00  0.00     0.267 A 
ATOM      4  C   UNL d   1      53.400  30.892  54.072  0.00  0.00     0.061 A 
ATOM      5  O   UNL d   1      53.773  32.172  54.686  0.00  0.00    -0.267 OA
ATOM      6  C   UNL d   1      53.559  30.330  54.645  0.00  0.00     0.005 A 
ATOM      7  C   UNL d   1      53.096  30.663  53.342  0.00  0.00     0.061 A 
ATOM      8  C   UNL d   1      53.413  29.534  54.487  0.00  0.00     0.000 A 
ATOM      9  C   UNL d   1      53.110  29.304  53.760  0.00  0.00     0.000 A 
ATOM     10  C   UNL d   1      52.951  29.877  53.185  0.00  0.00     0.005 A 
ATOM     11  C   UNL d   1      52.994  31.344  52.887  0.00  0.00     0.267 A 
ATOM     12  O   UNL d   1      52.700  31.367  52.111  0.00  0.00    -0.267 OA
ENDBRANCH   1   2
BRANCH   1  13
ATOM     13  C   UNL d   1      52.522  33.219  53.113  0.00  0.00     0.018 A 
ATOM     14  C   UNL d   1      52.082  33.315  52.423  0.00  0.00     0.003 A 
ATOM     15  C   UNL d   1      51.371  33.762  52.449  0.00  0.00     0.018 A 
ATOM     16  C   UNL d   1      50.819  33.954  51.867  0.00  0.00     0.019 A 
ATOM     17  C   UNL d   1      51.123  34.099  53.164  0.00  0.00     0.064 A 
ATOM     18  C   UNL d   1      50.224  34.411  52.211  0.00  0.00     0.064 A 
ATOM     19  C   UNL d   1      49.563  34.720  51.825  0.00  0.00     0.019 C 
ATOM     20  N   UNL d   1      50.416  34.497  53.010  0.00  0.00    -0.304 N 
ATOM     21  C   UNL d   1      49.964  34.921  53.571  0.00  0.00     0.099 C 
ATOM     22  C   UNL d   1      51.568  34.000  53.853  0.00  0.00     0.018 A 
ATOM     23  C   UNL d   1      52.265  33.563  53.831  0.00  0.00     0.003 A 
ENDBRANCH   1  13
TORSDOF 2
ENDMDL
MODEL 3
REMARK VINA RESULT:      -8.7      2.405      4.301
REMARK  2 active torsions:
REMARK  status: ('A' for Active; 'I' for Inactive)
REMARK    1  A    between atoms: C_11  and  N_1 
REMARK    2  A    between atoms: C_16  and  C_11 
ROOT
ATOM      1  C   UNL d   1      52.603  34.189  52.571  0.00  0.00     0.086 C 
ENDROOT
BRANCH   1   2
ATOM      2  N   UNL d   1      52.943  33.726  53.159  0.00  0.00    -0.240 N 
ATOM      3  C   UNL d   1      53.297  34.010  53.847  0.00  0.00     0.267 A 
ATOM      4  C   UNL d   1      53.565  33.356  54.280  0.00  0.00     0.061 A 
ATOM      5  O   UNL d   1      53.373  34.796  54.067  0.00  0.00    -0.267 OA
ATOM      6  C   UNL d   1      53.954  33.299  54.999  0.00  0.00     0.005 A 
ATOM      7  C   UNL d   1      53.376  32.674  53.858  0.00  0.00     0.061 A 
ATOM      8  C   UNL d   1      54.154  32.558  55.296  0.00  0.00     0.000 A 
ATOM      9  C   UNL d   1      53.966  31.878  54.877  0.00  0.00     0.000 A 
ATOM     10  C   UNL d   1      53.574  31.940  54.152  0.00  0.00     0.005 A 
ATOM     11  C   UNL d   1      52.992  32.906  53.165  0.00  0.00     0.267 A 
ATOM     12  O   UNL d   1      52.705  32.394  52.579  0.00  0.00    -0.267 OA
ENDBRANCH   1   2
BRANCH   1  13
ATOM     13  C   UNL d   1      51.786  34.349  52.579  0.00  0.00     0.018 A 
ATOM     14  C   UNL d   1      51.336  34.207  51.903  0.00  0.00     0.003 A 
ATOM     15  C   UNL d   1      50.512  34.371  51.916  0.00  0.00     0.018 A 
ATOM     16  C   UNL d   1      49.924  34.290  51.343  0.00  0.00     0.019 A 
ATOM     17  C   UNL d   1      50.164  34.671  52.605  0.00  0.00     0.064 A 
ATOM     18  C   UNL d   1      49.207  34.538  51.667  0.00  0.00     0.064 A 
ATOM     19  C   UNL d   1      48.477  34.549  51.282  0.00  0.00     0.019 C 
ATOM     20  N   UNL d   1      49.360  34.772  52.445  0.00  0.00    -0.304 N 
ATOM     21  C   UNL d   1      48.790  35.064  52.981  0.00  0.00     0.099 C 
ATOM     22  C   UNL d   1      50.619  34.812  53.280  0.00  0.00     0.018 A 
ATOM     23  C   UNL d   1      51.426  34.653  53.270  0.00  0.00     0.003 A 
ENDBRANCH   1  13
TORSDOF 2
ENDMDL
MODEL 4
REMARK VINA RESULT:      -8.2      1.134      4.277
REMARK  2 active torsions:
REMARK  status: ('A' for Active; 'I' for Inactive)
REMARK    1  A    between atoms: C_11  and  N_1 
REMARK    2  A    between atoms: C_16  and  C_11 
ROOT
ATOM      1  C   UNL d   1      53.728  32.072  52.931  0.00  0.00     0.086 C 
ENDROOT
BRANCH   1   2
ATOM      2  N   UNL d   1      53.536  31.338  53.248  0.00  0.00    -0.240 N 
ATOM      3  C   UNL d   1      53.092  30.755  52.870  0.00  0.00     0.267 A 
ATOM      4  C   UNL d   1      53.033  30.109  53.387  0.00  0.00     0.061 A 
ATOM      5  O   UNL d   1      52.765  30.801  52.120  0.00  0.00    -0.267 OA
ATOM      6  C   UNL d   1      52.663  29.383  53.313  0.00  0.00     0.005 A 
ATOM      7  C   UNL d   1      53.440  30.297  54.078  0.00  0.00     0.061 A 
ATOM      8  C   UNL d   1      52.701  28.842  53.933  0.00  0.00     0.000 A 
ATOM      9  C   UNL d   1      53.106  29.027  54.622  0.00  0.00     0.000 A 
ATOM     10  C   UNL d   1      53.478  29.763  54.692  0.00  0.00     0.005 A 
ATOM     11  C   UNL d   1      53.750  31.057  53.989  0.00  0.00     0.267 A 
ATOM     12  O   UNL d   1      54.201  31.464  54.555  0.00  0.00    -0.267 OA
ENDBRANCH   1   2
BRANCH   1  13
ATOM     13  C   UNL d   1      53.292  32.750  53.140  0.00  0.00     0.018 A 
ATOM     14  C   UNL d   1      53.645  33.333  53.603  0.00  0.00     0.003 A 
ATOM     15  C   UNL d   1      53.201  34.016  53.812  0.00  0.00     0.018 A 
ATOM     16  C   UNL d   1      53.392  34.682  54.259  0.00  0.00     0.019 A 
ATOM     17  C   UNL d   1      52.420  34.094  53.550  0.00  0.00     0.064 A 
ATOM     18  C   UNL d   1      52.735  35.180  54.281  0.00  0.00     0.064 A 
ATOM     19  C   UNL d   1      52.687  35.907  54.668  0.00  0.00     0.019 C 
ATOM     20  N   UNL d   1      52.138  34.813  53.842  0.00  0.00    -0.304 N 
ATOM     21  C   UNL d   1      51.372  35.123  53.716  0.00  0.00     0.099 C 
ATOM     22  C   UNL d   1      52.071  33.506  53.085  0.00  0.00     0.018 A 
ATOM     23  C   UNL d   1      52.503  32.837  52.880  0.00  0.00     0.003 A 
ENDBRANCH   1  13
TORSDOF 2
ENDMDL
MODEL 5
REMARK VINA RESULT:      -7.8      1.669      2.328
REMARK  2 active torsions:
REMARK  status: ('A' for Active; 'I' for Inactive)
REMARK    1  A    between atoms: C_11  and  N_1 
REMARK    2  A    between atoms: C_16  and  C_11 
ROOT
ATOM      1  C   UNL d   1      52.865  33.685  52.939  0.00  0.00     0.086 C 
ENDROOT
BRANCH   1   2
ATOM      2  N   UNL d   1      52.090  33.953  52.886  0.00  0.00    -0.240 N 
ATOM      3  C   UNL d   1      51.639  33.979  52.196  0.00  0.00     0.267 A 
ATOM      4  C   UNL d   1      50.895  34.286  52.393  0.00  0.00     0.061 A 
ATOM      5  O   UNL d   1      51.879  33.744  51.448  0.00  0.00    -0.267 OA
ATOM      6  C   UNL d   1      50.229  34.436  51.942  0.00  0.00     0.005 A 
ATOM      7  C   UNL d   1      50.891  34.448  53.201  0.00  0.00     0.061 A 
ATOM      8  C   UNL d   1      49.556  34.750  52.300  0.00  0.00     0.000 A 
ATOM      9  C   UNL d   1      49.550  34.911  53.104  0.00  0.00     0.000 A 
ATOM     10  C   UNL d   1      50.226  34.758  53.556  0.00  0.00     0.005 A 
ATOM     11  C   UNL d   1      51.631  34.241  53.503  0.00  0.00     0.267 A 
ATOM     12  O   UNL d   1      51.867  34.314  54.295  0.00  0.00    -0.267 OA
ENDBRANCH   1   2
BRANCH   1  13
ATOM     13  C   UNL d   1      53.028  32.912  53.203  0.00  0.00     0.018 A 
ATOM     14  C   UNL d   1      52.730  32.268  52.783  0.00  0.00     0.003 A 
ATOM     15  C   UNL d   1      52.897  31.490  53.052  0.00  0.00     0.018 A 
ATOM     16  C   UNL d   1      52.684  30.748  52.761  0.00  0.00     0.019 A 
ATOM     17  C   UNL d   1      53.356  31.380  53.732  0.00  0.00     0.064 A 
ATOM     18  C   UNL d   1      53.006  30.170  53.254  0.00  0.00     0.064 A 
ATOM     19  C   UNL d   1      52.928  29.354  53.164  0.00  0.00     0.019 C 
ATOM     20  N   UNL d   1      53.420  30.565  53.852  0.00  0.00    -0.304 N 
ATOM     21  C   UNL d   1      53.835  30.196  54.475  0.00  0.00     0.099 C 
ATOM     22  C   UNL d   1      53.652  32.029  54.150  0.00  0.00     0.018 A 
ATOM     23  C   UNL d   1      53.491  32.792  53.888  0.00  0.00     0.003 A 
ENDBRANCH   1  13
TORSDOF 2
ENDMDL
