MODEL 1
REMARK VINA RESULT:      -8.6      0.000      0.000
REMARK  7 active torsions:
REMARK  status: ('A' for Active; 'I' for Inactive)
REMARK    1  A    between atoms: C_3  and  C_1 
REMARK    2  A    between atoms: O_13  and  C_1 
REMARK       I    between atoms: C_2  and  N_7 
REMARK    3  A    between atoms: C_4  and  C_2 
REMARK    4  A    between atoms: C_6  and  C_4 
REMARK    5  A    between atoms: C_5  and  C_6 
REMARK    6  A    between atoms: O_14  and  C_5 
REMARK    7  A    between atoms: N_7  and  C_9 
ROOT
ATOM      1  C   UNL d   1      52.848  34.456  54.127  0.00  0.00     0.063 A 
ATOM      2  C   UNL d   1      52.714  33.638  54.138  0.00  0.00     0.023 A 
ATOM      3  C   UNL d   1      52.324  33.283  53.508  0.00  0.00     0.059 A 
ATOM      4  C   UNL d   1      52.594  34.914  53.490  0.00  0.00     0.006 A 
ATOM      5  C   UNL d   1      52.205  34.556  52.864  0.00  0.00     0.002 A 
ATOM      6  C   UNL d   1      52.070  33.741  52.871  0.00  0.00     0.017 A 
ENDROOT
BRANCH   3   7
ATOM      7  N   UNL d   1      52.187  32.471  53.511  0.00  0.00    -0.321 N 
ATOM      8  C   UNL d   1      52.659  31.972  53.074  0.00  0.00     0.258 C 
ATOM      9  O   UNL d   1      53.272  32.290  52.633  0.00  0.00    -0.267 OA
ATOM     10  H   UNL d   1      51.571  32.163  53.955  0.00  0.00     0.169 HD
BRANCH   8  11
ATOM     11  C   UNL d   1      52.519  31.171  53.080  0.00  0.00     0.067 C 
BRANCH  11  12
ATOM     12  C   UNL d   1      53.133  30.653  53.227  0.00  0.00     0.072 C 
BRANCH  12  13
ATOM     13  C   UNL d   1      52.983  29.906  53.543  0.00  0.00     0.178 C 
ATOM     14  O   UNL d   1      52.550  29.360  53.104  0.00  0.00    -0.646 OA
BRANCH  13  15
ATOM     15  O   UNL d   1      53.263  29.702  54.292  0.00  0.00    -0.773 OA
ATOM     16  H   UNL d   1      53.196  30.249  54.910  0.00  0.00     0.167 HD
ENDBRANCH  13  15
ENDBRANCH  12  13
ENDBRANCH  11  12
ENDBRANCH   8  11
ENDBRANCH   3   7
BRANCH   1  17
ATOM     17  C   UNL d   1      53.240  34.809  54.762  0.00  0.00     0.178 C 
ATOM     18  O   UNL d   1      54.032  34.634  54.916  0.00  0.00    -0.646 OA
BRANCH  17  19
ATOM     19  O   UNL d   1      52.835  35.342  55.245  0.00  0.00    -0.773 OA
ATOM     20  H   UNL d   1      52.434  35.074  55.914  0.00  0.00     0.167 HD
ENDBRANCH  17  19
ENDBRANCH   1  17
TORSDOF 7
ENDMDL
MODEL 2
REMARK VINA RESULT:      -8.2      1.784      4.328
REMARK  7 active torsions:
REMARK  status: ('A' for Active; 'I' for Inactive)
REMARK    1  A    between atoms: C_3  and  C_1 
REMARK    2  A    between atoms: O_13  and  C_1 
REMARK       I    between atoms: C_2  and  N_7 
REMARK    3  A    between atoms: C_4  and  C_2 
REMARK    4  A    between atoms: C_6  and  C_4 
REMARK    5  A    between atoms: C_5  and  C_6 
REMARK    6  A    between atoms: O_14  and  C_5 
REMARK    7  A    between atoms: N_7  and  C_9 
ROOT
ATOM      1  C   UNL d   1      53.170  29.738  53.938  0.00  0.00     0.063 A 
ATOM      2  C   UNL d   1      53.648  30.400  54.080  0.00  0.00     0.023 A 
ATOM      3  C   UNL d   1      53.653  31.019  53.540  0.00  0.00     0.059 A 
ATOM      4  C   UNL d   1      52.701  29.696  53.261  0.00  0.00     0.006 A 
ATOM      5  C   UNL d   1      52.709  30.315  52.726  0.00  0.00     0.002 A 
ATOM      6  C   UNL d   1      53.183  30.977  52.863  0.00  0.00     0.017 A 
ENDROOT
BRANCH   3   7
ATOM      7  N   UNL d   1      54.124  31.681  53.672  0.00  0.00    -0.321 N 
ATOM      8  C   UNL d   1      53.838  32.313  54.099  0.00  0.00     0.258 C 
ATOM      9  O   UNL d   1      53.075  32.278  54.394  0.00  0.00    -0.267 OA
ATOM     10  H   UNL d   1      54.886  31.706  53.372  0.00  0.00     0.169 HD
BRANCH   8  11
ATOM     11  C   UNL d   1      54.308  32.964  54.226  0.00  0.00     0.067 C 
BRANCH  11  12
ATOM     12  C   UNL d   1      54.356  33.288  54.974  0.00  0.00     0.072 C 
BRANCH  12  13
ATOM     13  C   UNL d   1      54.734  34.013  55.091  0.00  0.00     0.178 C 
ATOM     14  O   UNL d   1      55.526  34.025  55.313  0.00  0.00    -0.646 OA
BRANCH  13  15
ATOM     15  O   UNL d   1      54.324  34.722  54.988  0.00  0.00    -0.773 OA
ATOM     16  H   UNL d   1      53.610  34.719  54.570  0.00  0.00     0.167 HD
ENDBRANCH  13  15
ENDBRANCH  12  13
ENDBRANCH  11  12
ENDBRANCH   8  11
ENDBRANCH   3   7
BRANCH   1  17
ATOM     17  C   UNL d   1      53.169  29.118  54.484  0.00  0.00     0.178 C 
ATOM     18  O   UNL d   1      53.613  28.436  54.345  0.00  0.00    -0.646 OA
BRANCH  17  19
ATOM     19  O   UNL d   1      52.719  29.183  55.173  0.00  0.00    -0.773 OA
ATOM     20  H   UNL d   1      52.829  29.822  55.683  0.00  0.00     0.167 HD
ENDBRANCH  17  19
ENDBRANCH   1  17
TORSDOF 7
ENDMDL
MODEL 3
REMARK VINA RESULT:      -8.2      2.103      3.268
REMARK  7 active torsions:
REMARK  status: ('A' for Active; 'I' for Inactive)
REMARK    1  A    between atoms: C_3  and  C_1 
REMARK    2  A    between atoms: O_13  and  C_1 
REMARK       I    between atoms: C_2  and  N_7 
REMARK    3  A    between atoms: C_4  and  C_2 
REMARK    4  A    between atoms: C_6  and  C_4 
REMARK    5  A    between atoms: C_5  and  C_6 
REMARK    6  A    between atoms: O_14  and  C_5 
REMARK    7  A    between atoms: N_7  and  C_9 
ROOT
ATOM      1  C   UNL d   1      54.299  33.226  54.564  0.00  0.00     0.063 A 
ATOM      2  C   UNL d   1      53.481  33.322  54.471  0.00  0.00     0.023 A 
ATOM      3  C   UNL d   1      53.102  32.975  53.830  0.00  0.00     0.059 A 
ATOM      4  C   UNL d   1      54.734  32.786  54.018  0.00  0.00     0.006 A 
ATOM      5  C   UNL d   1      54.353  32.442  53.381  0.00  0.00     0.002 A 
ATOM      6  C   UNL d   1      53.538  32.535  53.284  0.00  0.00     0.017 A 
ENDROOT
BRANCH   3   7
ATOM      7  N   UNL d   1      52.290  33.064  53.729  0.00  0.00    -0.321 N 
ATOM      8  C   UNL d   1      51.994  33.683  53.290  0.00  0.00     0.258 C 
ATOM      9  O   UNL d   1      52.518  34.214  52.950  0.00  0.00    -0.267 OA
ATOM     10  H   UNL d   1      51.775  32.528  54.073  0.00  0.00     0.169 HD
BRANCH   8  11
ATOM     11  C   UNL d   1      51.192  33.766  53.194  0.00  0.00     0.067 C 
BRANCH  11  12
ATOM     12  C   UNL d   1      50.900  34.368  52.725  0.00  0.00     0.072 C 
BRANCH  12  13
ATOM     13  C   UNL d   1      50.090  34.523  52.699  0.00  0.00     0.178 C 
ATOM     14  O   UNL d   1      49.658  34.313  52.030  0.00  0.00    -0.646 OA
BRANCH  13  15
ATOM     15  O   UNL d   1      49.711  34.886  53.337  0.00  0.00    -0.773 OA
ATOM     16  H   UNL d   1      50.164  35.287  53.901  0.00  0.00     0.167 HD
ENDBRANCH  13  15
ENDBRANCH  12  13
ENDBRANCH  11  12
ENDBRANCH   8  11
ENDBRANCH   3   7
BRANCH   1  17
ATOM     17  C   UNL d   1      54.675  33.577  55.210  0.00  0.00     0.178 C 
ATOM     18  O   UNL d   1      54.752  33.169  55.922  0.00  0.00    -0.646 OA
BRANCH  17  19
ATOM     19  O   UNL d   1      54.975  34.342  55.139  0.00  0.00    -0.773 OA
ATOM     20  H   UNL d   1      54.880  34.764  54.437  0.00  0.00     0.167 HD
ENDBRANCH  17  19
ENDBRANCH   1  17
TORSDOF 7
ENDMDL
MODEL 4
REMARK VINA RESULT:      -7.8      1.798      3.944
REMARK  7 active torsions:
REMARK  status: ('A' for Active; 'I' for Inactive)
REMARK    1  A    between atoms: C_3  and  C_1 
REMARK    2  A    between atoms: O_13  and  C_1 
REMARK       I    between atoms: C_2  and  N_7 
REMARK    3  A    between atoms: C_4  and  C_2 
REMARK    4  A    between atoms: C_6  and  C_4 
REMARK    5  A    between atoms: C_5  and  C_6 
REMARK    6  A    between atoms: O_14  and  C_5 
REMARK    7  A    between atoms: N_7  and  C_9 
ROOT
ATOM      1  C   UNL d   1      53.294  31.349  53.277  0.00  0.00     0.063 A 
ATOM      2  C   UNL d   1      52.637  31.849  53.346  0.00  0.00     0.023 A 
ATOM      3  C   UNL d   1      52.741  32.622  53.603  0.00  0.00     0.059 A 
ATOM      4  C   UNL d   1      54.050  31.621  53.465  0.00  0.00     0.006 A 
ATOM      5  C   UNL d   1      54.149  32.392  53.721  0.00  0.00     0.002 A 
ATOM      6  C   UNL d   1      53.497  32.895  53.791  0.00  0.00     0.017 A 
ENDROOT
BRANCH   3   7
ATOM      7  N   UNL d   1      52.095  33.127  53.674  0.00  0.00    -0.321 N 
ATOM      8  C   UNL d   1      51.848  33.573  53.039  0.00  0.00     0.258 C 
ATOM      9  O   UNL d   1      52.253  33.511  52.330  0.00  0.00    -0.267 OA
ATOM     10  H   UNL d   1      51.696  33.181  54.387  0.00  0.00     0.169 HD
BRANCH   8  11
ATOM     11  C   UNL d   1      51.209  34.069  53.115  0.00  0.00     0.067 C 
BRANCH  11  12
ATOM     12  C   UNL d   1      50.674  34.137  52.501  0.00  0.00     0.072 C 
BRANCH  12  13
ATOM     13  C   UNL d   1      49.960  34.536  52.611  0.00  0.00     0.178 C 
ATOM     14  O   UNL d   1      49.395  34.530  52.012  0.00  0.00    -0.646 OA
BRANCH  13  15
ATOM     15  O   UNL d   1      49.808  34.940  53.316  0.00  0.00    -0.773 OA
ATOM     16  H   UNL d   1      49.405  35.663  53.288  0.00  0.00     0.167 HD
ENDBRANCH  13  15
ENDBRANCH  12  13
ENDBRANCH  11  12
ENDBRANCH   8  11
ENDBRANCH   3   7
BRANCH   1  17
ATOM     17  C   UNL d   1      53.185  30.572  53.019  0.00  0.00     0.178 C 
ATOM     18  O   UNL d   1      53.197  29.946  53.555  0.00  0.00    -0.646 OA
BRANCH  17  19
ATOM     19  O   UNL d   1      53.062  30.424  52.216  0.00  0.00    -0.773 OA
ATOM     20  H   UNL d   1      53.266  30.991  51.652  0.00  0.00     0.167 HD
ENDBRANCH  17  19
ENDBRANCH   1  17
TORSDOF 7
ENDMDL
