MODEL 1
REMARK VINA RESULT:      -9.2      0.000      0.000
REMARK  3 active torsions:
REMARK  status: ('A' for Active; 'I' for Inactive)
REMARK    1  A    between atoms: S_12  and  C_6 
REMARK    2  A    between atoms: C_10  and  C_14 
REMARK       I    between atoms: N_11  and  C_10 
REMARK    3  A    between atoms: C_14  and  S_12 
ROOT
ATOM      1  C   UNL d   1      53.360  32.918  53.762  0.00  0.00     0.155 A 
ATOM      2  C   UNL d   1      52.685  32.611  53.391  0.00  0.00     0.107 A 
ATOM      3  N   UNL d   1      52.766  34.217  53.762  0.00  0.00    -0.250 N 
ATOM      4  C   UNL d   1      53.400  33.715  53.947  0.00  0.00     0.285 A 
ATOM      5  N   UNL d   1      52.051  33.113  53.206  0.00  0.00    -0.220 NA
ATOM      6  C   UNL d   1      52.100  33.912  53.395  0.00  0.00     0.182 A 
ATOM      7  N   UNL d   1      53.893  32.299  53.876  0.00  0.00    -0.239 NA
ATOM      8  C   UNL d   1      52.797  31.805  53.273  0.00  0.00     0.037 A 
ATOM      9  C   UNL d   1      53.549  31.607  53.575  0.00  0.00     0.083 A 
ATOM     10  O   UNL d   1      54.073  34.030  54.319  0.00  0.00    -0.265 OA
ATOM     11  C   UNL d   1      52.805  35.024  53.948  0.00  0.00     0.104 C 
ATOM     12  C   UNL d   1      52.325  31.222  52.937  0.00  0.00     0.003 A 
ATOM     13  C   UNL d   1      53.820  30.826  53.536  0.00  0.00     0.019 A 
ATOM     14  C   UNL d   1      52.596  30.441  52.897  0.00  0.00     0.000 A 
ATOM     15  C   UNL d   1      53.339  30.247  53.196  0.00  0.00     0.002 A 
ENDROOT
BRANCH   6  16
ATOM     16  S   UNL d   1      51.469  34.413  53.212  0.00  0.00    -0.044 SA
BRANCH  16  17
ATOM     17  C   UNL d   1      50.873  34.163  52.700  0.00  0.00     0.099 C 
BRANCH  17  18
ATOM     18  C   UNL d   1      50.129  34.512  52.731  0.00  0.00     0.271 C 
ATOM     19  N   UNL d   1      49.665  34.530  52.057  0.00  0.00    -0.272 N 
ATOM     20  C   UNL d   1      48.919  34.877  52.076  0.00  0.00     0.083 A 
ATOM     21  C   UNL d   1      49.944  34.200  51.353  0.00  0.00     0.083 A 
ATOM     22  C   UNL d   1      48.459  34.894  51.403  0.00  0.00     0.019 A 
ATOM     23  C   UNL d   1      48.726  34.569  50.701  0.00  0.00     0.003 A 
ATOM     24  C   UNL d   1      49.473  34.219  50.673  0.00  0.00     0.019 A 
ATOM     25  O   UNL d   1      49.846  34.842  53.425  0.00  0.00    -0.266 OA
ENDBRANCH  17  18
ENDBRANCH  16  17
ENDBRANCH   6  16
TORSDOF 3
ENDMDL
MODEL 2
REMARK VINA RESULT:      -7.8      1.638      4.785
REMARK  3 active torsions:
REMARK  status: ('A' for Active; 'I' for Inactive)
REMARK    1  A    between atoms: S_12  and  C_6 
REMARK    2  A    between atoms: C_10  and  C_14 
REMARK       I    between atoms: N_11  and  C_10 
REMARK    3  A    between atoms: C_14  and  S_12 
ROOT
ATOM      1  C   UNL d   1      52.652  34.110  53.777  0.00  0.00     0.155 A 
ATOM      2  C   UNL d   1      52.261  33.482  53.407  0.00  0.00     0.107 A 
ATOM      3  N   UNL d   1      53.764  33.254  54.048  0.00  0.00    -0.250 N 
ATOM      4  C   UNL d   1      53.399  33.998  54.096  0.00  0.00     0.285 A 
ATOM      5  N   UNL d   1      52.625  32.738  53.358  0.00  0.00    -0.220 NA
ATOM      6  C   UNL d   1      53.375  32.634  53.681  0.00  0.00     0.182 A 
ATOM      7  N   UNL d   1      52.164  34.773  53.743  0.00  0.00    -0.239 NA
ATOM      8  C   UNL d   1      51.530  33.750  53.142  0.00  0.00     0.037 A 
ATOM      9  C   UNL d   1      51.466  34.556  53.350  0.00  0.00     0.083 A 
ATOM     10  O   UNL d   1      53.799  34.623  54.469  0.00  0.00    -0.265 OA
ATOM     11  C   UNL d   1      54.519  33.139  54.369  0.00  0.00     0.104 C 
ATOM     12  C   UNL d   1      50.913  33.381  52.742  0.00  0.00     0.003 A 
ATOM     13  C   UNL d   1      50.784  34.982  53.155  0.00  0.00     0.019 A 
ATOM     14  C   UNL d   1      50.232  33.808  52.547  0.00  0.00     0.000 A 
ATOM     15  C   UNL d   1      50.170  34.603  52.754  0.00  0.00     0.002 A 
ENDROOT
BRANCH   6  16
ATOM     16  S   UNL d   1      53.740  31.894  53.634  0.00  0.00    -0.044 SA
BRANCH  16  17
ATOM     17  C   UNL d   1      53.347  31.219  53.897  0.00  0.00     0.099 C 
BRANCH  17  18
ATOM     18  C   UNL d   1      53.591  30.475  53.645  0.00  0.00     0.271 C 
ATOM     19  N   UNL d   1      53.486  29.829  54.138  0.00  0.00    -0.272 N 
ATOM     20  C   UNL d   1      53.726  29.079  53.897  0.00  0.00     0.083 A 
ATOM     21  C   UNL d   1      53.138  29.927  54.880  0.00  0.00     0.083 A 
ATOM     22  C   UNL d   1      53.621  28.438  54.389  0.00  0.00     0.019 A 
ATOM     23  C   UNL d   1      53.277  28.524  55.126  0.00  0.00     0.003 A 
ATOM     24  C   UNL d   1      53.033  29.272  55.377  0.00  0.00     0.019 A 
ATOM     25  O   UNL d   1      53.937  30.370  52.910  0.00  0.00    -0.266 OA
ENDBRANCH  17  18
ENDBRANCH  16  17
ENDBRANCH   6  16
TORSDOF 3
ENDMDL
MODEL 3
REMARK VINA RESULT:      -7.4      1.324      2.494
REMARK  3 active torsions:
REMARK  status: ('A' for Active; 'I' for Inactive)
REMARK    1  A    between atoms: S_12  and  C_6 
REMARK    2  A    between atoms: C_10  and  C_14 
REMARK       I    between atoms: N_11  and  C_10 
REMARK    3  A    between atoms: C_14  and  S_12 
ROOT
ATOM      1  C   UNL d   1      53.612  32.411  53.992  0.00  0.00     0.155 A 
ATOM      2  C   UNL d   1      53.375  33.205  53.972  0.00  0.00     0.107 A 
ATOM      3  N   UNL d   1      52.573  32.081  53.068  0.00  0.00    -0.250 N 
ATOM      4  C   UNL d   1      53.214  31.853  53.544  0.00  0.00     0.285 A 
ATOM      5  N   UNL d   1      52.734  33.434  53.497  0.00  0.00    -0.220 NA
ATOM      6  C   UNL d   1      52.341  32.866  53.050  0.00  0.00     0.182 A 
ATOM      7  N   UNL d   1      54.254  32.349  54.505  0.00  0.00    -0.239 NA
ATOM      8  C   UNL d   1      53.867  33.636  54.470  0.00  0.00     0.037 A 
ATOM      9  C   UNL d   1      54.417  33.105  54.804  0.00  0.00     0.083 A 
ATOM     10  O   UNL d   1      53.445  31.055  53.558  0.00  0.00    -0.265 OA
ATOM     11  C   UNL d   1      52.169  31.517  52.614  0.00  0.00     0.104 C 
ATOM     12  C   UNL d   1      53.896  34.434  54.668  0.00  0.00     0.003 A 
ATOM     13  C   UNL d   1      54.990  33.380  55.334  0.00  0.00     0.019 A 
ATOM     14  C   UNL d   1      54.469  34.708  55.198  0.00  0.00     0.000 A 
ATOM     15  C   UNL d   1      55.012  34.182  55.527  0.00  0.00     0.002 A 
ENDROOT
BRANCH   6  16
ATOM     16  S   UNL d   1      51.702  33.091  52.577  0.00  0.00    -0.044 SA
BRANCH  16  17
ATOM     17  C   UNL d   1      51.263  33.764  52.762  0.00  0.00     0.099 C 
BRANCH  17  18
ATOM     18  C   UNL d   1      50.715  34.060  52.224  0.00  0.00     0.271 C 
ATOM     19  N   UNL d   1      50.088  34.511  52.497  0.00  0.00    -0.272 N 
ATOM     20  C   UNL d   1      49.534  34.813  51.969  0.00  0.00     0.083 A 
ATOM     21  C   UNL d   1      50.009  34.665  53.304  0.00  0.00     0.083 A 
ATOM     22  C   UNL d   1      48.910  35.262  52.242  0.00  0.00     0.019 A 
ATOM     23  C   UNL d   1      48.823  35.420  53.039  0.00  0.00     0.003 A 
ATOM     24  C   UNL d   1      49.374  35.122  53.577  0.00  0.00     0.019 A 
ATOM     25  O   UNL d   1      50.787  33.911  51.422  0.00  0.00    -0.266 OA
ENDBRANCH  17  18
ENDBRANCH  16  17
ENDBRANCH   6  16
TORSDOF 3
ENDMDL
MODEL 4
REMARK VINA RESULT:      -7.1      1.782      5.467
REMARK  3 active torsions:
REMARK  status: ('A' for Active; 'I' for Inactive)
REMARK    1  A    between atoms: S_12  and  C_6 
REMARK    2  A    between atoms: C_10  and  C_14 
REMARK       I    between atoms: N_11  and  C_10 
REMARK    3  A    between atoms: C_14  and  S_12 
ROOT
ATOM      1  C   UNL d   1      48.328  35.324  52.060  0.00  0.00     0.155 A 
ATOM      2  C   UNL d   1      48.685  35.322  52.807  0.00  0.00     0.107 A 
ATOM      3  N   UNL d   1      49.387  34.508  51.555  0.00  0.00    -0.250 N 
ATOM      4  C   UNL d   1      48.676  34.920  51.437  0.00  0.00     0.285 A 
ATOM      5  N   UNL d   1      49.396  34.910  52.925  0.00  0.00    -0.220 NA
ATOM      6  C   UNL d   1      49.738  34.508  52.294  0.00  0.00     0.182 A 
ATOM      7  N   UNL d   1      47.637  35.771  52.107  0.00  0.00    -0.239 NA
ATOM      8  C   UNL d   1      48.220  35.766  53.319  0.00  0.00     0.037 A 
ATOM      9  C   UNL d   1      47.565  36.048  52.886  0.00  0.00     0.083 A 
ATOM     10  O   UNL d   1      48.324  34.917  50.685  0.00  0.00    -0.265 OA
ATOM     11  C   UNL d   1      49.740  34.099  50.926  0.00  0.00     0.104 C 
ATOM     12  C   UNL d   1      48.295  35.956  54.116  0.00  0.00     0.003 A 
ATOM     13  C   UNL d   1      46.993  36.517  53.256  0.00  0.00     0.019 A 
ATOM     14  C   UNL d   1      47.723  36.425  54.486  0.00  0.00     0.000 A 
ATOM     15  C   UNL d   1      47.077  36.703  54.056  0.00  0.00     0.002 A 
ENDROOT
BRANCH   6  16
ATOM     16  S   UNL d   1      50.446  34.098  52.409  0.00  0.00    -0.044 SA
BRANCH  16  17
ATOM     17  C   UNL d   1      50.989  34.353  52.976  0.00  0.00     0.099 C 
BRANCH  17  18
ATOM     18  C   UNL d   1      51.596  33.855  53.220  0.00  0.00     0.271 C 
ATOM     19  N   UNL d   1      52.224  34.165  53.644  0.00  0.00    -0.272 N 
ATOM     20  C   UNL d   1      52.838  33.676  53.894  0.00  0.00     0.083 A 
ATOM     21  C   UNL d   1      52.244  34.970  53.824  0.00  0.00     0.083 A 
ATOM     22  C   UNL d   1      53.462  33.986  54.316  0.00  0.00     0.019 A 
ATOM     23  C   UNL d   1      53.492  34.783  54.500  0.00  0.00     0.003 A 
ATOM     24  C   UNL d   1      52.881  35.281  54.254  0.00  0.00     0.019 A 
ATOM     25  O   UNL d   1      51.582  33.055  53.045  0.00  0.00    -0.266 OA
ENDBRANCH  17  18
ENDBRANCH  16  17
ENDBRANCH   6  16
TORSDOF 3
ENDMDL
MODEL 5
REMARK VINA RESULT:      -7.0      1.967      4.684
REMARK  3 active torsions:
REMARK  status: ('A' for Active; 'I' for Inactive)
REMARK    1  A    between atoms: S_12  and  C_6 
REMARK    2  A    between atoms: C_10  and  C_14 
REMARK       I    between atoms: N_11  and  C_10 
REMARK    3  A    between atoms: C_14  and  S_12 
ROOT
ATOM      1  C   UNL d   1      52.951  33.954  53.845  0.00  0.00     0.155 A 
ATOM      2  C   UNL d   1      53.464  33.334  54.042  0.00  0.00     0.107 A 
ATOM      3  N   UNL d   1      52.174  33.055  53.051  0.00  0.00    -0.250 N 
ATOM      4  C   UNL d   1      52.310  33.816  53.353  0.00  0.00     0.285 A 
ATOM      5  N   UNL d   1      53.329  32.573  53.741  0.00  0.00    -0.220 NA
ATOM      6  C   UNL d   1      52.683  32.444  53.247  0.00  0.00     0.182 A 
ATOM      7  N   UNL d   1      53.218  34.638  54.220  0.00  0.00    -0.239 NA
ATOM      8  C   UNL d   1      54.049  33.629  54.538  0.00  0.00     0.037 A 
ATOM      9  C   UNL d   1      53.899  34.442  54.651  0.00  0.00     0.083 A 
ATOM     10  O   UNL d   1      51.791  34.432  53.150  0.00  0.00    -0.265 OA
ATOM     11  C   UNL d   1      51.527  32.913  52.553  0.00  0.00     0.104 C 
ATOM     12  C   UNL d   1      54.697  33.278  54.904  0.00  0.00     0.003 A 
ATOM     13  C   UNL d   1      54.401  34.895  55.129  0.00  0.00     0.019 A 
ATOM     14  C   UNL d   1      55.198  33.731  55.382  0.00  0.00     0.000 A 
ATOM     15  C   UNL d   1      55.049  34.534  55.492  0.00  0.00     0.002 A 
ENDROOT
BRANCH   6  16
ATOM     16  S   UNL d   1      52.546  31.687  52.946  0.00  0.00    -0.044 SA
BRANCH  16  17
ATOM     17  C   UNL d   1      52.554  31.031  53.447  0.00  0.00     0.099 C 
BRANCH  17  18
ATOM     18  C   UNL d   1      52.834  30.307  53.174  0.00  0.00     0.271 C 
ATOM     19  N   UNL d   1      53.034  29.725  53.715  0.00  0.00    -0.272 N 
ATOM     20  C   UNL d   1      53.315  28.997  53.454  0.00  0.00     0.083 A 
ATOM     21  C   UNL d   1      52.955  29.867  54.524  0.00  0.00     0.083 A 
ATOM     22  C   UNL d   1      53.514  28.419  53.994  0.00  0.00     0.019 A 
ATOM     23  C   UNL d   1      53.439  28.549  54.798  0.00  0.00     0.003 A 
ATOM     24  C   UNL d   1      53.158  29.277  55.068  0.00  0.00     0.019 A 
ATOM     25  O   UNL d   1      52.915  30.160  52.373  0.00  0.00    -0.266 OA
ENDBRANCH  17  18
ENDBRANCH  16  17
ENDBRANCH   6  16
TORSDOF 3
ENDMDL
MODEL 6
REMARK VINA RESULT:      -6.9      1.222      4.461
REMARK  3 active torsions:
REMARK  status: ('A' for Active; 'I' for Inactive)
REMARK    1  A    between atoms: S_12  and  C_6 
REMARK    2  A    between atoms: C_10  and  C_14 
REMARK       I    between atoms: N_11  and  C_10 
REMARK    3  A    between atoms: C_14  and  S_12 
ROOT
ATOM      1  C   UNL d   1      51.704  34.638  53.522  0.00  0.00     0.155 A 
ATOM      2  C   UNL d   1      51.555  33.994  53.021  0.00  0.00     0.107 A 
ATOM      3  N   UNL d   1      52.963  34.063  53.879  0.00  0.00    -0.250 N 
ATOM      4  C   UNL d   1      52.403  34.672  53.948  0.00  0.00     0.285 A 
ATOM      5  N   UNL d   1      52.113  33.385  52.952  0.00  0.00    -0.220 NA
ATOM      6  C   UNL d   1      52.812  33.429  53.384  0.00  0.00     0.182 A 
ATOM      7  N   UNL d   1      51.060  35.150  53.479  0.00  0.00    -0.239 NA
ATOM      8  C   UNL d   1      50.821  34.105  52.668  0.00  0.00     0.037 A 
ATOM      9  C   UNL d   1      50.509  34.825  52.951  0.00  0.00     0.083 A 
ATOM     10  O   UNL d   1      52.560  35.313  54.452  0.00  0.00    -0.265 OA
ATOM     11  C   UNL d   1      53.670  34.097  54.310  0.00  0.00     0.104 C 
ATOM     12  C   UNL d   1      50.390  33.656  52.130  0.00  0.00     0.003 A 
ATOM     13  C   UNL d   1      49.768  35.088  52.692  0.00  0.00     0.019 A 
ATOM     14  C   UNL d   1      49.649  33.919  51.871  0.00  0.00     0.000 A 
ATOM     15  C   UNL d   1      49.343  34.631  52.152  0.00  0.00     0.002 A 
ENDROOT
BRANCH   6  16
ATOM     16  S   UNL d   1      53.371  32.823  53.317  0.00  0.00    -0.044 SA
BRANCH  16  17
ATOM     17  C   UNL d   1      53.128  32.036  53.270  0.00  0.00     0.099 C 
BRANCH  17  18
ATOM     18  C   UNL d   1      53.652  31.431  53.460  0.00  0.00     0.271 C 
ATOM     19  N   UNL d   1      53.381  30.659  53.485  0.00  0.00    -0.272 N 
ATOM     20  C   UNL d   1      53.896  30.045  53.675  0.00  0.00     0.083 A 
ATOM     21  C   UNL d   1      52.589  30.492  53.321  0.00  0.00     0.083 A 
ATOM     22  C   UNL d   1      53.624  29.276  53.699  0.00  0.00     0.019 A 
ATOM     23  C   UNL d   1      52.842  29.100  53.538  0.00  0.00     0.003 A 
ATOM     24  C   UNL d   1      52.318  29.710  53.347  0.00  0.00     0.019 A 
ATOM     25  O   UNL d   1      54.439  31.589  53.624  0.00  0.00    -0.266 OA
ENDBRANCH  17  18
ENDBRANCH  16  17
ENDBRANCH   6  16
TORSDOF 3
ENDMDL
