MODEL 1
REMARK VINA RESULT:      54.3      0.000      0.000
REMARK  6 active torsions:
REMARK  status: ('A' for Active; 'I' for Inactive)
REMARK    1  A    between atoms: C_6  and  C_1 
REMARK    2  A    between atoms: C_8  and  N_2 
REMARK    3  A    between atoms: C_12  and  C_5 
REMARK    4  A    between atoms: C_7  and  C_6 
REMARK    5  A    between atoms: C_18  and  C_8 
REMARK    6  A    between atoms: N_10  and  C_18 
ROOT
ATOM      1  C   UNL d   1      45.192 -14.032  44.477  0.00  0.00     0.099 A 
ATOM      2  N   UNL d   1      45.100 -15.363  44.600  0.00  0.00    -0.269 N 
ATOM      3  C   UNL d   1      45.956 -14.309  44.611  0.00  0.00     0.256 A 
ATOM      4  C   UNL d   1      45.898 -15.123  44.686  0.00  0.00     0.304 A 
ATOM      5  C   UNL d   1      44.678 -14.665  44.471  0.00  0.00     0.073 A 
ATOM      6  O   UNL d   1      46.524 -15.634  44.825  0.00  0.00    -0.263 OA
ATOM      7  O   UNL d   1      46.643 -13.850  44.660  0.00  0.00    -0.281 OA
ENDROOT
BRANCH   2   8
ATOM      8  C   UNL d   1      44.787 -16.134  44.635  0.00  0.00     0.102 C 
BRANCH   8   9
ATOM      9  C   UNL d   1      44.865 -16.630  43.989  0.00  0.00     0.100 C 
BRANCH   9  10
ATOM     10  N   UNL d   1      45.350 -17.292  44.025  0.00  0.00    -0.298 N 
ATOM     11  C   UNL d   1      44.992 -18.041  44.193  0.00  0.00     0.107 A 
ATOM     12  C   UNL d   1      45.476 -18.725  44.233  0.00  0.00     0.142 A 
ATOM     13  O   UNL d   1      46.297 -18.649  44.106  0.00  0.00    -0.300 OA
ATOM     14  C   UNL d   1      46.642 -17.922  43.943  0.00  0.00     0.142 A 
ATOM     15  C   UNL d   1      46.153 -17.234  43.903  0.00  0.00     0.107 A 
ENDBRANCH   9  10
ENDBRANCH   8   9
ENDBRANCH   2   8
BRANCH   5  16
ATOM     16  C   UNL d   1      43.859 -14.637  44.355  0.00  0.00     0.016 A 
ATOM     17  C   UNL d   1      43.348 -14.881  44.954  0.00  0.00     0.001 A 
ATOM     18  C   UNL d   1      42.538 -14.854  44.841  0.00  0.00     0.000 A 
ATOM     19  C   UNL d   1      42.228 -14.579  44.121  0.00  0.00     0.000 A 
ATOM     20  C   UNL d   1      42.745 -14.337  43.529  0.00  0.00     0.000 A 
ATOM     21  C   UNL d   1      43.566 -14.367  43.649  0.00  0.00     0.001 A 
ENDBRANCH   5  16
BRANCH   1  22
ATOM     22  C   UNL d   1      44.995 -13.238  44.369  0.00  0.00     0.206 C 
ATOM     23  O   UNL d   1      44.494 -12.875  44.893  0.00  0.00    -0.286 OA
BRANCH  22  24
ATOM     24  C   UNL d   1      45.313 -12.804  43.718  0.00  0.00     0.069 A 
ATOM     25  S   UNL d   1      44.937 -12.664  42.994  0.00  0.00    -0.083 SA
ATOM     26  C   UNL d   1      45.448 -12.220  42.525  0.00  0.00     0.035 A 
ATOM     27  C   UNL d   1      46.138 -12.080  42.945  0.00  0.00     0.008 A 
ATOM     28  C   UNL d   1      46.054 -12.444  43.687  0.00  0.00     0.010 A 
ENDBRANCH  22  24
ENDBRANCH   1  22
TORSDOF 6
ENDMDL
MODEL 2
REMARK VINA RESULT:      56.4      6.093      6.978
REMARK  6 active torsions:
REMARK  status: ('A' for Active; 'I' for Inactive)
REMARK    1  A    between atoms: C_6  and  C_1 
REMARK    2  A    between atoms: C_8  and  N_2 
REMARK    3  A    between atoms: C_12  and  C_5 
REMARK    4  A    between atoms: C_7  and  C_6 
REMARK    5  A    between atoms: C_18  and  C_8 
REMARK    6  A    between atoms: N_10  and  C_18 
ROOT
ATOM      1  C   UNL d   1      43.853 -15.733  37.356  0.00  0.00     0.099 A 
ATOM      2  N   UNL d   1      44.633 -16.445  38.181  0.00  0.00    -0.269 N 
ATOM      3  C   UNL d   1      43.354 -16.236  37.775  0.00  0.00     0.256 A 
ATOM      4  C   UNL d   1      43.832 -16.671  38.279  0.00  0.00     0.304 A 
ATOM      5  C   UNL d   1      44.622 -15.858  37.600  0.00  0.00     0.073 A 
ATOM      6  O   UNL d   1      43.572 -17.244  38.804  0.00  0.00    -0.263 OA
ATOM      7  O   UNL d   1      42.531 -16.287  37.697  0.00  0.00    -0.281 OA
ENDROOT
BRANCH   2   8
ATOM      8  C   UNL d   1      45.303 -16.740  38.576  0.00  0.00     0.102 C 
BRANCH   8   9
ATOM      9  C   UNL d   1      45.318 -17.523  38.814  0.00  0.00     0.100 C 
BRANCH   9  10
ATOM     10  N   UNL d   1      45.649 -17.736  39.535  0.00  0.00    -0.298 N 
ATOM     11  C   UNL d   1      46.300 -17.280  39.827  0.00  0.00     0.107 A 
ATOM     12  C   UNL d   1      46.646 -17.488  40.562  0.00  0.00     0.142 A 
ATOM     13  O   UNL d   1      46.340 -18.137  40.986  0.00  0.00    -0.300 OA
ATOM     14  C   UNL d   1      45.708 -18.578  40.701  0.00  0.00     0.142 A 
ATOM     15  C   UNL d   1      45.360 -18.368  39.960  0.00  0.00     0.107 A 
ENDBRANCH   9  10
ENDBRANCH   8   9
ENDBRANCH   2   8
BRANCH   5  16
ATOM     16  C   UNL d   1      45.298 -15.471  37.323  0.00  0.00     0.016 A 
ATOM     17  C   UNL d   1      45.700 -15.761  36.664  0.00  0.00     0.001 A 
ATOM     18  C   UNL d   1      46.369 -15.380  36.388  0.00  0.00     0.000 A 
ATOM     19  C   UNL d   1      46.646 -14.698  36.773  0.00  0.00     0.000 A 
ATOM     20  C   UNL d   1      46.240 -14.415  37.430  0.00  0.00     0.000 A 
ATOM     21  C   UNL d   1      45.561 -14.806  37.704  0.00  0.00     0.001 A 
ENDBRANCH   5  16
BRANCH   1  22
ATOM     22  C   UNL d   1      43.601 -15.194  36.784  0.00  0.00     0.206 C 
ATOM     23  O   UNL d   1      44.149 -14.805  36.331  0.00  0.00    -0.286 OA
BRANCH  22  24
ATOM     24  C   UNL d   1      42.777 -15.046  36.671  0.00  0.00     0.069 A 
ATOM     25  S   UNL d   1      42.222 -15.580  36.365  0.00  0.00    -0.083 SA
ATOM     26  C   UNL d   1      41.489 -15.203  36.353  0.00  0.00     0.035 A 
ATOM     27  C   UNL d   1      41.578 -14.442  36.646  0.00  0.00     0.008 A 
ATOM     28  C   UNL d   1      42.379 -14.345  36.844  0.00  0.00     0.010 A 
ENDBRANCH  22  24
ENDBRANCH   1  22
TORSDOF 6
ENDMDL
