MODEL 1
REMARK VINA RESULT:      33.4      0.000      0.000
REMARK  3 active torsions:
REMARK  status: ('A' for Active; 'I' for Inactive)
REMARK    1  A    between atoms: C_5  and  C_2 
REMARK    2  A    between atoms: C_10  and  C_4 
REMARK    3  A    between atoms: O_19  and  C_16 
ROOT
ATOM      1  N   UNL d   1      46.366 -19.801  42.004  0.00  0.00    -0.245 NA
ATOM      2  C   UNL d   1      46.241 -19.598  42.783  0.00  0.00     0.088 A 
ATOM      3  S   UNL d   1      46.282 -17.943  41.979  0.00  0.00    -0.085 SA
ATOM      4  C   UNL d   1      46.173 -18.091  42.762  0.00  0.00     0.031 A 
ATOM      5  C   UNL d   1      46.154 -18.845  43.131  0.00  0.00     0.026 A 
ATOM      6  C   UNL d   1      46.435 -19.285  41.373  0.00  0.00     0.087 A 
ATOM      7  C   UNL d   1      46.398 -18.463  41.362  0.00  0.00     0.047 A 
ATOM      8  C   UNL d   1      46.559 -19.685  40.667  0.00  0.00     0.020 A 
ATOM      9  C   UNL d   1      46.484 -18.035  40.645  0.00  0.00     0.008 A 
ATOM     10  C   UNL d   1      46.645 -19.295  39.962  0.00  0.00     0.002 A 
ATOM     11  C   UNL d   1      46.608 -18.473  39.950  0.00  0.00     0.001 A 
ENDROOT
BRANCH   4  12
ATOM     12  C   UNL d   1      46.065 -17.495  43.303  0.00  0.00     0.006 A 
ATOM     13  C   UNL d   1      45.460 -16.933  43.179  0.00  0.00     0.003 A 
ATOM     14  C   UNL d   1      45.352 -16.338  43.719  0.00  0.00     0.024 A 
ATOM     15  C   UNL d   1      45.839 -16.291  44.385  0.00  0.00     0.094 A 
ATOM     16  C   UNL d   1      46.431 -16.837  44.510  0.00  0.00     0.024 A 
ATOM     17  C   UNL d   1      46.553 -17.450  43.968  0.00  0.00     0.003 A 
BRANCH  15  18
ATOM     18  O   UNL d   1      45.742 -15.682  44.954  0.00  0.00    -0.328 OA
ATOM     19  C   UNL d   1      45.507 -14.917  44.723  0.00  0.00     0.181 C 
ENDBRANCH  15  18
ENDBRANCH   4  12
BRANCH   2  20
ATOM     20  C   UNL d   1      46.132 -19.828  43.595  0.00  0.00     0.047 A 
ATOM     21  S   UNL d   1      45.408 -20.104  43.854  0.00  0.00    -0.085 SA
ATOM     22  C   UNL d   1      45.492 -20.274  44.655  0.00  0.00     0.035 A 
ATOM     23  C   UNL d   1      46.246 -20.112  44.901  0.00  0.00     0.007 A 
ATOM     24  C   UNL d   1      46.643 -19.836  44.249  0.00  0.00     0.009 A 
ENDBRANCH   2  20
TORSDOF 3
ENDMDL
