MODEL 1
REMARK VINA RESULT:      -9.4      0.000      0.000
REMARK  2 active torsions:
REMARK  status: ('A' for Active; 'I' for Inactive)
REMARK    1  A    between atoms: S_5  and  C_3 
REMARK    2  A    between atoms: C_12  and  S_5 
ROOT
ATOM      1  C   UNL d   1      52.786  33.192  53.695  0.00  0.00     0.155 A 
ATOM      2  C   UNL d   1      52.604  33.979  53.805  0.00  0.00     0.092 A 
ATOM      3  C   UNL d   1      51.422  33.815  53.045  0.00  0.00     0.124 A 
ATOM      4  N   UNL d   1      53.474  32.878  54.023  0.00  0.00    -0.210 NA
ATOM      5  N   UNL d   1      52.293  32.715  53.264  0.00  0.00    -0.272 N 
ATOM      6  C   UNL d   1      51.607  33.018  52.934  0.00  0.00     0.181 A 
ATOM      7  C   UNL d   1      53.104  34.462  54.242  0.00  0.00     0.269 A 
ATOM      8  N   UNL d   1      53.788  34.148  54.567  0.00  0.00    -0.258 N 
ATOM      9  C   UNL d   1      51.923  34.294  53.482  0.00  0.00     0.022 A 
ATOM     10  C   UNL d   1      53.969  33.351  54.454  0.00  0.00     0.152 A 
ATOM     11  N   UNL d   1      51.105  32.526  52.494  0.00  0.00    -0.128 N 
ATOM     12  C   UNL d   1      54.298  34.623  55.008  0.00  0.00     0.084 A 
ATOM     13  O   UNL d   1      52.922  35.268  54.357  0.00  0.00    -0.266 OA
ATOM     14  C   UNL d   1      54.657  33.038  54.782  0.00  0.00     0.038 A 
ATOM     15  C   UNL d   1      54.972  34.308  55.327  0.00  0.00     0.019 A 
ATOM     16  C   UNL d   1      55.152  33.511  55.213  0.00  0.00     0.005 A 
ATOM     17  C   UNL d   1      52.480  31.905  53.150  0.00  0.00     0.102 C 
ENDROOT
BRANCH   3  18
ATOM     18  S   UNL d   1      50.730  34.127  52.715  0.00  0.00     0.213 S 
ATOM     19  O   UNL d   1      51.147  34.357  52.030  0.00  0.00    -0.217 OA
ATOM     20  O   UNL d   1      50.306  33.903  53.390  0.00  0.00    -0.217 OA
BRANCH  18  21
ATOM     21  C   UNL d   1      50.026  34.439  52.391  0.00  0.00     0.088 A 
ATOM     22  C   UNL d   1      49.842  34.310  51.595  0.00  0.00     0.014 A 
ATOM     23  C   UNL d   1      49.137  34.622  51.271  0.00  0.00     0.030 A 
ATOM     24  C   UNL d   1      48.621  35.062  51.747  0.00  0.00     0.140 A 
ATOM     25  C   UNL d   1      48.814  35.190  52.555  0.00  0.00     0.030 A 
ATOM     26  F   UNL d   1      47.920  35.375  51.434  0.00  0.00    -0.204 F 
ATOM     27  C   UNL d   1      49.515  34.879  52.876  0.00  0.00     0.014 A 
ENDBRANCH  18  21
ENDBRANCH   3  18
TORSDOF 2
ENDMDL
MODEL 2
REMARK VINA RESULT:      -8.9      1.240      2.319
REMARK  2 active torsions:
REMARK  status: ('A' for Active; 'I' for Inactive)
REMARK    1  A    between atoms: S_5  and  C_3 
REMARK    2  A    between atoms: C_12  and  S_5 
ROOT
ATOM      1  C   UNL d   1      52.766  32.834  53.311  0.00  0.00     0.155 A 
ATOM      2  C   UNL d   1      52.089  32.429  53.101  0.00  0.00     0.092 A 
ATOM      3  C   UNL d   1      51.402  33.654  52.938  0.00  0.00     0.124 A 
ATOM      4  N   UNL d   1      53.453  32.420  53.499  0.00  0.00    -0.210 NA
ATOM      5  N   UNL d   1      52.765  33.645  53.335  0.00  0.00    -0.272 N 
ATOM      6  C   UNL d   1      52.086  34.064  53.150  0.00  0.00     0.181 A 
ATOM      7  C   UNL d   1      52.091  31.608  53.076  0.00  0.00     0.269 A 
ATOM      8  N   UNL d   1      52.776  31.198  53.264  0.00  0.00    -0.258 N 
ATOM      9  C   UNL d   1      51.406  32.835  52.914  0.00  0.00     0.022 A 
ATOM     10  C   UNL d   1      53.458  31.612  53.475  0.00  0.00     0.152 A 
ATOM     11  N   UNL d   1      52.089  34.893  53.177  0.00  0.00    -0.128 N 
ATOM     12  C   UNL d   1      52.790  30.374  53.242  0.00  0.00     0.084 A 
ATOM     13  O   UNL d   1      51.403  31.189  52.863  0.00  0.00    -0.266 OA
ATOM     14  C   UNL d   1      54.145  31.198  53.663  0.00  0.00     0.038 A 
ATOM     15  C   UNL d   1      53.469  29.975  53.428  0.00  0.00     0.019 A 
ATOM     16  C   UNL d   1      54.150  30.389  53.639  0.00  0.00     0.005 A 
ATOM     17  C   UNL d   1      53.460  34.062  53.551  0.00  0.00     0.102 C 
ENDROOT
BRANCH   3  18
ATOM     18  S   UNL d   1      50.712  34.072  52.750  0.00  0.00     0.213 S 
ATOM     19  O   UNL d   1      50.980  34.186  51.968  0.00  0.00    -0.217 OA
ATOM     20  O   UNL d   1      50.435  33.965  53.523  0.00  0.00    -0.217 OA
BRANCH  18  21
ATOM     21  C   UNL d   1      50.012  34.492  52.571  0.00  0.00     0.088 A 
ATOM     22  C   UNL d   1      49.631  34.933  53.159  0.00  0.00     0.014 A 
ATOM     23  C   UNL d   1      48.931  35.353  52.980  0.00  0.00     0.030 A 
ATOM     24  C   UNL d   1      48.617  35.330  52.214  0.00  0.00     0.140 A 
ATOM     25  C   UNL d   1      49.010  34.880  51.622  0.00  0.00     0.030 A 
ATOM     26  F   UNL d   1      47.923  35.744  52.029  0.00  0.00    -0.204 F 
ATOM     27  C   UNL d   1      49.705  34.463  51.801  0.00  0.00     0.014 A 
ENDBRANCH  18  21
ENDBRANCH   3  18
TORSDOF 2
ENDMDL
MODEL 3
REMARK VINA RESULT:      -8.2      2.275      5.211
REMARK  2 active torsions:
REMARK  status: ('A' for Active; 'I' for Inactive)
REMARK    1  A    between atoms: S_5  and  C_3 
REMARK    2  A    between atoms: C_12  and  S_5 
ROOT
ATOM      1  C   UNL d   1      48.643  35.092  51.952  0.00  0.00     0.155 A 
ATOM      2  C   UNL d   1      48.877  35.269  52.713  0.00  0.00     0.092 A 
ATOM      3  C   UNL d   1      50.079  34.550  52.513  0.00  0.00     0.124 A 
ATOM      4  N   UNL d   1      47.919  35.366  51.669  0.00  0.00    -0.210 NA
ATOM      5  N   UNL d   1      49.120  34.648  51.471  0.00  0.00    -0.272 N 
ATOM      6  C   UNL d   1      49.841  34.372  51.744  0.00  0.00     0.181 A 
ATOM      7  C   UNL d   1      48.393  35.720  53.200  0.00  0.00     0.269 A 
ATOM      8  N   UNL d   1      47.673  35.991  52.917  0.00  0.00    -0.258 N 
ATOM      9  C   UNL d   1      49.594  35.000  52.996  0.00  0.00     0.022 A 
ATOM     10  C   UNL d   1      47.440  35.810  52.147  0.00  0.00     0.152 A 
ATOM     11  N   UNL d   1      50.327  33.917  51.247  0.00  0.00    -0.128 N 
ATOM     12  C   UNL d   1      47.179  36.444  53.397  0.00  0.00     0.084 A 
ATOM     13  O   UNL d   1      48.629  35.903  53.979  0.00  0.00    -0.266 OA
ATOM     14  C   UNL d   1      46.716  36.084  51.864  0.00  0.00     0.038 A 
ATOM     15  C   UNL d   1      46.470  36.709  53.112  0.00  0.00     0.019 A 
ATOM     16  C   UNL d   1      46.237  36.528  52.342  0.00  0.00     0.005 A 
ATOM     17  C   UNL d   1      48.880  34.466  50.688  0.00  0.00     0.102 C 
ENDROOT
BRANCH   3  18
ATOM     18  S   UNL d   1      50.807  34.274  52.795  0.00  0.00     0.213 S 
ATOM     19  O   UNL d   1      50.431  33.633  53.173  0.00  0.00    -0.217 OA
ATOM     20  O   UNL d   1      51.191  34.907  52.423  0.00  0.00    -0.217 OA
BRANCH  18  21
ATOM     21  C   UNL d   1      51.547  34.004  53.073  0.00  0.00     0.088 A 
ATOM     22  C   UNL d   1      51.665  33.200  53.228  0.00  0.00     0.014 A 
ATOM     23  C   UNL d   1      52.405  32.930  53.506  0.00  0.00     0.030 A 
ATOM     24  C   UNL d   1      53.024  33.468  53.629  0.00  0.00     0.140 A 
ATOM     25  C   UNL d   1      52.897  34.284  53.469  0.00  0.00     0.030 A 
ATOM     26  F   UNL d   1      53.761  33.209  53.905  0.00  0.00    -0.204 F 
ATOM     27  C   UNL d   1      52.161  34.550  53.192  0.00  0.00     0.014 A 
ENDBRANCH  18  21
ENDBRANCH   3  18
TORSDOF 2
ENDMDL
MODEL 4
REMARK VINA RESULT:      -7.1     10.014     10.845
REMARK  2 active torsions:
REMARK  status: ('A' for Active; 'I' for Inactive)
REMARK    1  A    between atoms: S_5  and  C_3 
REMARK    2  A    between atoms: C_12  and  S_5 
ROOT
ATOM      1  C   UNL d   1      44.824  30.176  59.629  0.00  0.00     0.155 A 
ATOM      2  C   UNL d   1      44.741  29.413  59.906  0.00  0.00     0.092 A 
ATOM      3  C   UNL d   1      44.933  28.913  58.598  0.00  0.00     0.124 A 
ATOM      4  N   UNL d   1      44.768  30.812  60.149  0.00  0.00    -0.210 NA
ATOM      5  N   UNL d   1      44.960  30.311  58.841  0.00  0.00    -0.272 N 
ATOM      6  C   UNL d   1      45.017  29.684  58.317  0.00  0.00     0.181 A 
ATOM      7  C   UNL d   1      44.603  29.277  60.705  0.00  0.00     0.269 A 
ATOM      8  N   UNL d   1      44.548  29.912  61.221  0.00  0.00    -0.258 N 
ATOM      9  C   UNL d   1      44.796  28.780  59.394  0.00  0.00     0.022 A 
ATOM     10  C   UNL d   1      44.632  30.681  60.935  0.00  0.00     0.152 A 
ATOM     11  N   UNL d   1      45.156  29.827  57.512  0.00  0.00    -0.128 N 
ATOM     12  C   UNL d   1      44.410  29.787  62.023  0.00  0.00     0.084 A 
ATOM     13  O   UNL d   1      44.518  28.499  60.993  0.00  0.00    -0.266 OA
ATOM     14  C   UNL d   1      44.577  31.318  61.456  0.00  0.00     0.038 A 
ATOM     15  C   UNL d   1      44.357  30.417  62.528  0.00  0.00     0.019 A 
ATOM     16  C   UNL d   1      44.440  31.187  62.243  0.00  0.00     0.005 A 
ATOM     17  C   UNL d   1      45.045  31.095  58.555  0.00  0.00     0.102 C 
ENDROOT
BRANCH   3  18
ATOM     18  S   UNL d   1      44.990  28.274  58.073  0.00  0.00     0.213 S 
ATOM     19  O   UNL d   1      44.314  28.538  57.661  0.00  0.00    -0.217 OA
ATOM     20  O   UNL d   1      45.661  28.003  58.474  0.00  0.00    -0.217 OA
BRANCH  18  21
ATOM     21  C   UNL d   1      45.056  27.627  57.549  0.00  0.00     0.088 A 
ATOM     22  C   UNL d   1      44.417  27.414  57.068  0.00  0.00     0.014 A 
ATOM     23  C   UNL d   1      44.484  26.767  56.544  0.00  0.00     0.030 A 
ATOM     24  C   UNL d   1      45.191  26.335  56.505  0.00  0.00     0.140 A 
ATOM     25  C   UNL d   1      45.836  26.557  56.996  0.00  0.00     0.030 A 
ATOM     26  F   UNL d   1      45.265  25.692  55.988  0.00  0.00    -0.204 F 
ATOM     27  C   UNL d   1      45.768  27.201  57.516  0.00  0.00     0.014 A 
ENDBRANCH  18  21
ENDBRANCH   3  18
TORSDOF 2
ENDMDL
MODEL 5
REMARK VINA RESULT:      -6.7      3.061      4.509
REMARK  2 active torsions:
REMARK  status: ('A' for Active; 'I' for Inactive)
REMARK    1  A    between atoms: S_5  and  C_3 
REMARK    2  A    between atoms: C_12  and  S_5 
ROOT
ATOM      1  C   UNL d   1      52.816  33.219  53.522  0.00  0.00     0.155 A 
ATOM      2  C   UNL d   1      53.234  32.999  54.187  0.00  0.00     0.092 A 
ATOM      3  C   UNL d   1      53.100  31.638  53.825  0.00  0.00     0.124 A 
ATOM      4  N   UNL d   1      52.674  34.016  53.370  0.00  0.00    -0.210 NA
ATOM      5  N   UNL d   1      52.540  32.656  53.008  0.00  0.00    -0.272 N 
ATOM      6  C   UNL d   1      52.678  31.861  53.152  0.00  0.00     0.181 A 
ATOM      7  C   UNL d   1      53.513  33.570  54.707  0.00  0.00     0.269 A 
ATOM      8  N   UNL d   1      53.370  34.363  54.554  0.00  0.00    -0.258 N 
ATOM      9  C   UNL d   1      53.377  32.210  54.341  0.00  0.00     0.022 A 
ATOM     10  C   UNL d   1      52.947  34.581  53.880  0.00  0.00     0.152 A 
ATOM     11  N   UNL d   1      52.394  31.288  52.624  0.00  0.00    -0.128 N 
ATOM     12  C   UNL d   1      53.646  34.944  55.068  0.00  0.00     0.084 A 
ATOM     13  O   UNL d   1      53.941  33.350  55.388  0.00  0.00    -0.266 OA
ATOM     14  C   UNL d   1      52.805  35.378  53.728  0.00  0.00     0.038 A 
ATOM     15  C   UNL d   1      53.501  35.725  54.912  0.00  0.00     0.019 A 
ATOM     16  C   UNL d   1      53.079  35.943  54.238  0.00  0.00     0.005 A 
ATOM     17  C   UNL d   1      52.111  32.881  52.324  0.00  0.00     0.102 C 
ENDROOT
BRANCH   3  18
ATOM     18  S   UNL d   1      53.242  30.836  53.975  0.00  0.00     0.213 S 
ATOM     19  O   UNL d   1      54.018  30.905  53.675  0.00  0.00    -0.217 OA
ATOM     20  O   UNL d   1      52.475  30.757  54.276  0.00  0.00    -0.217 OA
BRANCH  18  21
ATOM     21  C   UNL d   1      53.375  30.026  54.132  0.00  0.00     0.088 A 
ATOM     22  C   UNL d   1      53.746  29.549  53.567  0.00  0.00     0.014 A 
ATOM     23  C   UNL d   1      53.878  28.739  53.723  0.00  0.00     0.030 A 
ATOM     24  C   UNL d   1      53.637  28.411  54.445  0.00  0.00     0.140 A 
ATOM     25  C   UNL d   1      53.261  28.902  55.015  0.00  0.00     0.030 A 
ATOM     26  F   UNL d   1      53.765  27.609  54.608  0.00  0.00    -0.204 F 
ATOM     27  C   UNL d   1      53.130  29.707  54.858  0.00  0.00     0.014 A 
ENDBRANCH  18  21
ENDBRANCH   3  18
TORSDOF 2
ENDMDL
