MODEL 1
REMARK VINA RESULT:      -6.8      0.000      0.000
REMARK  4 active torsions:
REMARK  status: ('A' for Active; 'I' for Inactive)
REMARK    1  A    between atoms: C_6  and  C_1 
REMARK    2  A    between atoms: C_7  and  C_4 
REMARK       I    between atoms: N_9  and  C_6 
REMARK    3  A    between atoms: C_23  and  N_9 
REMARK    4  A    between atoms: C_11  and  C_23 
ROOT
ATOM      1  C   UNL d   1     -44.972  13.172  22.201  0.00  0.00     0.168 A 
ATOM      2  N   UNL d   1     -45.342  13.871  22.397  0.00  0.00    -0.121 NA
ATOM      3  C   UNL d   1     -45.498  12.551  22.367  0.00  0.00     0.053 A 
ATOM      4  C   UNL d   1     -46.186  12.881  22.662  0.00  0.00     0.127 A 
ATOM      5  O   UNL d   1     -46.085  13.698  22.679  0.00  0.00    -0.211 OA
ENDROOT
BRANCH   1   6
ATOM      6  C   UNL d   1     -43.487  12.953  21.597  0.00  0.00     0.299 C 
ATOM      7  N   UNL d   1     -42.999  13.643  21.448  0.00  0.00    -0.203 NA
ATOM      8  O   UNL d   1     -43.179  12.213  21.427  0.00  0.00    -0.263 OA
BRANCH   7   9
ATOM      9  C   UNL d   1     -42.205  13.547  21.127  0.00  0.00     0.127 C 
BRANCH   9  10
ATOM     10  C   UNL d   1     -41.703  14.234  20.993  0.00  0.00     0.119 A 
ATOM     11  O   UNL d   1     -41.924  15.054  21.096  0.00  0.00    -0.304 OA
ATOM     12  C   UNL d   1     -41.251  15.535  20.900  0.00  0.00     0.123 A 
ATOM     13  C   UNL d   1     -40.596  15.007  20.671  0.00  0.00     0.029 A 
ATOM     14  C   UNL d   1     -40.885  14.195  20.731  0.00  0.00     0.028 A 
ENDBRANCH   9  10
ENDBRANCH   7   9
ENDBRANCH   1   6
BRANCH   4  15
ATOM     15  C   UNL d   1     -46.857  12.507  22.902  0.00  0.00     0.027 A 
ATOM     16  C   UNL d   1     -47.586  12.732  22.600  0.00  0.00     0.028 A 
ATOM     17  C   UNL d   1     -48.255  12.353  22.846  0.00  0.00     0.119 A 
ATOM     18  O   UNL d   1     -49.039  12.455  22.645  0.00  0.00    -0.300 OA
ATOM     19  C   UNL d   1     -48.227  11.748  23.389  0.00  0.00     0.119 A 
ATOM     20  C   UNL d   1     -49.484  11.920  23.060  0.00  0.00     0.304 A 
ATOM     21  O   UNL d   1     -48.983  11.479  23.523  0.00  0.00    -0.300 OA
ATOM     22  C   UNL d   1     -47.498  11.515  23.698  0.00  0.00     0.026 A 
ATOM     23  C   UNL d   1     -46.830  11.891  23.456  0.00  0.00     0.004 A 
ENDBRANCH   4  15
TORSDOF 4
ENDMDL
MODEL 2
REMARK VINA RESULT:      -6.7      2.802      3.693
REMARK  4 active torsions:
REMARK  status: ('A' for Active; 'I' for Inactive)
REMARK    1  A    between atoms: C_6  and  C_1 
REMARK    2  A    between atoms: C_7  and  C_4 
REMARK       I    between atoms: N_9  and  C_6 
REMARK    3  A    between atoms: C_23  and  N_9 
REMARK    4  A    between atoms: C_11  and  C_23 
ROOT
ATOM      1  C   UNL d   1     -46.451  13.962  22.578  0.00  0.00     0.168 A 
ATOM      2  N   UNL d   1     -46.492  14.702  22.915  0.00  0.00    -0.121 NA
ATOM      3  C   UNL d   1     -47.224  13.731  22.380  0.00  0.00     0.053 A 
ATOM      4  C   UNL d   1     -47.727  14.336  22.600  0.00  0.00     0.127 A 
ATOM      5  O   UNL d   1     -47.270  14.935  22.931  0.00  0.00    -0.211 OA
ENDROOT
BRANCH   1   6
ATOM      6  C   UNL d   1     -45.144  13.047  22.309  0.00  0.00     0.299 C 
ATOM      7  N   UNL d   1     -45.052  12.321  22.756  0.00  0.00    -0.203 NA
ATOM      8  O   UNL d   1     -44.565  13.246  21.765  0.00  0.00    -0.263 OA
BRANCH   7   9
ATOM      9  C   UNL d   1     -44.363  11.819  22.628  0.00  0.00     0.127 C 
BRANCH   9  10
ATOM     10  C   UNL d   1     -44.282  11.073  23.050  0.00  0.00     0.119 A 
ATOM     11  O   UNL d   1     -44.917  10.554  23.293  0.00  0.00    -0.304 OA
ATOM     12  C   UNL d   1     -44.573   9.886  23.691  0.00  0.00     0.123 A 
ATOM     13  C   UNL d   1     -43.707   9.988  23.698  0.00  0.00     0.029 A 
ATOM     14  C   UNL d   1     -43.531  10.732  23.295  0.00  0.00     0.028 A 
ENDBRANCH   9  10
ENDBRANCH   7   9
ENDBRANCH   1   6
BRANCH   4  15
ATOM     15  C   UNL d   1     -48.529  14.374  22.523  0.00  0.00     0.027 A 
ATOM     16  C   UNL d   1     -48.964  14.889  22.989  0.00  0.00     0.028 A 
ATOM     17  C   UNL d   1     -49.767  14.921  22.906  0.00  0.00     0.119 A 
ATOM     18  O   UNL d   1     -50.332  15.371  23.287  0.00  0.00    -0.300 OA
ATOM     19  C   UNL d   1     -50.159  14.453  22.369  0.00  0.00     0.119 A 
ATOM     20  C   UNL d   1     -51.060  15.179  22.985  0.00  0.00     0.304 A 
ATOM     21  O   UNL d   1     -50.956  14.610  22.415  0.00  0.00    -0.300 OA
ATOM     22  C   UNL d   1     -49.728  13.932  21.896  0.00  0.00     0.026 A 
ATOM     23  C   UNL d   1     -48.929  13.897  21.976  0.00  0.00     0.004 A 
ENDBRANCH   4  15
TORSDOF 4
ENDMDL
MODEL 3
REMARK VINA RESULT:      -6.2      1.921      3.195
REMARK  4 active torsions:
REMARK  status: ('A' for Active; 'I' for Inactive)
REMARK    1  A    between atoms: C_6  and  C_1 
REMARK    2  A    between atoms: C_7  and  C_4 
REMARK       I    between atoms: N_9  and  C_6 
REMARK    3  A    between atoms: C_23  and  N_9 
REMARK    4  A    between atoms: C_11  and  C_23 
ROOT
ATOM      1  C   UNL d   1     -47.429  11.583  23.339  0.00  0.00     0.168 A 
ATOM      2  N   UNL d   1     -48.005  11.130  23.696  0.00  0.00    -0.121 NA
ATOM      3  C   UNL d   1     -47.804  12.231  22.979  0.00  0.00     0.053 A 
ATOM      4  C   UNL d   1     -48.606  12.164  23.123  0.00  0.00     0.127 A 
ATOM      5  O   UNL d   1     -48.726  11.481  23.567  0.00  0.00    -0.211 OA
ENDROOT
BRANCH   1   6
ATOM      6  C   UNL d   1     -45.832  11.332  23.295  0.00  0.00     0.299 C 
ATOM      7  N   UNL d   1     -45.344  11.869  22.837  0.00  0.00    -0.203 NA
ATOM      8  O   UNL d   1     -45.466  10.714  23.690  0.00  0.00    -0.263 OA
BRANCH   7   9
ATOM      9  C   UNL d   1     -44.491  11.753  22.801  0.00  0.00     0.127 C 
BRANCH   9  10
ATOM     10  C   UNL d   1     -44.016  12.183  22.225  0.00  0.00     0.119 A 
ATOM     11  O   UNL d   1     -43.185  12.067  22.063  0.00  0.00    -0.304 OA
ATOM     12  C   UNL d   1     -42.956  12.615  21.454  0.00  0.00     0.123 A 
ATOM     13  C   UNL d   1     -43.657  13.084  21.232  0.00  0.00     0.029 A 
ATOM     14  C   UNL d   1     -44.317  12.809  21.718  0.00  0.00     0.028 A 
ENDBRANCH   9  10
ENDBRANCH   7   9
ENDBRANCH   1   6
BRANCH   4  15
ATOM     15  C   UNL d   1     -49.199  12.657  22.889  0.00  0.00     0.027 A 
ATOM     16  C   UNL d   1     -49.492  13.224  23.403  0.00  0.00     0.028 A 
ATOM     17  C   UNL d   1     -50.087  13.715  23.162  0.00  0.00     0.119 A 
ATOM     18  O   UNL d   1     -50.479  14.318  23.546  0.00  0.00    -0.300 OA
ATOM     19  C   UNL d   1     -50.406  13.661  22.416  0.00  0.00     0.119 A 
ATOM     20  C   UNL d   1     -51.032  14.629  23.040  0.00  0.00     0.304 A 
ATOM     21  O   UNL d   1     -50.988  14.223  22.338  0.00  0.00    -0.300 OA
ATOM     22  C   UNL d   1     -50.117  13.093  21.892  0.00  0.00     0.026 A 
ATOM     23  C   UNL d   1     -49.526  12.603  22.129  0.00  0.00     0.004 A 
ENDBRANCH   4  15
TORSDOF 4
ENDMDL
MODEL 4
REMARK VINA RESULT:      -5.8      6.038      8.563
REMARK  4 active torsions:
REMARK  status: ('A' for Active; 'I' for Inactive)
REMARK    1  A    between atoms: C_6  and  C_1 
REMARK    2  A    between atoms: C_7  and  C_4 
REMARK       I    between atoms: N_9  and  C_6 
REMARK    3  A    between atoms: C_23  and  N_9 
REMARK    4  A    between atoms: C_11  and  C_23 
ROOT
ATOM      1  C   UNL d   1     -40.313  14.307  19.033  0.00  0.00     0.168 A 
ATOM      2  N   UNL d   1     -40.846  13.936  18.541  0.00  0.00    -0.121 NA
ATOM      3  C   UNL d   1     -39.680  14.574  18.566  0.00  0.00     0.053 A 
ATOM      4  C   UNL d   1     -39.837  14.361  17.792  0.00  0.00     0.127 A 
ATOM      5  O   UNL d   1     -40.559  13.967  17.781  0.00  0.00    -0.211 OA
ENDROOT
BRANCH   1   6
ATOM      6  C   UNL d   1     -40.401  14.523  20.634  0.00  0.00     0.299 C 
ATOM      7  N   UNL d   1     -39.762  14.226  21.124  0.00  0.00    -0.203 NA
ATOM      8  O   UNL d   1     -41.027  14.905  20.999  0.00  0.00    -0.263 OA
BRANCH   7   9
ATOM      9  C   UNL d   1     -39.790  14.331  21.979  0.00  0.00     0.127 C 
BRANCH   9  10
ATOM     10  C   UNL d   1     -39.168  14.007  22.479  0.00  0.00     0.119 A 
ATOM     11  O   UNL d   1     -39.042  13.182  22.665  0.00  0.00    -0.304 OA
ATOM     12  C   UNL d   1     -38.365  13.128  23.176  0.00  0.00     0.123 A 
ATOM     13  C   UNL d   1     -38.060  13.933  23.312  0.00  0.00     0.029 A 
ATOM     14  C   UNL d   1     -38.567  14.479  22.873  0.00  0.00     0.028 A 
ENDBRANCH   9  10
ENDBRANCH   7   9
ENDBRANCH   1   6
BRANCH   4  15
ATOM     15  C   UNL d   1     -39.389  14.496  17.136  0.00  0.00     0.027 A 
ATOM     16  C   UNL d   1     -39.120  13.867  16.683  0.00  0.00     0.028 A 
ATOM     17  C   UNL d   1     -38.672  14.010  16.026  0.00  0.00     0.119 A 
ATOM     18  O   UNL d   1     -38.335  13.505  15.482  0.00  0.00    -0.300 OA
ATOM     19  C   UNL d   1     -38.479  14.767  15.799  0.00  0.00     0.119 A 
ATOM     20  C   UNL d   1     -37.940  13.947  14.929  0.00  0.00     0.304 A 
ATOM     21  O   UNL d   1     -38.027  14.731  15.124  0.00  0.00    -0.300 OA
ATOM     22  C   UNL d   1     -38.745  15.405  16.249  0.00  0.00     0.026 A 
ATOM     23  C   UNL d   1     -39.191  15.267  16.903  0.00  0.00     0.004 A 
ENDBRANCH   4  15
TORSDOF 4
ENDMDL
MODEL 5
REMARK VINA RESULT:      -5.8      1.954      7.015
REMARK  4 active torsions:
REMARK  status: ('A' for Active; 'I' for Inactive)
REMARK    1  A    between atoms: C_6  and  C_1 
REMARK    2  A    between atoms: C_7  and  C_4 
REMARK       I    between atoms: N_9  and  C_6 
REMARK    3  A    between atoms: C_23  and  N_9 
REMARK    4  A    between atoms: C_11  and  C_23 
ROOT
ATOM      1  C   UNL d   1     -42.016  13.814  20.961  0.00  0.00     0.168 A 
ATOM      2  N   UNL d   1     -41.651  14.459  21.299  0.00  0.00    -0.121 NA
ATOM      3  C   UNL d   1     -41.648  13.670  20.229  0.00  0.00     0.053 A 
ATOM      4  C   UNL d   1     -41.063  14.232  20.132  0.00  0.00     0.127 A 
ATOM      5  O   UNL d   1     -41.068  14.719  20.796  0.00  0.00    -0.211 OA
ENDROOT
BRANCH   1   6
ATOM      6  C   UNL d   1     -43.235  12.924  21.543  0.00  0.00     0.299 C 
ATOM      7  N   UNL d   1     -43.994  13.302  21.670  0.00  0.00    -0.203 NA
ATOM      8  O   UNL d   1     -43.160  12.128  21.721  0.00  0.00    -0.263 OA
BRANCH   7   9
ATOM      9  C   UNL d   1     -44.656  12.845  21.980  0.00  0.00     0.127 C 
BRANCH   9  10
ATOM     10  C   UNL d   1     -45.371  13.242  22.251  0.00  0.00     0.119 A 
ATOM     11  O   UNL d   1     -45.422  14.030  22.581  0.00  0.00    -0.304 OA
ATOM     12  C   UNL d   1     -46.237  14.185  22.769  0.00  0.00     0.123 A 
ATOM     13  C   UNL d   1     -46.705  13.481  22.553  0.00  0.00     0.029 A 
ATOM     14  C   UNL d   1     -46.158  12.895  22.230  0.00  0.00     0.028 A 
ENDBRANCH   9  10
ENDBRANCH   7   9
ENDBRANCH   1   6
BRANCH   4  15
ATOM     15  C   UNL d   1     -40.555  14.324  19.513  0.00  0.00     0.027 A 
ATOM     16  C   UNL d   1     -40.844  14.485  18.762  0.00  0.00     0.028 A 
ATOM     17  C   UNL d   1     -40.329  14.575  18.146  0.00  0.00     0.119 A 
ATOM     18  O   UNL d   1     -40.454  14.735  17.356  0.00  0.00    -0.300 OA
ATOM     19  C   UNL d   1     -39.525  14.511  18.251  0.00  0.00     0.119 A 
ATOM     20  C   UNL d   1     -39.736  14.767  16.982  0.00  0.00     0.304 A 
ATOM     21  O   UNL d   1     -39.157  14.628  17.535  0.00  0.00    -0.300 OA
ATOM     22  C   UNL d   1     -39.226  14.349  19.002  0.00  0.00     0.026 A 
ATOM     23  C   UNL d   1     -39.735  14.258  19.617  0.00  0.00     0.004 A 
ENDBRANCH   4  15
TORSDOF 4
ENDMDL
MODEL 6
REMARK VINA RESULT:      -5.6      1.739      6.912
REMARK  4 active torsions:
REMARK  status: ('A' for Active; 'I' for Inactive)
REMARK    1  A    between atoms: C_6  and  C_1 
REMARK    2  A    between atoms: C_7  and  C_4 
REMARK       I    between atoms: N_9  and  C_6 
REMARK    3  A    between atoms: C_23  and  N_9 
REMARK    4  A    between atoms: C_11  and  C_23 
ROOT
ATOM      1  C   UNL d   1     -42.349  13.391  20.970  0.00  0.00     0.168 A 
ATOM      2  N   UNL d   1     -42.134  13.348  20.186  0.00  0.00    -0.121 NA
ATOM      3  C   UNL d   1     -41.799  13.879  21.357  0.00  0.00     0.053 A 
ATOM      4  C   UNL d   1     -41.254  14.128  20.800  0.00  0.00     0.127 A 
ATOM      5  O   UNL d   1     -41.466  13.797  20.076  0.00  0.00    -0.211 OA
ENDROOT
BRANCH   1   6
ATOM      6  C   UNL d   1     -43.600  12.684  21.714  0.00  0.00     0.299 C 
ATOM      7  N   UNL d   1     -44.335  13.121  21.785  0.00  0.00    -0.203 NA
ATOM      8  O   UNL d   1     -43.564  11.928  22.026  0.00  0.00    -0.263 OA
BRANCH   7   9
ATOM      9  C   UNL d   1     -45.013  12.762  22.177  0.00  0.00     0.127 C 
BRANCH   9  10
ATOM     10  C   UNL d   1     -45.688  13.245  22.411  0.00  0.00     0.119 A 
ATOM     11  O   UNL d   1     -45.659  14.029  22.750  0.00  0.00    -0.304 OA
ATOM     12  C   UNL d   1     -46.457  14.286  22.889  0.00  0.00     0.123 A 
ATOM     13  C   UNL d   1     -46.996  13.650  22.633  0.00  0.00     0.029 A 
ATOM     14  C   UNL d   1     -46.509  13.002  22.334  0.00  0.00     0.028 A 
ENDBRANCH   9  10
ENDBRANCH   7   9
ENDBRANCH   1   6
BRANCH   4  15
ATOM     15  C   UNL d   1     -40.616  14.609  20.904  0.00  0.00     0.027 A 
ATOM     16  C   UNL d   1     -39.874  14.286  21.034  0.00  0.00     0.028 A 
ATOM     17  C   UNL d   1     -39.238  14.774  21.138  0.00  0.00     0.119 A 
ATOM     18  O   UNL d   1     -38.450  14.614  21.274  0.00  0.00    -0.300 OA
ATOM     19  C   UNL d   1     -39.315  15.584  21.116  0.00  0.00     0.119 A 
ATOM     20  C   UNL d   1     -38.050  15.317  21.335  0.00  0.00     0.304 A 
ATOM     21  O   UNL d   1     -38.585  15.920  21.237  0.00  0.00    -0.300 OA
ATOM     22  C   UNL d   1     -40.059  15.916  20.985  0.00  0.00     0.026 A 
ATOM     23  C   UNL d   1     -40.693  15.434  20.882  0.00  0.00     0.004 A 
ENDBRANCH   4  15
TORSDOF 4
ENDMDL
MODEL 7
REMARK VINA RESULT:      -5.5      6.313      7.441
REMARK  4 active torsions:
REMARK  status: ('A' for Active; 'I' for Inactive)
REMARK    1  A    between atoms: C_6  and  C_1 
REMARK    2  A    between atoms: C_7  and  C_4 
REMARK       I    between atoms: N_9  and  C_6 
REMARK    3  A    between atoms: C_23  and  N_9 
REMARK    4  A    between atoms: C_11  and  C_23 
ROOT
ATOM      1  C   UNL d   1     -40.415  15.097  19.803  0.00  0.00     0.168 A 
ATOM      2  N   UNL d   1     -41.006  15.332  20.311  0.00  0.00    -0.121 NA
ATOM      3  C   UNL d   1     -39.772  14.842  20.263  0.00  0.00     0.053 A 
ATOM      4  C   UNL d   1     -39.982  14.925  21.049  0.00  0.00     0.127 A 
ATOM      5  O   UNL d   1     -40.746  15.229  21.074  0.00  0.00    -0.211 OA
ENDROOT
BRANCH   1   6
ATOM      6  C   UNL d   1     -40.416  15.097  18.185  0.00  0.00     0.299 C 
ATOM      7  N   UNL d   1     -39.740  14.765  17.774  0.00  0.00    -0.203 NA
ATOM      8  O   UNL d   1     -41.033  15.400  17.740  0.00  0.00    -0.263 OA
BRANCH   7   9
ATOM      9  C   UNL d   1     -39.721  14.755  16.913  0.00  0.00     0.127 C 
BRANCH   9  10
ATOM     10  C   UNL d   1     -39.026  14.465  16.495  0.00  0.00     0.119 A 
ATOM     11  O   UNL d   1     -38.586  14.880  15.891  0.00  0.00    -0.304 OA
ATOM     12  C   UNL d   1     -37.947  14.379  15.639  0.00  0.00     0.123 A 
ATOM     13  C   UNL d   1     -37.988  13.636  16.094  0.00  0.00     0.029 A 
ATOM     14  C   UNL d   1     -38.665  13.696  16.628  0.00  0.00     0.028 A 
ENDBRANCH   9  10
ENDBRANCH   7   9
ENDBRANCH   1   6
BRANCH   4  15
ATOM     15  C   UNL d   1     -39.546  14.752  21.705  0.00  0.00     0.027 A 
ATOM     16  C   UNL d   1     -39.377  13.973  21.894  0.00  0.00     0.028 A 
ATOM     17  C   UNL d   1     -38.940  13.807  22.553  0.00  0.00     0.119 A 
ATOM     18  O   UNL d   1     -38.691  13.098  22.872  0.00  0.00    -0.300 OA
ATOM     19  C   UNL d   1     -38.660  14.397  23.037  0.00  0.00     0.119 A 
ATOM     20  C   UNL d   1     -38.264  13.254  23.544  0.00  0.00     0.304 A 
ATOM     21  O   UNL d   1     -38.243  14.059  23.649  0.00  0.00    -0.300 OA
ATOM     22  C   UNL d   1     -38.825  15.184  22.854  0.00  0.00     0.026 A 
ATOM     23  C   UNL d   1     -39.260  15.353  22.200  0.00  0.00     0.004 A 
ENDBRANCH   4  15
TORSDOF 4
ENDMDL
MODEL 8
REMARK VINA RESULT:      -5.5      1.574      2.632
REMARK  4 active torsions:
REMARK  status: ('A' for Active; 'I' for Inactive)
REMARK    1  A    between atoms: C_6  and  C_1 
REMARK    2  A    between atoms: C_7  and  C_4 
REMARK       I    between atoms: N_9  and  C_6 
REMARK    3  A    between atoms: C_23  and  N_9 
REMARK    4  A    between atoms: C_11  and  C_23 
ROOT
ATOM      1  C   UNL d   1     -42.889  13.098  21.413  0.00  0.00     0.168 A 
ATOM      2  N   UNL d   1     -42.960  12.288  21.458  0.00  0.00    -0.121 NA
ATOM      3  C   UNL d   1     -43.597  13.431  21.694  0.00  0.00     0.053 A 
ATOM      4  C   UNL d   1     -44.091  12.816  21.909  0.00  0.00     0.127 A 
ATOM      5  O   UNL d   1     -43.693  12.110  21.761  0.00  0.00    -0.211 OA
ENDROOT
BRANCH   1   6
ATOM      6  C   UNL d   1     -41.635  13.973  20.883  0.00  0.00     0.299 C 
ATOM      7  N   UNL d   1     -41.479  13.997  20.040  0.00  0.00    -0.203 NA
ATOM      8  O   UNL d   1     -41.142  14.394  21.384  0.00  0.00    -0.263 OA
BRANCH   7   9
ATOM      9  C   UNL d   1     -40.816  14.458  19.738  0.00  0.00     0.127 C 
BRANCH   9  10
ATOM     10  C   UNL d   1     -40.674  14.513  18.890  0.00  0.00     0.119 A 
ATOM     11  O   UNL d   1     -40.575  13.860  18.347  0.00  0.00    -0.304 OA
ATOM     12  C   UNL d   1     -40.448  14.180  17.570  0.00  0.00     0.123 A 
ATOM     13  C   UNL d   1     -40.467  15.050  17.627  0.00  0.00     0.029 A 
ATOM     14  C   UNL d   1     -40.609  15.252  18.455  0.00  0.00     0.028 A 
ENDBRANCH   9  10
ENDBRANCH   7   9
ENDBRANCH   1   6
BRANCH   4  15
ATOM     15  C   UNL d   1     -44.836  12.855  22.212  0.00  0.00     0.027 A 
ATOM     16  C   UNL d   1     -45.106  12.271  22.721  0.00  0.00     0.028 A 
ATOM     17  C   UNL d   1     -45.855  12.318  23.021  0.00  0.00     0.119 A 
ATOM     18  O   UNL d   1     -46.265  11.828  23.529  0.00  0.00    -0.300 OA
ATOM     19  C   UNL d   1     -46.353  12.932  22.831  0.00  0.00     0.119 A 
ATOM     20  C   UNL d   1     -47.004  12.140  23.648  0.00  0.00     0.304 A 
ATOM     21  O   UNL d   1     -47.061  12.825  23.216  0.00  0.00    -0.300 OA
ATOM     22  C   UNL d   1     -46.089  13.523  22.320  0.00  0.00     0.026 A 
ATOM     23  C   UNL d   1     -45.345  13.481  22.020  0.00  0.00     0.004 A 
ENDBRANCH   4  15
TORSDOF 4
ENDMDL
MODEL 9
REMARK VINA RESULT:      -5.0      1.144      6.537
REMARK  4 active torsions:
REMARK  status: ('A' for Active; 'I' for Inactive)
REMARK    1  A    between atoms: C_6  and  C_1 
REMARK    2  A    between atoms: C_7  and  C_4 
REMARK       I    between atoms: N_9  and  C_6 
REMARK    3  A    between atoms: C_23  and  N_9 
REMARK    4  A    between atoms: C_11  and  C_23 
ROOT
ATOM      1  C   UNL d   1     -43.778  13.147  21.663  0.00  0.00     0.168 A 
ATOM      2  N   UNL d   1     -43.444  12.423  21.496  0.00  0.00    -0.121 NA
ATOM      3  C   UNL d   1     -43.233  13.735  21.445  0.00  0.00     0.053 A 
ATOM      4  C   UNL d   1     -42.571  13.359  21.145  0.00  0.00     0.127 A 
ATOM      5  O   UNL d   1     -42.705  12.548  21.179  0.00  0.00    -0.211 OA
ENDROOT
BRANCH   1   6
ATOM      6  C   UNL d   1     -45.229  13.463  22.304  0.00  0.00     0.299 C 
ATOM      7  N   UNL d   1     -45.713  12.806  22.569  0.00  0.00    -0.203 NA
ATOM      8  O   UNL d   1     -45.525  14.223  22.387  0.00  0.00    -0.263 OA
BRANCH   7   9
ATOM      9  C   UNL d   1     -46.490  12.953  22.913  0.00  0.00     0.127 C 
BRANCH   9  10
ATOM     10  C   UNL d   1     -46.982  12.297  23.175  0.00  0.00     0.119 A 
ATOM     11  O   UNL d   1     -46.712  11.568  23.531  0.00  0.00    -0.304 OA
ATOM     12  C   UNL d   1     -47.393  11.087  23.697  0.00  0.00     0.123 A 
ATOM     13  C   UNL d   1     -48.103  11.523  23.440  0.00  0.00     0.029 A 
ATOM     14  C   UNL d   1     -47.840  12.279  23.114  0.00  0.00     0.028 A 
ENDBRANCH   9  10
ENDBRANCH   7   9
ENDBRANCH   1   6
BRANCH   4  15
ATOM     15  C   UNL d   1     -41.893  13.690  20.861  0.00  0.00     0.027 A 
ATOM     16  C   UNL d   1     -41.743  13.694  20.056  0.00  0.00     0.028 A 
ATOM     17  C   UNL d   1     -41.061  14.028  19.778  0.00  0.00     0.119 A 
ATOM     18  O   UNL d   1     -40.770  14.111  19.020  0.00  0.00    -0.300 OA
ATOM     19  C   UNL d   1     -40.516  14.363  20.280  0.00  0.00     0.119 A 
ATOM     20  C   UNL d   1     -40.055  14.492  19.059  0.00  0.00     0.304 A 
ATOM     21  O   UNL d   1     -39.895  14.649  19.840  0.00  0.00    -0.300 OA
ATOM     22  C   UNL d   1     -40.660  14.362  21.092  0.00  0.00     0.026 A 
ATOM     23  C   UNL d   1     -41.336  14.031  21.372  0.00  0.00     0.004 A 
ENDBRANCH   4  15
TORSDOF 4
ENDMDL
