MODEL 1
REMARK VINA RESULT:      12.0      0.000      0.000
REMARK  6 active torsions:
REMARK  status: ('A' for Active; 'I' for Inactive)
REMARK    1  A    between atoms: C_6  and  S_1 
REMARK    2  A    between atoms: N_7  and  S_1 
REMARK    3  A    between atoms: N_2  and  C_3 
REMARK       I    between atoms: C_4  and  N_2 
REMARK    4  A    between atoms: C_3  and  N_11 
REMARK    5  A    between atoms: C_5  and  C_4 
REMARK    6  A    between atoms: N_11  and  C_19 
ROOT
ATOM      1  C   UNL d   1      45.519 -14.450  44.518  0.00  0.00     0.104 A 
ATOM      2  C   UNL d   1      46.231 -14.849  44.656  0.00  0.00     0.014 A 
ATOM      3  C   UNL d   1      44.802 -14.850  44.520  0.00  0.00     0.014 A 
ATOM      4  C   UNL d   1      45.487 -16.077  44.802  0.00  0.00     0.084 A 
ATOM      5  C   UNL d   1      44.780 -15.669  44.663  0.00  0.00     0.020 A 
ATOM      6  C   UNL d   1      46.212 -15.672  44.800  0.00  0.00     0.020 A 
ENDROOT
BRANCH   4   7
ATOM      7  N   UNL d   1      45.459 -16.903  44.945  0.00  0.00    -0.217 NA
BRANCH   7   8
ATOM      8  C   UNL d   1      45.733 -17.390  44.418  0.00  0.00     0.224 C 
ATOM      9  S   UNL d   1      45.728 -17.204  43.661  0.00  0.00    -0.037 SA
BRANCH   8  10
ATOM     10  N   UNL d   1      46.222 -18.591  44.927  0.00  0.00    -0.178 NA
ATOM     11  C   UNL d   1      46.364 -19.188  44.437  0.00  0.00     0.287 C 
ATOM     12  O   UNL d   1      46.644 -19.874  44.732  0.00  0.00    -0.265 OA
BRANCH  11  13
ATOM     13  C   UNL d   1      46.231 -19.103  43.674  0.00  0.00     0.087 A 
ATOM     14  S   UNL d   1      46.647 -18.685  43.155  0.00  0.00    -0.082 SA
ATOM     15  C   UNL d   1      46.305 -18.765  42.457  0.00  0.00     0.036 A 
ATOM     16  C   UNL d   1      45.695 -19.217  42.532  0.00  0.00     0.008 A 
ATOM     17  C   UNL d   1      45.634 -19.435  43.274  0.00  0.00     0.012 A 
ENDBRANCH  11  13
ENDBRANCH   8  10
ENDBRANCH   7   8
ENDBRANCH   4   7
BRANCH   1  18
ATOM     18  S   UNL d   1      45.526 -13.631  44.374  0.00  0.00     0.271 S 
ATOM     19  O   UNL d   1      46.300 -13.571  44.646  0.00  0.00    -0.200 OA
ATOM     20  O   UNL d   1      44.735 -13.676  44.094  0.00  0.00    -0.200 OA
BRANCH  18  21
ATOM     21  N   UNL d   1      45.505 -12.787  44.216  0.00  0.00    -0.226 N 
ATOM     22  C   UNL d   1      45.771 -12.230  44.784  0.00  0.00     0.111 C 
ATOM     23  C   UNL d   1      45.211 -12.538  43.475  0.00  0.00     0.111 C 
ENDBRANCH  18  21
ENDBRANCH   1  18
TORSDOF 6
ENDMDL
MODEL 2
REMARK VINA RESULT:      14.9      1.290      5.059
REMARK  6 active torsions:
REMARK  status: ('A' for Active; 'I' for Inactive)
REMARK    1  A    between atoms: C_6  and  S_1 
REMARK    2  A    between atoms: N_7  and  S_1 
REMARK    3  A    between atoms: N_2  and  C_3 
REMARK       I    between atoms: C_4  and  N_2 
REMARK    4  A    between atoms: C_3  and  N_11 
REMARK    5  A    between atoms: C_5  and  C_4 
REMARK    6  A    between atoms: N_11  and  C_19 
ROOT
ATOM      1  C   UNL d   1      46.241 -18.172  43.578  0.00  0.00     0.104 A 
ATOM      2  C   UNL d   1      46.185 -17.438  43.199  0.00  0.00     0.014 A 
ATOM      3  C   UNL d   1      46.164 -18.235  44.393  0.00  0.00     0.014 A 
ATOM      4  C   UNL d   1      45.969 -16.818  44.485  0.00  0.00     0.084 A 
ATOM      5  C   UNL d   1      46.027 -17.557  44.854  0.00  0.00     0.020 A 
ATOM      6  C   UNL d   1      46.047 -16.754  43.661  0.00  0.00     0.020 A 
ENDROOT
BRANCH   4   7
ATOM      7  N   UNL d   1      45.831 -16.137  44.955  0.00  0.00    -0.217 NA
BRANCH   7   8
ATOM      8  C   UNL d   1      45.796 -15.445  44.623  0.00  0.00     0.224 C 
ATOM      9  S   UNL d   1      46.434 -15.115  44.320  0.00  0.00    -0.037 SA
BRANCH   8  10
ATOM     10  N   UNL d   1      44.532 -14.862  44.615  0.00  0.00    -0.178 NA
ATOM     11  C   UNL d   1      44.465 -14.087  44.509  0.00  0.00     0.287 C 
ATOM     12  O   UNL d   1      43.739 -13.756  44.505  0.00  0.00    -0.265 OA
BRANCH  11  13
ATOM     13  C   UNL d   1      45.105 -13.653  44.409  0.00  0.00     0.087 A 
ATOM     14  S   UNL d   1      45.487 -13.226  44.945  0.00  0.00    -0.082 SA
ATOM     15  C   UNL d   1      46.095 -12.887  44.590  0.00  0.00     0.036 A 
ATOM     16  C   UNL d   1      46.097 -13.092  43.855  0.00  0.00     0.008 A 
ATOM     17  C   UNL d   1      45.495 -13.564  43.725  0.00  0.00     0.012 A 
ENDBRANCH  11  13
ENDBRANCH   8  10
ENDBRANCH   7   8
ENDBRANCH   4   7
BRANCH   1  18
ATOM     18  S   UNL d   1      46.378 -18.859  43.129  0.00  0.00     0.271 S 
ATOM     19  O   UNL d   1      46.645 -19.262  43.794  0.00  0.00    -0.200 OA
ATOM     20  O   UNL d   1      46.107 -18.459  42.441  0.00  0.00    -0.200 OA
BRANCH  18  21
ATOM     21  N   UNL d   1      46.509 -19.553  42.642  0.00  0.00    -0.226 N 
ATOM     22  C   UNL d   1      46.500 -20.325  42.971  0.00  0.00     0.111 C 
ATOM     23  C   UNL d   1      46.647 -19.436  41.826  0.00  0.00     0.111 C 
ENDBRANCH  18  21
ENDBRANCH   1  18
TORSDOF 6
ENDMDL
