MODEL 1
REMARK VINA RESULT:      71.1      0.000      0.000
REMARK  3 active torsions:
REMARK  status: ('A' for Active; 'I' for Inactive)
REMARK    1  A    between atoms: C_6  and  C_1 
REMARK    2  A    between atoms: O_10  and  C_6 
REMARK    3  A    between atoms: C_19  and  O_10 
ROOT
ATOM      1  C   UNL d   1     -57.089 -99.148 -44.115  0.00  0.00     0.081 A 
ATOM      2  C   UNL d   1     -58.378 -98.968 -43.441  0.00  0.00     0.056 A 
ATOM      3  C   UNL d   1     -58.010 -99.027 -42.721  0.00  0.00     0.080 A 
ATOM      4  C   UNL d   1     -56.721 -99.206 -43.395  0.00  0.00     0.086 A 
ATOM      5  C   UNL d   1     -57.946 -99.025 -44.142  0.00  0.00     0.013 A 
ATOM      6  N   UNL d   1     -57.186 -99.145 -42.657  0.00  0.00    -0.246 NA
ATOM      7  C   UNL d   1     -59.194 -98.851 -43.490  0.00  0.00     0.193 A 
ATOM      8  C   UNL d   1     -58.434 -98.972 -42.004  0.00  0.00    -0.003 A 
ATOM      9  C   UNL d   1     -59.262 -98.852 -42.066  0.00  0.00     0.042 A 
ATOM     10  C   UNL d   1     -59.631 -98.794 -42.786  0.00  0.00     0.019 A 
ATOM     11  O   UNL d   1     -59.562 -98.793 -44.211  0.00  0.00    -0.287 OA
ATOM     12  C   UNL d   1     -58.543 -98.930 -45.310  0.00  0.00     0.020 A 
ATOM     13  N   UNL d   1     -58.425 -98.936 -46.727  0.00  0.00    -0.242 NA
ATOM     14  C   UNL d   1     -55.896 -99.325 -43.331  0.00  0.00     0.021 C 
ATOM     15  C   UNL d   1     -58.051 -98.995 -45.995  0.00  0.00     0.099 A 
ATOM     16  C   UNL d   1     -59.468 -98.829 -41.292  0.00  0.00     0.009 C 
ATOM     17  C   UNL d   1     -59.961 -98.755 -41.701  0.00  0.00     0.009 C 
ATOM     18  C   UNL d   1     -59.274 -98.814 -46.739  0.00  0.00     0.099 A 
ATOM     19  C   UNL d   1     -59.344 -98.815 -45.319  0.00  0.00     0.003 A 
ATOM     20  C   UNL d   1     -59.718 -98.756 -46.051  0.00  0.00     0.021 A 
ENDROOT
BRANCH   1  21
ATOM     21  C   UNL d   1     -56.656 -99.204 -44.816  0.00  0.00     0.301 C 
ATOM     22  O   UNL d   1     -56.855 -98.757 -45.464  0.00  0.00    -0.259 OA
BRANCH  21  23
ATOM     23  O   UNL d   1     -56.017 -99.727 -44.845  0.00  0.00    -0.273 OA
BRANCH  23  24
ATOM     24  C   UNL d   1     -55.382 -99.526 -45.205  0.00  0.00     0.103 C 
ATOM     25  C   UNL d   1     -55.378 -98.871 -45.617  0.00  0.00     0.027 C 
ATOM     26  C   UNL d   1     -54.766 -99.967 -45.157  0.00  0.00     0.027 C 
ENDBRANCH  23  24
ENDBRANCH  21  23
ENDBRANCH   1  21
TORSDOF 3
ENDMDL
