MODEL 1
REMARK VINA RESULT:       0.6      0.000      0.000
REMARK  6 active torsions:
REMARK  status: ('A' for Active; 'I' for Inactive)
REMARK    1  A    between atoms: C_7  and  C_1 
REMARK    2  A    between atoms: C_10  and  C_2 
REMARK    3  A    between atoms: C_9  and  C_5 
REMARK    4  A    between atoms: O_15  and  C_7 
REMARK    5  A    between atoms: N_14  and  C_9 
REMARK    6  A    between atoms: C_21  and  O_15 
ROOT
ATOM      1  C   UNL d   1      58.256  -0.145  30.920  0.00  0.00     0.088 A 
ATOM      2  C   UNL d   1      58.964   0.248  30.766  0.00  0.00     0.105 A 
ATOM      3  C   UNL d   1      58.063  -0.011  31.698  0.00  0.00     0.034 A 
ATOM      4  O   UNL d   1      59.184   0.615  31.465  0.00  0.00    -0.307 OA
ATOM      5  C   UNL d   1      57.422  -0.261  32.161  0.00  0.00     0.059 A 
ATOM      6  C   UNL d   1      58.626   0.457  32.049  0.00  0.00     0.100 A 
ATOM      7  C   UNL d   1      57.354  -0.049  32.939  0.00  0.00     0.197 A 
ATOM      8  C   UNL d   1      58.577   0.682  32.828  0.00  0.00     0.028 A 
ATOM      9  C   UNL d   1      57.938   0.432  33.288  0.00  0.00     0.044 A 
ATOM     10  O   UNL d   1      56.709  -0.301  33.400  0.00  0.00    -0.286 OA
ENDROOT
BRANCH   2  11
ATOM     11  C   UNL d   1      59.363   0.263  30.049  0.00  0.00     0.023 A 
ATOM     12  C   UNL d   1      59.024   0.660  29.400  0.00  0.00     0.002 A 
ATOM     13  C   UNL d   1      59.420   0.682  28.666  0.00  0.00     0.000 A 
ATOM     14  C   UNL d   1      60.152   0.302  28.600  0.00  0.00     0.000 A 
ATOM     15  C   UNL d   1      60.483  -0.089  29.241  0.00  0.00     0.000 A 
ATOM     16  C   UNL d   1      60.091  -0.108  29.962  0.00  0.00     0.002 A 
ENDBRANCH   2  11
BRANCH   1  17
ATOM     17  C   UNL d   1      58.125  -0.472  30.171  0.00  0.00     0.302 C 
ATOM     18  O   UNL d   1      57.749  -0.026  29.588  0.00  0.00    -0.259 OA
BRANCH  17  19
ATOM     19  O   UNL d   1      58.365  -1.236  29.997  0.00  0.00    -0.271 OA
BRANCH  19  20
ATOM     20  C   UNL d   1      57.880  -1.753  29.583  0.00  0.00     0.126 C 
ATOM     21  C   UNL d   1      58.145  -2.506  29.358  0.00  0.00     0.029 C 
ENDBRANCH  19  20
ENDBRANCH  17  19
ENDBRANCH   1  17
BRANCH   5  22
ATOM     22  C   UNL d   1      56.834  -0.739  31.824  0.00  0.00     0.084 C 
BRANCH  22  23
ATOM     23  N   UNL d   1      56.131  -0.894  32.229  0.00  0.00    -0.300 N 
ATOM     24  C   UNL d   1      55.546  -0.321  32.244  0.00  0.00     0.100 C 
ATOM     25  C   UNL d   1      56.018  -1.603  32.609  0.00  0.00     0.100 C 
ENDBRANCH  22  23
ENDBRANCH   5  22
TORSDOF 6
ENDMDL
MODEL 2
REMARK VINA RESULT:       0.7      1.126      2.263
REMARK  6 active torsions:
REMARK  status: ('A' for Active; 'I' for Inactive)
REMARK    1  A    between atoms: C_7  and  C_1 
REMARK    2  A    between atoms: C_10  and  C_2 
REMARK    3  A    between atoms: C_9  and  C_5 
REMARK    4  A    between atoms: O_15  and  C_7 
REMARK    5  A    between atoms: N_14  and  C_9 
REMARK    6  A    between atoms: C_21  and  O_15 
ROOT
ATOM      1  C   UNL d   1      57.751  -0.475  31.142  0.00  0.00     0.088 A 
ATOM      2  C   UNL d   1      57.724  -1.036  30.538  0.00  0.00     0.105 A 
ATOM      3  C   UNL d   1      57.225  -0.706  31.717  0.00  0.00     0.034 A 
ATOM      4  O   UNL d   1      57.174  -1.599  30.767  0.00  0.00    -0.307 OA
ATOM      5  C   UNL d   1      57.015  -0.367  32.444  0.00  0.00     0.059 A 
ATOM      6  C   UNL d   1      56.860  -1.399  31.501  0.00  0.00     0.100 A 
ATOM      7  C   UNL d   1      56.465  -0.711  32.928  0.00  0.00     0.197 A 
ATOM      8  C   UNL d   1      56.305  -1.760  31.971  0.00  0.00     0.028 A 
ATOM      9  C   UNL d   1      56.097  -1.421  32.696  0.00  0.00     0.044 A 
ATOM     10  O   UNL d   1      56.257  -0.368  33.657  0.00  0.00    -0.286 OA
ENDROOT
BRANCH   2  11
ATOM     11  C   UNL d   1      58.165  -1.023  29.847  0.00  0.00     0.023 A 
ATOM     12  C   UNL d   1      58.753  -1.601  29.724  0.00  0.00     0.002 A 
ATOM     13  C   UNL d   1      59.208  -1.599  29.026  0.00  0.00     0.000 A 
ATOM     14  C   UNL d   1      59.062  -1.011  28.461  0.00  0.00     0.000 A 
ATOM     15  C   UNL d   1      58.483  -0.443  28.584  0.00  0.00     0.000 A 
ATOM     16  C   UNL d   1      58.037  -0.449  29.273  0.00  0.00     0.002 A 
ENDBRANCH   2  11
BRANCH   1  17
ATOM     17  C   UNL d   1      58.319   0.033  30.820  0.00  0.00     0.302 C 
ATOM     18  O   UNL d   1      58.110   0.550  30.213  0.00  0.00    -0.259 OA
BRANCH  17  19
ATOM     19  O   UNL d   1      59.091   0.031  31.095  0.00  0.00    -0.271 OA
BRANCH  19  20
ATOM     20  C   UNL d   1      59.593   0.668  30.967  0.00  0.00     0.126 C 
ATOM     21  C   UNL d   1      60.369   0.671  31.259  0.00  0.00     0.029 C 
ENDBRANCH  19  20
ENDBRANCH  17  19
ENDBRANCH   1  17
BRANCH   5  22
ATOM     22  C   UNL d   1      57.374   0.340  32.687  0.00  0.00     0.084 C 
BRANCH  22  23
ATOM     23  N   UNL d   1      57.490   0.503  33.488  0.00  0.00    -0.300 N 
ATOM     24  C   UNL d   1      58.251   0.488  33.791  0.00  0.00     0.100 C 
ATOM     25  C   UNL d   1      56.862   0.676  33.972  0.00  0.00     0.100 C 
ENDBRANCH  22  23
ENDBRANCH   5  22
TORSDOF 6
ENDMDL
MODEL 3
REMARK VINA RESULT:       3.4      1.410      4.074
REMARK  6 active torsions:
REMARK  status: ('A' for Active; 'I' for Inactive)
REMARK    1  A    between atoms: C_7  and  C_1 
REMARK    2  A    between atoms: C_10  and  C_2 
REMARK    3  A    between atoms: C_9  and  C_5 
REMARK    4  A    between atoms: O_15  and  C_7 
REMARK    5  A    between atoms: N_14  and  C_9 
REMARK    6  A    between atoms: C_21  and  O_15 
ROOT
ATOM      1  C   UNL d   1      56.972  -0.029  32.621  0.00  0.00     0.088 A 
ATOM      2  C   UNL d   1      57.022   0.359  33.347  0.00  0.00     0.105 A 
ATOM      3  C   UNL d   1      57.685   0.065  32.243  0.00  0.00     0.034 A 
ATOM      4  O   UNL d   1      57.773   0.681  33.389  0.00  0.00    -0.307 OA
ATOM      5  C   UNL d   1      57.960  -0.199  31.506  0.00  0.00     0.059 A 
ATOM      6  C   UNL d   1      58.192   0.501  32.704  0.00  0.00     0.100 A 
ATOM      7  C   UNL d   1      58.708  -0.030  31.248  0.00  0.00     0.197 A 
ATOM      8  C   UNL d   1      58.947   0.682  32.465  0.00  0.00     0.028 A 
ATOM      9  C   UNL d   1      59.219   0.418  31.730  0.00  0.00     0.044 A 
ATOM     10  O   UNL d   1      58.981  -0.296  30.509  0.00  0.00    -0.286 OA
ENDROOT
BRANCH   2  11
ATOM     11  C   UNL d   1      56.427   0.407  33.911  0.00  0.00     0.023 A 
ATOM     12  C   UNL d   1      56.607   0.258  34.710  0.00  0.00     0.002 A 
ATOM     13  C   UNL d   1      56.011   0.304  35.292  0.00  0.00     0.000 A 
ATOM     14  C   UNL d   1      55.242   0.500  35.056  0.00  0.00     0.000 A 
ATOM     15  C   UNL d   1      55.068   0.646  34.268  0.00  0.00     0.000 A 
ATOM     16  C   UNL d   1      55.657   0.600  33.698  0.00  0.00     0.002 A 
ENDBRANCH   2  11
BRANCH   1  17
ATOM     17  C   UNL d   1      56.196  -0.310  32.678  0.00  0.00     0.302 C 
ATOM     18  O   UNL d   1      55.565   0.184  32.484  0.00  0.00    -0.259 OA
BRANCH  17  19
ATOM     19  O   UNL d   1      56.042  -1.076  32.926  0.00  0.00    -0.271 OA
BRANCH  19  20
ATOM     20  C   UNL d   1      55.379  -1.484  32.667  0.00  0.00     0.126 C 
ATOM     21  C   UNL d   1      55.318  -2.307  32.754  0.00  0.00     0.029 C 
ENDBRANCH  19  20
ENDBRANCH  17  19
ENDBRANCH   1  17
BRANCH   5  22
ATOM     22  C   UNL d   1      57.461  -0.646  31.017  0.00  0.00     0.084 C 
BRANCH  22  23
ATOM     23  N   UNL d   1      57.686  -0.840  30.247  0.00  0.00    -0.300 N 
ATOM     24  C   UNL d   1      57.681  -0.256  29.672  0.00  0.00     0.100 C 
ATOM     25  C   UNL d   1      57.909  -1.597  30.057  0.00  0.00     0.100 C 
ENDBRANCH  22  23
ENDBRANCH   5  22
TORSDOF 6
ENDMDL
