MODEL 1
REMARK VINA RESULT:      35.2      0.000      0.000
REMARK  4 active torsions:
REMARK  status: ('A' for Active; 'I' for Inactive)
REMARK    1  A    between atoms: C_3  and  N_1 
REMARK    2  A    between atoms: C_6  and  C_3 
REMARK    3  A    between atoms: C_9  and  C_3 
REMARK    4  A    between atoms: N_5  and  C_6 
ROOT
ATOM      1  C   UNL d   1     -58.239 -98.912 -44.614  0.00  0.00     0.106 C 
ENDROOT
BRANCH   1   2
ATOM      2  N   UNL d   1     -58.709 -98.865 -45.304  0.00  0.00    -0.228 N 
ATOM      3  N   UNL d   1     -58.517 -98.876 -46.111  0.00  0.00    -0.165 NA
ATOM      4  C   UNL d   1     -59.217 -98.811 -46.519  0.00  0.00     0.103 A 
ATOM      5  C   UNL d   1     -59.294 -98.798 -47.359  0.00  0.00     0.022 C 
ATOM      6  C   UNL d   1     -59.830 -98.761 -46.000  0.00  0.00     0.040 A 
ATOM      7  C   UNL d   1     -59.528 -98.794 -45.238  0.00  0.00     0.085 A 
ATOM      8  C   UNL d   1     -59.958 -98.762 -44.524  0.00  0.00     0.021 C 
ENDBRANCH   1   2
BRANCH   1   9
ATOM      9  C   UNL d   1     -58.601 -98.993 -43.877  0.00  0.00     0.167 C 
BRANCH   9  10
ATOM     10  N   UNL d   1     -58.985 -99.696 -43.674  0.00  0.00    -0.111 N 
ATOM     11  O   UNL d   1     -58.693-100.422 -43.935  0.00  0.00    -0.532 OA
ATOM     12  O   UNL d   1     -59.674 -99.671 -43.202  0.00  0.00    -0.532 OA
ENDBRANCH   9  10
ENDBRANCH   1   9
BRANCH   1  13
ATOM     13  C   UNL d   1     -57.384 -98.875 -44.671  0.00  0.00     0.019 A 
ATOM     14  C   UNL d   1     -57.019 -98.909 -45.403  0.00  0.00     0.002 A 
ATOM     15  C   UNL d   1     -56.197 -98.873 -45.452  0.00  0.00     0.000 A 
ATOM     16  C   UNL d   1     -55.738 -98.803 -44.770  0.00  0.00     0.000 A 
ATOM     17  C   UNL d   1     -56.103 -98.769 -44.037  0.00  0.00     0.000 A 
ATOM     18  C   UNL d   1     -54.893 -98.767 -44.826  0.00  0.00     0.000 C 
ATOM     19  C   UNL d   1     -56.926 -98.805 -43.989  0.00  0.00     0.002 A 
ENDBRANCH   1  13
TORSDOF 4
ENDMDL
