MODEL 1
REMARK VINA RESULT:      -3.5      0.000      0.000
REMARK  3 active torsions:
REMARK  status: ('A' for Active; 'I' for Inactive)
REMARK    1  A    between atoms: C_2  and  C_1 
REMARK    2  A    between atoms: C_3  and  C_2 
REMARK       I    between atoms: N_5  and  C_3 
REMARK    3  A    between atoms: C_10  and  N_8 
ROOT
ATOM      1  C   UNL d   1      32.909  19.214 -23.191  0.00  0.00     0.304 C 
ATOM      2  N   UNL d   1      32.879  19.824 -22.640  0.00  0.00    -0.266 N 
ATOM      3  N   UNL d   1      32.820  21.053 -21.536  0.00  0.00    -0.301 N 
ATOM      4  O   UNL d   1      32.997  19.387 -23.991  0.00  0.00    -0.263 OA
ATOM      5  C   UNL d   1      32.937  20.607 -22.889  0.00  0.00     0.102 A 
ATOM      6  C   UNL d   1      32.791  19.646 -21.843  0.00  0.00     0.102 A 
ATOM      7  C   UNL d   1      32.762  20.260 -21.294  0.00  0.00     0.100 A 
ATOM      8  C   UNL d   1      32.908  21.220 -22.344  0.00  0.00     0.100 A 
ENDROOT
BRANCH   1   9
ATOM      9  C   UNL d   1      32.851  18.423 -22.941  0.00  0.00     0.253 C 
ATOM     10  O   UNL d   1      33.241  18.182 -22.253  0.00  0.00    -0.281 OA
BRANCH   9  11
ATOM     11  C   UNL d   1      32.407  17.889 -23.376  0.00  0.00     0.064 A 
ATOM     12  C   UNL d   1      31.721  18.047 -23.809  0.00  0.00     0.102 A 
ATOM     13  N   UNL d   1      31.457  17.352 -24.160  0.00  0.00    -0.244 NA
ATOM     14  C   UNL d   1      31.981  16.751 -23.945  0.00  0.00     0.082 A 
ATOM     15  C   UNL d   1      32.566  17.082 -23.462  0.00  0.00     0.022 A 
ATOM     16  C   UNL d   1      32.002  15.948 -24.126  0.00  0.00     0.019 A 
ATOM     17  C   UNL d   1      33.169  16.607 -23.163  0.00  0.00     0.002 A 
ATOM     18  C   UNL d   1      33.188  15.795 -23.347  0.00  0.00     0.000 A 
ATOM     19  C   UNL d   1      32.604  15.474 -23.827  0.00  0.00     0.002 A 
ENDBRANCH   9  11
ENDBRANCH   1   9
BRANCH   3  20
ATOM     20  C   UNL d   1      32.791  21.666 -20.994  0.00  0.00     0.064 A 
ATOM     21  C   UNL d   1      32.320  22.327 -21.134  0.00  0.00     0.020 A 
ATOM     22  C   UNL d   1      32.299  22.941 -20.577  0.00  0.00     0.031 A 
ATOM     23  C   UNL d   1      32.748  22.892 -19.883  0.00  0.00     0.140 A 
ATOM     24  C   UNL d   1      33.223  22.224 -19.743  0.00  0.00     0.031 A 
ATOM     25  F   UNL d   1      32.722  23.507 -19.334  0.00  0.00    -0.204 F 
ATOM     26  C   UNL d   1      33.241  21.618 -20.297  0.00  0.00     0.020 A 
ENDBRANCH   3  20
TORSDOF 3
ENDMDL
MODEL 2
REMARK VINA RESULT:      -2.5      2.134      5.569
REMARK  3 active torsions:
REMARK  status: ('A' for Active; 'I' for Inactive)
REMARK    1  A    between atoms: C_2  and  C_1 
REMARK    2  A    between atoms: C_3  and  C_2 
REMARK       I    between atoms: N_5  and  C_3 
REMARK    3  A    between atoms: C_10  and  N_8 
ROOT
ATOM      1  C   UNL d   1      33.137  21.170 -22.434  0.00  0.00     0.304 C 
ATOM      2  N   UNL d   1      33.104  20.385 -22.679  0.00  0.00    -0.266 N 
ATOM      3  N   UNL d   1      33.038  18.809 -23.175  0.00  0.00    -0.301 N 
ATOM      4  O   UNL d   1      33.240  21.769 -22.989  0.00  0.00    -0.263 OA
ATOM      5  C   UNL d   1      33.174  20.200 -23.479  0.00  0.00     0.102 A 
ATOM      6  C   UNL d   1      33.001  19.791 -22.121  0.00  0.00     0.102 A 
ATOM      7  C   UNL d   1      32.968  19.006 -22.370  0.00  0.00     0.100 A 
ATOM      8  C   UNL d   1      33.141  19.418 -23.729  0.00  0.00     0.100 A 
ENDROOT
BRANCH   1   9
ATOM      9  C   UNL d   1      33.066  21.358 -21.627  0.00  0.00     0.253 C 
ATOM     10  O   UNL d   1      33.234  20.783 -21.057  0.00  0.00    -0.281 OA
BRANCH   9  11
ATOM     11  C   UNL d   1      32.831  22.110 -21.402  0.00  0.00     0.064 A 
ATOM     12  C   UNL d   1      32.536  22.707 -21.892  0.00  0.00     0.102 A 
ATOM     13  N   UNL d   1      32.370  23.371 -21.437  0.00  0.00    -0.244 NA
ATOM     14  C   UNL d   1      32.563  23.191 -20.655  0.00  0.00     0.082 A 
ATOM     15  C   UNL d   1      32.848  22.414 -20.633  0.00  0.00     0.022 A 
ATOM     16  C   UNL d   1      32.518  23.632 -19.961  0.00  0.00     0.019 A 
ATOM     17  C   UNL d   1      33.085  22.083 -19.918  0.00  0.00     0.002 A 
ATOM     18  C   UNL d   1      33.038  22.531 -19.217  0.00  0.00     0.000 A 
ATOM     19  C   UNL d   1      32.755  23.301 -19.246  0.00  0.00     0.002 A 
ENDBRANCH   9  11
ENDBRANCH   1   9
BRANCH   3  20
ATOM     20  C   UNL d   1      33.006  18.032 -23.427  0.00  0.00     0.064 A 
ATOM     21  C   UNL d   1      33.240  17.420 -22.927  0.00  0.00     0.020 A 
ATOM     22  C   UNL d   1      33.203  16.635 -23.194  0.00  0.00     0.031 A 
ATOM     23  C   UNL d   1      32.932  16.466 -23.958  0.00  0.00     0.140 A 
ATOM     24  C   UNL d   1      32.696  17.084 -24.461  0.00  0.00     0.031 A 
ATOM     25  F   UNL d   1      32.898  15.683 -24.216  0.00  0.00    -0.204 F 
ATOM     26  C   UNL d   1      32.734  17.859 -24.194  0.00  0.00     0.020 A 
ENDBRANCH   3  20
TORSDOF 3
ENDMDL
MODEL 3
REMARK VINA RESULT:      -2.3      2.611      5.452
REMARK  3 active torsions:
REMARK  status: ('A' for Active; 'I' for Inactive)
REMARK    1  A    between atoms: C_2  and  C_1 
REMARK    2  A    between atoms: C_3  and  C_2 
REMARK       I    between atoms: N_5  and  C_3 
REMARK    3  A    between atoms: C_10  and  N_8 
ROOT
ATOM      1  C   UNL d   1      32.739  18.592 -24.179  0.00  0.00     0.304 C 
ATOM      2  N   UNL d   1      32.053  18.141 -24.238  0.00  0.00    -0.266 N 
ATOM      3  N   UNL d   1      30.675  17.236 -24.362  0.00  0.00    -0.301 N 
ATOM      4  O   UNL d   1      33.157  18.795 -24.858  0.00  0.00    -0.263 OA
ATOM      5  C   UNL d   1      31.785  17.894 -24.977  0.00  0.00     0.102 A 
ATOM      6  C   UNL d   1      31.639  17.942 -23.557  0.00  0.00     0.102 A 
ATOM      7  C   UNL d   1      30.952  17.490 -23.620  0.00  0.00     0.100 A 
ATOM      8  C   UNL d   1      31.101  17.444 -25.042  0.00  0.00     0.100 A 
ENDROOT
BRANCH   1   9
ATOM      9  C   UNL d   1      33.009  18.842 -23.433  0.00  0.00     0.253 C 
ATOM     10  O   UNL d   1      33.192  18.281 -22.855  0.00  0.00    -0.281 OA
BRANCH   9  11
ATOM     11  C   UNL d   1      33.093  19.643 -23.277  0.00  0.00     0.064 A 
ATOM     12  C   UNL d   1      33.173  20.252 -23.830  0.00  0.00     0.102 A 
ATOM     13  N   UNL d   1      33.241  20.968 -23.432  0.00  0.00    -0.244 NA
ATOM     14  C   UNL d   1      33.204  20.808 -22.623  0.00  0.00     0.082 A 
ATOM     15  C   UNL d   1      33.112  19.991 -22.528  0.00  0.00     0.022 A 
ATOM     16  C   UNL d   1      33.241  21.299 -21.963  0.00  0.00     0.019 A 
ATOM     17  C   UNL d   1      33.059  19.669 -21.772  0.00  0.00     0.002 A 
ATOM     18  C   UNL d   1      33.097  20.167 -21.105  0.00  0.00     0.000 A 
ATOM     19  C   UNL d   1      33.187  20.977 -21.207  0.00  0.00     0.002 A 
ENDBRANCH   9  11
ENDBRANCH   1   9
BRANCH   3  20
ATOM     20  C   UNL d   1      29.993  16.788 -24.429  0.00  0.00     0.064 A 
ATOM     21  C   UNL d   1      30.030  16.006 -24.688  0.00  0.00     0.020 A 
ATOM     22  C   UNL d   1      29.332  15.562 -24.752  0.00  0.00     0.031 A 
ATOM     23  C   UNL d   1      28.602  15.901 -24.558  0.00  0.00     0.140 A 
ATOM     24  C   UNL d   1      28.567  16.689 -24.297  0.00  0.00     0.031 A 
ATOM     25  F   UNL d   1      27.913  15.453 -24.624  0.00  0.00    -0.204 F 
ATOM     26  C   UNL d   1      29.259  17.126 -24.235  0.00  0.00     0.020 A 
ENDBRANCH   3  20
TORSDOF 3
ENDMDL
