MODEL 1
REMARK VINA RESULT:      76.4      0.000      0.000
REMARK  4 active torsions:
REMARK  status: ('A' for Active; 'I' for Inactive)
REMARK    1  A    between atoms: N_10  and  C_3 
REMARK    2  A    between atoms: C_11  and  C_4 
REMARK    3  A    between atoms: C_17  and  N_10 
REMARK       I    between atoms: C_12  and  N_13 
REMARK    4  A    between atoms: N_13  and  C_18 
ROOT
ATOM      1  C   UNL d   1     -51.267  26.522  33.377  0.00  0.00     0.168 A 
ATOM      2  N   UNL d   1     -50.738  27.176  33.396  0.00  0.00    -0.184 N 
ATOM      3  C   UNL d   1     -51.040  27.913  33.389  0.00  0.00     0.218 A 
ATOM      4  C   UNL d   1     -50.980  25.775  33.384  0.00  0.00     0.057 A 
ATOM      5  N   UNL d   1     -49.655  26.282  33.429  0.00  0.00    -0.160 NA
ATOM      6  N   UNL d   1     -52.061  26.651  33.351  0.00  0.00    -0.227 NA
ATOM      7  C   UNL d   1     -51.841  28.053  33.363  0.00  0.00     0.071 A 
ATOM      8  C   UNL d   1     -50.168  25.649  33.410  0.00  0.00     0.124 A 
ATOM      9  C   UNL d   1     -52.362  27.409  33.344  0.00  0.00     0.087 A 
ATOM     10  C   UNL d   1     -53.200  27.545  33.316  0.00  0.00     0.021 C 
ENDROOT
BRANCH   3  11
ATOM     11  N   UNL d   1     -50.510  28.576  33.408  0.00  0.00    -0.383 NA
BRANCH  11  12
ATOM     12  C   UNL d   1     -49.990  29.221  33.536  0.00  0.00     0.134 A 
ATOM     13  C   UNL d   1     -50.213  29.998  33.336  0.00  0.00     0.034 A 
ATOM     14  C   UNL d   1     -49.673  30.650  33.471  0.00  0.00     0.022 A 
ATOM     15  C   UNL d   1     -48.915  30.508  33.806  0.00  0.00     0.085 A 
ATOM     16  C   UNL d   1     -48.683  29.721  34.011  0.00  0.00     0.022 A 
ATOM     17  C   UNL d   1     -49.218  29.068  33.878  0.00  0.00     0.034 A 
BRANCH  15  18
ATOM     18  N   UNL d   1     -48.383  31.152  33.939  0.00  0.00    -0.208 NA
ATOM     19  C   UNL d   1     -47.826  31.120  34.573  0.00  0.00     0.279 C 
ATOM     20  O   UNL d   1     -47.299  31.755  34.706  0.00  0.00    -0.265 OA
ATOM     21  C   UNL d   1     -47.800  30.441  35.076  0.00  0.00     0.068 C 
ENDBRANCH  15  18
ENDBRANCH  11  12
ENDBRANCH   3  11
BRANCH   4  22
ATOM     22  C   UNL d   1     -51.492  25.141  33.365  0.00  0.00     0.005 A 
ATOM     23  C   UNL d   1     -52.287  25.269  33.354  0.00  0.00     0.001 A 
ATOM     24  C   UNL d   1     -52.799  24.636  33.335  0.00  0.00     0.011 A 
ATOM     25  C   UNL d   1     -52.508  23.885  33.327  0.00  0.00     0.058 A 
ATOM     26  C   UNL d   1     -51.705  23.768  33.339  0.00  0.00     0.011 A 
ATOM     27 CL   UNL d   1     -53.044  23.222  33.308  0.00  0.00    -0.082 Cl
ATOM     28  C   UNL d   1     -51.202  24.391  33.358  0.00  0.00     0.001 A 
ENDBRANCH   4  22
TORSDOF 4
ENDMDL
MODEL 2
REMARK VINA RESULT:      77.6      1.440      1.676
REMARK  4 active torsions:
REMARK  status: ('A' for Active; 'I' for Inactive)
REMARK    1  A    between atoms: N_10  and  C_3 
REMARK    2  A    between atoms: C_11  and  C_4 
REMARK    3  A    between atoms: C_17  and  N_10 
REMARK       I    between atoms: C_12  and  N_13 
REMARK    4  A    between atoms: N_13  and  C_18 
ROOT
ATOM      1  C   UNL d   1     -50.555  26.008  34.188  0.00  0.00     0.168 A 
ATOM      2  N   UNL d   1     -49.913  26.542  34.289  0.00  0.00    -0.184 N 
ATOM      3  C   UNL d   1     -50.006  27.166  34.774  0.00  0.00     0.218 A 
ATOM      4  C   UNL d   1     -50.477  25.375  33.704  0.00  0.00     0.057 A 
ATOM      5  N   UNL d   1     -49.146  25.766  33.403  0.00  0.00    -0.160 NA
ATOM      6  N   UNL d   1     -51.246  26.136  34.580  0.00  0.00    -0.227 NA
ATOM      7  C   UNL d   1     -50.702  27.303  35.174  0.00  0.00     0.071 A 
ATOM      8  C   UNL d   1     -49.768  25.249  33.306  0.00  0.00     0.124 A 
ATOM      9  C   UNL d   1     -51.334  26.778  35.075  0.00  0.00     0.087 A 
ATOM     10  C   UNL d   1     -52.063  26.913  35.488  0.00  0.00     0.021 C 
ENDROOT
BRANCH   3  11
ATOM     11  N   UNL d   1     -49.361  27.708  34.879  0.00  0.00    -0.383 NA
BRANCH  11  12
ATOM     12  C   UNL d   1     -48.794  28.306  35.036  0.00  0.00     0.134 A 
ATOM     13  C   UNL d   1     -48.529  28.813  34.431  0.00  0.00     0.034 A 
ATOM     14  C   UNL d   1     -47.949  29.422  34.602  0.00  0.00     0.022 A 
ATOM     15  C   UNL d   1     -47.647  29.509  35.382  0.00  0.00     0.085 A 
ATOM     16  C   UNL d   1     -47.913  28.997  36.000  0.00  0.00     0.022 A 
ATOM     17  C   UNL d   1     -48.490  28.390  35.833  0.00  0.00     0.034 A 
BRANCH  15  18
ATOM     18  N   UNL d   1     -47.075  30.110  35.549  0.00  0.00    -0.208 NA
ATOM     19  C   UNL d   1     -47.290  30.925  35.507  0.00  0.00     0.279 C 
ATOM     20  O   UNL d   1     -46.728  31.521  35.672  0.00  0.00    -0.265 OA
ATOM     21  C   UNL d   1     -48.081  31.142  35.296  0.00  0.00     0.068 C 
ENDBRANCH  15  18
ENDBRANCH  11  12
ENDBRANCH   3  11
BRANCH   4  22
ATOM     22  C   UNL d   1     -51.099  24.858  33.606  0.00  0.00     0.005 A 
ATOM     23  C   UNL d   1     -50.979  24.066  33.688  0.00  0.00     0.001 A 
ATOM     24  C   UNL d   1     -51.600  23.550  33.591  0.00  0.00     0.011 A 
ATOM     25  C   UNL d   1     -52.333  23.833  33.412  0.00  0.00     0.058 A 
ATOM     26  C   UNL d   1     -52.443  24.633  33.332  0.00  0.00     0.011 A 
ATOM     27 CL   UNL d   1     -52.984  23.291  33.310  0.00  0.00    -0.082 Cl
ATOM     28  C   UNL d   1     -51.831  25.141  33.428  0.00  0.00     0.001 A 
ENDBRANCH   4  22
TORSDOF 4
ENDMDL
