MODEL 1
REMARK VINA RESULT:      44.4      0.000      0.000
REMARK  3 active torsions:
REMARK  status: ('A' for Active; 'I' for Inactive)
REMARK    1  A    between atoms: N_2  and  S_1 
REMARK    2  A    between atoms: C_5  and  S_1 
REMARK    3  A    between atoms: C_4  and  C_3 
ROOT
ATOM      1  N   UNL d   1     -52.189  25.786  33.620  0.00  0.00    -0.223 N 
ATOM      2  C   UNL d   1     -52.180  26.599  33.787  0.00  0.00     0.127 A 
ATOM      3  S   UNL d   1     -52.961  26.864  33.799  0.00  0.00    -0.065 SA
ATOM      4  C   UNL d   1     -52.975  25.552  33.529  0.00  0.00     0.099 A 
ATOM      5  C   UNL d   1     -53.453  26.215  33.639  0.00  0.00     0.057 A 
ENDROOT
BRANCH   1   6
ATOM      6  S   UNL d   1     -51.523  25.294  33.555  0.00  0.00     0.272 S 
ATOM      7  O   UNL d   1     -50.807  25.601  33.309  0.00  0.00    -0.200 OA
ATOM      8  O   UNL d   1     -51.595  24.494  33.741  0.00  0.00    -0.200 OA
BRANCH   6   9
ATOM      9  C   UNL d   1     -50.888  24.772  33.504  0.00  0.00     0.104 A 
ATOM     10  C   UNL d   1     -50.127  25.054  33.371  0.00  0.00     0.014 A 
ATOM     11  C   UNL d   1     -49.495  24.532  33.320  0.00  0.00     0.012 A 
ATOM     12  C   UNL d   1     -49.623  23.719  33.403  0.00  0.00     0.058 A 
ATOM     13  C   UNL d   1     -50.395  23.435  33.538  0.00  0.00     0.012 A 
ATOM     14 CL   UNL d   1     -48.993  23.193  33.353  0.00  0.00    -0.082 Cl
ATOM     15  C   UNL d   1     -51.023  23.964  33.587  0.00  0.00     0.014 A 
ENDBRANCH   6   9
ENDBRANCH   1   6
BRANCH   2  16
ATOM     16  C   UNL d   1     -51.513  27.058  33.918  0.00  0.00     0.123 A 
ATOM     17  O   UNL d   1     -51.112  27.506  33.352  0.00  0.00    -0.303 OA
ATOM     18  C   UNL d   1     -50.477  27.877  33.722  0.00  0.00     0.123 A 
ATOM     19  C   UNL d   1     -50.481  27.661  34.519  0.00  0.00     0.029 A 
ATOM     20  C   UNL d   1     -51.124  27.154  34.638  0.00  0.00     0.029 A 
ENDBRANCH   2  16
TORSDOF 3
ENDMDL
