MODEL 1
REMARK VINA RESULT:      -7.9      0.000      0.000
REMARK  2 active torsions:
REMARK  status: ('A' for Active; 'I' for Inactive)
REMARK    1  A    between atoms: C_5  and  N_1 
REMARK    2  A    between atoms: O_14  and  C_11 
ROOT
ATOM      1  C   UNL d   1      53.776  32.205  53.843  0.00  0.00     0.069 A 
ATOM      2  C   UNL d   1      54.404  32.574  53.453  0.00  0.00     0.020 A 
ATOM      3  C   UNL d   1      53.668  32.361  54.662  0.00  0.00     0.020 A 
ATOM      4  C   UNL d   1      54.810  33.233  54.637  0.00  0.00     0.094 A 
ATOM      5  C   UNL d   1      54.914  33.083  53.854  0.00  0.00     0.026 A 
ATOM      6  C   UNL d   1      54.182  32.873  55.060  0.00  0.00     0.026 A 
ENDROOT
BRANCH   1   7
ATOM      7  N   UNL d   1      53.277  31.696  53.419  0.00  0.00    -0.249 N 
ATOM      8  C   UNL d   1      52.606  31.925  52.998  0.00  0.00     0.208 A 
ATOM      9  N   UNL d   1      52.287  31.213  52.664  0.00  0.00    -0.212 NA
ATOM     10  S   UNL d   1      52.308  32.705  52.922  0.00  0.00    -0.038 SA
ATOM     11  C   UNL d   1      52.781  30.597  52.901  0.00  0.00     0.162 A 
ATOM     12  C   UNL d   1      53.389  30.904  53.366  0.00  0.00     0.286 A 
ATOM     13  O   UNL d   1      54.021  30.470  53.726  0.00  0.00    -0.265 OA
ENDBRANCH   1   7
BRANCH   4  14
ATOM     14  O   UNL d   1      55.334  33.746  55.012  0.00  0.00    -0.328 OA
ATOM     15  C   UNL d   1      55.154  34.045  55.758  0.00  0.00     0.181 C 
ENDBRANCH   4  14
TORSDOF 2
ENDMDL
MODEL 2
REMARK VINA RESULT:      -7.8      2.427      3.523
REMARK  2 active torsions:
REMARK  status: ('A' for Active; 'I' for Inactive)
REMARK    1  A    between atoms: C_5  and  N_1 
REMARK    2  A    between atoms: O_14  and  C_11 
ROOT
ATOM      1  C   UNL d   1      52.913  33.782  53.798  0.00  0.00     0.069 A 
ATOM      2  C   UNL d   1      52.919  34.409  53.260  0.00  0.00     0.020 A 
ATOM      3  C   UNL d   1      52.218  33.313  53.857  0.00  0.00     0.020 A 
ATOM      4  C   UNL d   1      51.595  34.124  52.848  0.00  0.00     0.094 A 
ATOM      5  C   UNL d   1      52.260  34.573  52.791  0.00  0.00     0.026 A 
ATOM      6  C   UNL d   1      51.560  33.482  53.385  0.00  0.00     0.026 A 
ENDROOT
BRANCH   1   7
ATOM      7  N   UNL d   1      53.587  33.636  54.259  0.00  0.00    -0.249 N 
ATOM      8  C   UNL d   1      54.148  33.049  54.114  0.00  0.00     0.208 A 
ATOM      9  N   UNL d   1      54.724  33.122  54.733  0.00  0.00    -0.212 NA
ATOM     10  S   UNL d   1      54.141  32.499  53.481  0.00  0.00    -0.038 SA
ATOM     11  C   UNL d   1      54.480  33.745  55.214  0.00  0.00     0.162 A 
ATOM     12  C   UNL d   1      53.778  34.056  54.915  0.00  0.00     0.286 A 
ATOM     13  O   UNL d   1      53.332  34.701  55.233  0.00  0.00    -0.265 OA
ENDBRANCH   1   7
BRANCH   4  14
ATOM     14  O   UNL d   1      50.953  34.311  52.367  0.00  0.00    -0.328 OA
ATOM     15  C   UNL d   1      50.200  34.378  52.694  0.00  0.00     0.181 C 
ENDBRANCH   4  14
TORSDOF 2
ENDMDL
MODEL 3
REMARK VINA RESULT:      -7.6      2.118      3.476
REMARK  2 active torsions:
REMARK  status: ('A' for Active; 'I' for Inactive)
REMARK    1  A    between atoms: C_5  and  N_1 
REMARK    2  A    between atoms: O_14  and  C_11 
ROOT
ATOM      1  C   UNL d   1      53.058  33.312  53.642  0.00  0.00     0.069 A 
ATOM      2  C   UNL d   1      52.315  32.958  53.574  0.00  0.00     0.020 A 
ATOM      3  C   UNL d   1      53.727  32.895  53.348  0.00  0.00     0.020 A 
ATOM      4  C   UNL d   1      52.867  31.816  52.946  0.00  0.00     0.094 A 
ATOM      5  C   UNL d   1      52.227  32.214  53.227  0.00  0.00     0.026 A 
ATOM      6  C   UNL d   1      53.634  32.150  53.001  0.00  0.00     0.026 A 
ENDROOT
BRANCH   1   7
ATOM      7  N   UNL d   1      53.121  34.059  53.995  0.00  0.00    -0.249 N 
ATOM      8  C   UNL d   1      53.472  34.216  54.724  0.00  0.00     0.208 A 
ATOM      9  N   UNL d   1      53.400  35.054  54.840  0.00  0.00    -0.212 NA
ATOM     10  S   UNL d   1      53.824  33.656  55.238  0.00  0.00    -0.038 SA
ATOM     11  C   UNL d   1      53.012  35.354  54.178  0.00  0.00     0.162 A 
ATOM     12  C   UNL d   1      52.844  34.734  53.662  0.00  0.00     0.286 A 
ATOM     13  O   UNL d   1      52.451  34.789  52.914  0.00  0.00    -0.265 OA
ENDBRANCH   1   7
BRANCH   4  14
ATOM     14  O   UNL d   1      52.750  31.076  52.605  0.00  0.00    -0.328 OA
ATOM     15  C   UNL d   1      52.855  30.393  53.054  0.00  0.00     0.181 C 
ENDBRANCH   4  14
TORSDOF 2
ENDMDL
