MODEL 1
REMARK VINA RESULT:       9.1      0.000      0.000
REMARK  4 active torsions:
REMARK  status: ('A' for Active; 'I' for Inactive)
REMARK    1  A    between atoms: C_5  and  S_1 
REMARK    2  A    between atoms: N_8  and  S_1 
REMARK    3  A    between atoms: C_6  and  C_14 
REMARK    4  A    between atoms: C_14  and  N_8 
ROOT
ATOM      1  N   UNL d   1      46.192 -17.280  43.865  0.00  0.00    -0.155 NA
ENDROOT
BRANCH   1   2
ATOM      2  S   UNL d   1      46.311 -18.089  43.799  0.00  0.00     0.291 S 
ATOM      3  O   UNL d   1      46.277 -17.993  42.976  0.00  0.00    -0.198 OA
ATOM      4  O   UNL d   1      46.343 -18.173  44.618  0.00  0.00    -0.198 OA
BRANCH   2   5
ATOM      5  C   UNL d   1      46.432 -18.918  43.726  0.00  0.00     0.135 A 
ATOM      6  S   UNL d   1      46.549 -19.329  43.019  0.00  0.00    -0.073 SA
ATOM      7  C   UNL d   1      46.647 -20.146  43.204  0.00  0.00     0.036 A 
ATOM      8  C   UNL d   1      46.589 -20.227  44.035  0.00  0.00     0.008 A 
ATOM      9  C   UNL d   1      46.455 -19.467  44.367  0.00  0.00     0.020 A 
ENDBRANCH   2   5
ENDBRANCH   1   2
BRANCH   1  10
ATOM     10  C   UNL d   1      45.954 -16.958  44.580  0.00  0.00     0.133 C 
BRANCH  10  11
ATOM     11  C   UNL d   1      45.770 -16.160  44.634  0.00  0.00     0.121 A 
ATOM     12  N   UNL d   1      46.279 -15.535  44.483  0.00  0.00    -0.219 NA
ATOM     13  C   UNL d   1      45.868 -14.833  44.604  0.00  0.00     0.180 A 
ATOM     14  S   UNL d   1      45.924 -14.014  44.587  0.00  0.00    -0.048 SA
ATOM     15  N   UNL d   1      45.092 -15.027  44.835  0.00  0.00    -0.282 N 
ATOM     16  C   UNL d   1      45.191 -13.703  44.804  0.00  0.00     0.057 A 
ATOM     17  C   UNL d   1      44.686 -14.328  44.954  0.00  0.00     0.089 A 
ATOM     18  C   UNL d   1      45.037 -15.850  44.852  0.00  0.00     0.103 A 
ENDBRANCH  10  11
ENDBRANCH   1  10
TORSDOF 4
ENDMDL
MODEL 2
REMARK VINA RESULT:      10.1      1.254      4.470
REMARK  4 active torsions:
REMARK  status: ('A' for Active; 'I' for Inactive)
REMARK    1  A    between atoms: C_5  and  S_1 
REMARK    2  A    between atoms: N_8  and  S_1 
REMARK    3  A    between atoms: C_6  and  C_14 
REMARK    4  A    between atoms: C_14  and  N_8 
ROOT
ATOM      1  N   UNL d   1      45.601 -16.548  44.382  0.00  0.00    -0.155 NA
ENDROOT
BRANCH   1   2
ATOM      2  S   UNL d   1      45.550 -15.737  44.491  0.00  0.00     0.291 S 
ATOM      3  O   UNL d   1      44.853 -15.872  44.919  0.00  0.00    -0.198 OA
ATOM      4  O   UNL d   1      46.243 -15.614  44.063  0.00  0.00    -0.198 OA
BRANCH   2   5
ATOM      5  C   UNL d   1      45.494 -14.906  44.605  0.00  0.00     0.135 A 
ATOM      6  S   UNL d   1      44.860 -14.508  44.955  0.00  0.00    -0.073 SA
ATOM      7  C   UNL d   1      45.036 -13.683  44.955  0.00  0.00     0.036 A 
ATOM      8  C   UNL d   1      45.787 -13.583  44.599  0.00  0.00     0.008 A 
ATOM      9  C   UNL d   1      46.078 -14.340  44.378  0.00  0.00     0.020 A 
ENDBRANCH   2   5
ENDBRANCH   1   2
BRANCH   1  10
ATOM     10  C   UNL d   1      46.289 -16.879  44.081  0.00  0.00     0.133 C 
BRANCH  10  11
ATOM     11  C   UNL d   1      46.323 -17.681  43.913  0.00  0.00     0.121 A 
ATOM     12  N   UNL d   1      46.328 -18.019  43.166  0.00  0.00    -0.219 NA
ATOM     13  C   UNL d   1      46.366 -18.836  43.252  0.00  0.00     0.180 A 
ATOM     14  S   UNL d   1      46.393 -19.550  42.849  0.00  0.00    -0.048 SA
ATOM     15  N   UNL d   1      46.385 -19.007  44.067  0.00  0.00    -0.282 N 
ATOM     16  C   UNL d   1      46.428 -20.158  43.407  0.00  0.00     0.057 A 
ATOM     17  C   UNL d   1      46.423 -19.818  44.150  0.00  0.00     0.089 A 
ATOM     18  C   UNL d   1      46.358 -18.288  44.471  0.00  0.00     0.103 A 
ENDBRANCH  10  11
ENDBRANCH   1  10
TORSDOF 4
ENDMDL
