MODEL 1
REMARK VINA RESULT:      52.6      0.000      0.000
REMARK  4 active torsions:
REMARK  status: ('A' for Active; 'I' for Inactive)
REMARK    1  A    between atoms: C_15  and  O_20 
REMARK    2  A    between atoms: C_16  and  O_21 
REMARK    3  A    between atoms: O_20  and  C_18 
REMARK    4  A    between atoms: O_21  and  C_19 
ROOT
ATOM      1  C   UNL d   1     -58.523 -98.778 -44.819  0.00  0.00     0.161 A 
ATOM      2  O   UNL d   1     -59.262 -98.780 -44.644  0.00  0.00    -0.291 OA
ATOM      3  C   UNL d   1     -58.823 -98.774 -45.591  0.00  0.00     0.033 A 
ATOM      4  C   UNL d   1     -57.707 -98.777 -44.696  0.00  0.00     0.033 A 
ATOM      5  C   UNL d   1     -58.099 -98.781 -44.078  0.00  0.00     0.016 A 
ATOM      6  C   UNL d   1     -59.318 -98.784 -44.010  0.00  0.00     0.296 A 
ATOM      7  C   UNL d   1     -58.303 -98.769 -46.239  0.00  0.00     0.101 A 
ATOM      8  C   UNL d   1     -57.187 -98.772 -45.345  0.00  0.00     0.101 A 
ATOM      9  O   UNL d   1     -57.484 -98.768 -46.114  0.00  0.00    -0.307 OA
ATOM     10  C   UNL d   1     -58.721 -98.785 -43.678  0.00  0.00     0.062 A 
ATOM     11  C   UNL d   1     -56.369 -98.771 -45.220  0.00  0.00     0.049 A 
ATOM     12  C   UNL d   1     -58.596 -98.765 -47.007  0.00  0.00     0.049 A 
ATOM     13  C   UNL d   1     -59.635 -98.774 -45.711  0.00  0.00     0.003 A 
ATOM     14  C   UNL d   1     -57.408 -98.781 -43.925  0.00  0.00     0.003 A 
ATOM     15  O   UNL d   1     -59.951 -98.787 -43.760  0.00  0.00    -0.259 OA
ATOM     16  C   UNL d   1     -56.069 -98.775 -44.448  0.00  0.00     0.105 A 
ATOM     17  C   UNL d   1     -59.415 -98.766 -47.131  0.00  0.00     0.105 A 
ATOM     18  C   UNL d   1     -59.935 -98.771 -46.483  0.00  0.00     0.025 A 
ATOM     19  C   UNL d   1     -56.589 -98.780 -43.800  0.00  0.00     0.025 A 
ATOM     20  C   UNL d   1     -57.375 -98.782 -43.729  0.00  0.00    -0.001 A 
ATOM     21  C   UNL d   1     -58.727 -98.789 -42.873  0.00  0.00     0.005 A 
ATOM     22  C   UNL d   1     -57.329 -98.787 -42.924  0.00  0.00    -0.000 A 
ATOM     23  C   UNL d   1     -58.009 -98.790 -42.499  0.00  0.00     0.000 A 
ENDROOT
BRANCH  17  24
ATOM     24  O   UNL d   1     -59.601 -98.763 -47.657  0.00  0.00    -0.273 OA
BRANCH  24  25
ATOM     25  C   UNL d   1     -59.610 -99.245 -48.070  0.00  0.00     0.300 C 
ATOM     26  O   UNL d   1     -59.812 -99.695 -47.781  0.00  0.00    -0.259 OA
ATOM     27  C   UNL d   1     -59.413 -99.232 -48.741  0.00  0.00     0.074 C 
ENDBRANCH  24  25
ENDBRANCH  17  24
BRANCH  16  28
ATOM     28  O   UNL d   1     -55.507 -98.775 -44.374  0.00  0.00    -0.273 OA
BRANCH  28  29
ATOM     29  C   UNL d   1     -55.043 -99.056 -44.418  0.00  0.00     0.300 C 
ATOM     30  O   UNL d   1     -54.733 -98.756 -44.875  0.00  0.00    -0.259 OA
ATOM     31  C   UNL d   1     -54.859 -99.569 -44.086  0.00  0.00     0.074 C 
ENDBRANCH  28  29
ENDBRANCH  16  28
TORSDOF 4
ENDMDL
