MODEL 1
REMARK VINA RESULT:     -10.1      0.000      0.000
REMARK  4 active torsions:
REMARK  status: ('A' for Active; 'I' for Inactive)
REMARK    1  A    between atoms: N_10  and  C_2 
REMARK    2  A    between atoms: N_11  and  C_6 
REMARK    3  A    between atoms: C_12  and  N_11 
REMARK    4  A    between atoms: O_19  and  C_15 
ROOT
ATOM      1  N   UNL d   1      52.766  33.928  54.011  0.00  0.00    -0.041 NA
ATOM      2  C   UNL d   1      52.469  33.490  53.435  0.00  0.00     0.738 A 
ATOM      3  C   UNL d   1      53.441  33.721  54.350  0.00  0.00     0.187 A 
ATOM      4  N   UNL d   1      52.848  32.843  53.195  0.00  0.00    -0.041 NA
ATOM      5  C   UNL d   1      53.823  33.075  54.113  0.00  0.00     0.094 A 
ATOM      6  C   UNL d   1      53.527  32.629  53.531  0.00  0.00     0.185 A 
ATOM      7  N   UNL d   1      54.423  33.955  55.276  0.00  0.00    -0.162 NA
ATOM      8  N   UNL d   1      53.736  34.166  54.932  0.00  0.00    -0.208 N 
ATOM      9  C   UNL d   1      54.803  33.307  55.037  0.00  0.00     0.127 A 
ATOM     10  C   UNL d   1      53.359  34.811  55.170  0.00  0.00     0.123 C 
ENDROOT
BRANCH   6  11
ATOM     11  N   UNL d   1      53.916  31.954  53.276  0.00  0.00    -0.226 NA
BRANCH  11  12
ATOM     12  C   UNL d   1      53.548  31.221  53.322  0.00  0.00     0.085 A 
ATOM     13  C   UNL d   1      53.615  30.752  54.006  0.00  0.00     0.043 A 
ATOM     14  C   UNL d   1      53.247  30.015  54.053  0.00  0.00     0.096 A 
ATOM     15  C   UNL d   1      52.801  29.739  53.407  0.00  0.00     0.024 A 
ATOM     16  C   UNL d   1      52.731  30.199  52.729  0.00  0.00     0.004 A 
ATOM     17  C   UNL d   1      53.105  30.941  52.686  0.00  0.00     0.019 A 
BRANCH  14  18
ATOM     18  O   UNL d   1      53.316  29.553  54.733  0.00  0.00    -0.328 OA
ATOM     19  C   UNL d   1      53.340  28.735  54.870  0.00  0.00     0.181 C 
ENDBRANCH  14  18
ENDBRANCH  11  12
ENDBRANCH   6  11
BRANCH   2  20
ATOM     20  N   UNL d   1      51.753  33.706  53.073  0.00  0.00    -0.133 N 
ATOM     21  C   UNL d   1      51.035  33.508  53.424  0.00  0.00     0.125 A 
ATOM     22  C   UNL d   1      50.323  33.724  53.062  0.00  0.00     0.142 A 
ATOM     23  O   UNL d   1      50.330  34.141  52.342  0.00  0.00    -0.300 OA
ATOM     24  C   UNL d   1      51.053  34.341  51.988  0.00  0.00     0.142 A 
ATOM     25  C   UNL d   1      51.764  34.124  52.353  0.00  0.00     0.125 A 
ENDBRANCH   2  20
TORSDOF 4
ENDMDL
MODEL 2
REMARK VINA RESULT:      -8.3      1.384      4.102
REMARK  4 active torsions:
REMARK  status: ('A' for Active; 'I' for Inactive)
REMARK    1  A    between atoms: N_10  and  C_2 
REMARK    2  A    between atoms: N_11  and  C_6 
REMARK    3  A    between atoms: C_12  and  N_11 
REMARK    4  A    between atoms: O_19  and  C_15 
ROOT
ATOM      1  N   UNL d   1      53.825  31.606  54.120  0.00  0.00    -0.041 NA
ATOM      2  C   UNL d   1      53.849  32.382  54.023  0.00  0.00     0.738 A 
ATOM      3  C   UNL d   1      53.377  31.168  53.649  0.00  0.00     0.187 A 
ATOM      4  N   UNL d   1      53.424  32.723  53.454  0.00  0.00    -0.041 NA
ATOM      5  C   UNL d   1      52.950  31.505  53.079  0.00  0.00     0.094 A 
ATOM      6  C   UNL d   1      52.972  32.289  52.978  0.00  0.00     0.185 A 
ATOM      7  N   UNL d   1      52.900  29.941  53.271  0.00  0.00    -0.162 NA
ATOM      8  N   UNL d   1      53.356  30.385  53.750  0.00  0.00    -0.208 N 
ATOM      9  C   UNL d   1      52.475  30.281  52.702  0.00  0.00     0.127 A 
ATOM     10  C   UNL d   1      53.778  30.046  54.317  0.00  0.00     0.123 C 
ENDROOT
BRANCH   6  11
ATOM     11  N   UNL d   1      52.533  32.651  52.387  0.00  0.00    -0.226 NA
BRANCH  11  12
ATOM     12  C   UNL d   1      52.130  33.350  52.539  0.00  0.00     0.085 A 
ATOM     13  C   UNL d   1      51.329  33.341  52.763  0.00  0.00     0.043 A 
ATOM     14  C   UNL d   1      50.922  34.043  52.916  0.00  0.00     0.096 A 
ATOM     15  C   UNL d   1      51.322  34.769  52.845  0.00  0.00     0.024 A 
ATOM     16  C   UNL d   1      52.113  34.784  52.625  0.00  0.00     0.004 A 
ATOM     17  C   UNL d   1      52.519  34.073  52.472  0.00  0.00     0.019 A 
BRANCH  14  18
ATOM     18  O   UNL d   1      50.128  34.030  53.137  0.00  0.00    -0.328 OA
ATOM     19  C   UNL d   1      49.469  34.490  52.935  0.00  0.00     0.181 C 
ENDBRANCH  14  18
ENDBRANCH  11  12
ENDBRANCH   6  11
BRANCH   2  20
ATOM     20  N   UNL d   1      54.322  32.850  54.520  0.00  0.00    -0.133 N 
ATOM     21  C   UNL d   1      54.099  32.983  55.301  0.00  0.00     0.125 A 
ATOM     22  C   UNL d   1      54.571  33.449  55.794  0.00  0.00     0.142 A 
ATOM     23  O   UNL d   1      55.274  33.785  55.503  0.00  0.00    -0.300 OA
ATOM     24  C   UNL d   1      55.501  33.653  54.717  0.00  0.00     0.142 A 
ATOM     25  C   UNL d   1      55.025  33.185  54.225  0.00  0.00     0.125 A 
ENDBRANCH   2  20
TORSDOF 4
ENDMDL
MODEL 3
REMARK VINA RESULT:      -8.1      1.460      2.749
REMARK  4 active torsions:
REMARK  status: ('A' for Active; 'I' for Inactive)
REMARK    1  A    between atoms: N_10  and  C_2 
REMARK    2  A    between atoms: N_11  and  C_6 
REMARK    3  A    between atoms: C_12  and  N_11 
REMARK    4  A    between atoms: O_19  and  C_15 
ROOT
ATOM      1  N   UNL d   1      53.060  33.892  53.787  0.00  0.00    -0.041 NA
ATOM      2  C   UNL d   1      53.583  33.328  53.929  0.00  0.00     0.738 A 
ATOM      3  C   UNL d   1      52.499  33.777  53.253  0.00  0.00     0.187 A 
ATOM      4  N   UNL d   1      53.546  32.646  53.536  0.00  0.00    -0.041 NA
ATOM      5  C   UNL d   1      52.458  33.097  52.858  0.00  0.00     0.094 A 
ATOM      6  C   UNL d   1      52.986  32.525  52.998  0.00  0.00     0.185 A 
ATOM      7  N   UNL d   1      51.402  34.232  52.569  0.00  0.00    -0.162 NA
ATOM      8  N   UNL d   1      51.972  34.349  53.113  0.00  0.00    -0.208 N 
ATOM      9  C   UNL d   1      51.365  33.550  52.176  0.00  0.00     0.127 A 
ATOM     10  C   UNL d   1      52.009  35.027  53.504  0.00  0.00     0.123 C 
ENDROOT
BRANCH   6  11
ATOM     11  N   UNL d   1      52.953  31.813  52.593  0.00  0.00    -0.226 NA
BRANCH  11  12
ATOM     12  C   UNL d   1      52.754  31.120  52.986  0.00  0.00     0.085 A 
ATOM     13  C   UNL d   1      53.344  30.608  53.274  0.00  0.00     0.043 A 
ATOM     14  C   UNL d   1      53.146  29.911  53.669  0.00  0.00     0.096 A 
ATOM     15  C   UNL d   1      52.344  29.720  53.782  0.00  0.00     0.024 A 
ATOM     16  C   UNL d   1      51.758  30.222  53.500  0.00  0.00     0.004 A 
ATOM     17  C   UNL d   1      51.962  30.923  53.102  0.00  0.00     0.019 A 
BRANCH  14  18
ATOM     18  O   UNL d   1      53.733  29.406  53.953  0.00  0.00    -0.328 OA
ATOM     19  C   UNL d   1      53.747  28.809  54.528  0.00  0.00     0.181 C 
ENDBRANCH  14  18
ENDBRANCH  11  12
ENDBRANCH   6  11
BRANCH   2  20
ATOM     20  N   UNL d   1      54.180  33.445  54.495  0.00  0.00    -0.133 N 
ATOM     21  C   UNL d   1      54.035  33.284  55.290  0.00  0.00     0.125 A 
ATOM     22  C   UNL d   1      54.631  33.401  55.851  0.00  0.00     0.142 A 
ATOM     23  O   UNL d   1      55.378  33.683  55.616  0.00  0.00    -0.300 OA
ATOM     24  C   UNL d   1      55.524  33.846  54.817  0.00  0.00     0.142 A 
ATOM     25  C   UNL d   1      54.925  33.727  54.256  0.00  0.00     0.125 A 
ENDBRANCH   2  20
TORSDOF 4
ENDMDL
MODEL 4
REMARK VINA RESULT:      -7.8      1.029      3.732
REMARK  4 active torsions:
REMARK  status: ('A' for Active; 'I' for Inactive)
REMARK    1  A    between atoms: N_10  and  C_2 
REMARK    2  A    between atoms: N_11  and  C_6 
REMARK    3  A    between atoms: C_12  and  N_11 
REMARK    4  A    between atoms: O_19  and  C_15 
ROOT
ATOM      1  N   UNL d   1      53.451  32.654  54.196  0.00  0.00    -0.041 NA
ATOM      2  C   UNL d   1      53.088  32.457  53.532  0.00  0.00     0.738 A 
ATOM      3  C   UNL d   1      53.509  33.407  54.401  0.00  0.00     0.187 A 
ATOM      4  N   UNL d   1      52.779  33.016  53.070  0.00  0.00    -0.041 NA
ATOM      5  C   UNL d   1      53.202  33.969  53.942  0.00  0.00     0.094 A 
ATOM      6  C   UNL d   1      52.834  33.774  53.270  0.00  0.00     0.185 A 
ATOM      7  N   UNL d   1      53.935  34.368  55.280  0.00  0.00    -0.162 NA
ATOM      8  N   UNL d   1      53.877  33.601  55.073  0.00  0.00    -0.208 N 
ATOM      9  C   UNL d   1      53.627  34.927  54.818  0.00  0.00     0.127 A 
ATOM     10  C   UNL d   1      54.184  33.045  55.532  0.00  0.00     0.123 C 
ENDROOT
BRANCH   6  11
ATOM     11  N   UNL d   1      52.510  34.351  52.784  0.00  0.00    -0.226 NA
BRANCH  11  12
ATOM     12  C   UNL d   1      51.715  34.324  52.582  0.00  0.00     0.085 A 
ATOM     13  C   UNL d   1      51.131  34.597  53.108  0.00  0.00     0.043 A 
ATOM     14  C   UNL d   1      50.332  34.571  52.907  0.00  0.00     0.096 A 
ATOM     15  C   UNL d   1      50.107  34.268  52.165  0.00  0.00     0.024 A 
ATOM     16  C   UNL d   1      50.679  33.997  51.642  0.00  0.00     0.004 A 
ATOM     17  C   UNL d   1      51.485  34.025  51.849  0.00  0.00     0.019 A 
BRANCH  14  18
ATOM     18  O   UNL d   1      49.756  34.843  53.432  0.00  0.00    -0.328 OA
ATOM     19  C   UNL d   1      49.085  35.323  53.348  0.00  0.00     0.181 C 
ENDBRANCH  14  18
ENDBRANCH  11  12
ENDBRANCH   6  11
BRANCH   2  20
ATOM     20  N   UNL d   1      53.024  31.659  53.312  0.00  0.00    -0.133 N 
ATOM     21  C   UNL d   1      53.660  31.276  52.954  0.00  0.00     0.125 A 
ATOM     22  C   UNL d   1      53.595  30.481  52.735  0.00  0.00     0.142 A 
ATOM     23  O   UNL d   1      52.888  30.065  52.875  0.00  0.00    -0.300 OA
ATOM     24  C   UNL d   1      52.248  30.450  53.234  0.00  0.00     0.142 A 
ATOM     25  C   UNL d   1      52.316  31.246  53.453  0.00  0.00     0.125 A 
ENDBRANCH   2  20
TORSDOF 4
ENDMDL
MODEL 5
REMARK VINA RESULT:      -7.5      1.524      3.342
REMARK  4 active torsions:
REMARK  status: ('A' for Active; 'I' for Inactive)
REMARK    1  A    between atoms: N_10  and  C_2 
REMARK    2  A    between atoms: N_11  and  C_6 
REMARK    3  A    between atoms: C_12  and  N_11 
REMARK    4  A    between atoms: O_19  and  C_15 
ROOT
ATOM      1  N   UNL d   1      52.160  31.839  52.974  0.00  0.00    -0.041 NA
ATOM      2  C   UNL d   1      52.258  32.615  53.006  0.00  0.00     0.738 A 
ATOM      3  C   UNL d   1      52.758  31.363  53.143  0.00  0.00     0.187 A 
ATOM      4  N   UNL d   1      52.958  32.916  53.208  0.00  0.00    -0.041 NA
ATOM      5  C   UNL d   1      53.459  31.660  53.345  0.00  0.00     0.094 A 
ATOM      6  C   UNL d   1      53.563  32.443  53.379  0.00  0.00     0.185 A 
ATOM      7  N   UNL d   1      53.263  30.097  53.281  0.00  0.00    -0.162 NA
ATOM      8  N   UNL d   1      52.654  30.580  53.109  0.00  0.00    -0.208 N 
ATOM      9  C   UNL d   1      53.963  30.398  53.483  0.00  0.00     0.127 A 
ATOM     10  C   UNL d   1      51.958  30.281  52.908  0.00  0.00     0.123 C 
ENDROOT
BRANCH   6  11
ATOM     11  N   UNL d   1      54.288  32.764  53.588  0.00  0.00    -0.226 NA
BRANCH  11  12
ATOM     12  C   UNL d   1      54.353  33.247  54.249  0.00  0.00     0.085 A 
ATOM     13  C   UNL d   1      54.137  34.050  54.213  0.00  0.00     0.043 A 
ATOM     14  C   UNL d   1      54.202  34.537  54.876  0.00  0.00     0.096 A 
ATOM     15  C   UNL d   1      54.487  34.219  55.590  0.00  0.00     0.024 A 
ATOM     16  C   UNL d   1      54.701  33.427  55.631  0.00  0.00     0.004 A 
ATOM     17  C   UNL d   1      54.634  32.939  54.960  0.00  0.00     0.019 A 
BRANCH  14  18
ATOM     18  O   UNL d   1      53.987  35.333  54.836  0.00  0.00    -0.328 OA
ATOM     19  C   UNL d   1      53.260  35.729  54.794  0.00  0.00     0.181 C 
ENDBRANCH  14  18
ENDBRANCH  11  12
ENDBRANCH   6  11
BRANCH   2  20
ATOM     20  N   UNL d   1      51.627  33.124  52.828  0.00  0.00    -0.133 N 
ATOM     21  C   UNL d   1      50.988  33.188  53.345  0.00  0.00     0.125 A 
ATOM     22  C   UNL d   1      50.360  33.696  53.166  0.00  0.00     0.142 A 
ATOM     23  O   UNL d   1      50.371  34.142  52.464  0.00  0.00    -0.300 OA
ATOM     24  C   UNL d   1      51.013  34.078  51.943  0.00  0.00     0.142 A 
ATOM     25  C   UNL d   1      51.641  33.569  52.126  0.00  0.00     0.125 A 
ENDBRANCH   2  20
TORSDOF 4
ENDMDL
