MODEL 1
REMARK VINA RESULT:      -4.7      0.000      0.000
REMARK  6 active torsions:
REMARK  status: ('A' for Active; 'I' for Inactive)
REMARK    1  A    between atoms: S_9  and  C_3 
REMARK    2  A    between atoms: C_4  and  C_17 
REMARK       I    between atoms: N_8  and  C_4 
REMARK    3  A    between atoms: C_5  and  C_16 
REMARK    4  A    between atoms: C_14  and  C_6 
REMARK    5  A    between atoms: C_16  and  N_8 
REMARK    6  A    between atoms: C_17  and  S_9 
ROOT
ATOM      1  N   UNL d   1      56.560  -0.711  32.148  0.00  0.00    -0.148 NA
ATOM      2  N   UNL d   1      57.007  -0.855  31.469  0.00  0.00    -0.141 NA
ATOM      3  C   UNL d   1      57.383  -0.236  31.079  0.00  0.00     0.133 A 
ATOM      4  C   UNL d   1      56.495   0.066  32.432  0.00  0.00     0.103 A 
ATOM      5  C   UNL d   1      56.867   0.682  32.049  0.00  0.00     0.023 A 
ATOM      6  C   UNL d   1      57.312   0.543  31.373  0.00  0.00     0.029 A 
ENDROOT
BRANCH   3   7
ATOM      7  S   UNL d   1      57.826  -0.387  30.404  0.00  0.00    -0.061 SA
BRANCH   7   8
ATOM      8  C   UNL d   1      58.110  -1.145  30.261  0.00  0.00     0.099 C 
BRANCH   8   9
ATOM      9  C   UNL d   1      58.545  -1.306  29.577  0.00  0.00     0.286 C 
ATOM     10  N   UNL d   1      58.879  -2.045  29.466  0.00  0.00    -0.204 NA
ATOM     11  O   UNL d   1      58.640  -0.721  29.009  0.00  0.00    -0.265 OA
BRANCH  10  12
ATOM     12  C   UNL d   1      59.308  -2.206  28.792  0.00  0.00     0.127 C 
BRANCH  12  13
ATOM     13  C   UNL d   1      59.683  -2.932  28.706  0.00  0.00     0.119 A 
ATOM     14  O   UNL d   1      60.476  -3.090  28.846  0.00  0.00    -0.304 OA
ATOM     15  C   UNL d   1      60.614  -3.882  28.692  0.00  0.00     0.123 A 
ATOM     16  C   UNL d   1      59.904  -4.218  28.455  0.00  0.00     0.029 A 
ATOM     17  C   UNL d   1      59.323  -3.639  28.461  0.00  0.00     0.028 A 
ENDBRANCH  12  13
ENDBRANCH  10  12
ENDBRANCH   8   9
ENDBRANCH   7   8
ENDBRANCH   3   7
BRANCH   4  18
ATOM     18  C   UNL d   1      56.047   0.214  33.113  0.00  0.00     0.019 A 
ATOM     19  C   UNL d   1      55.218   0.103  33.111  0.00  0.00     0.002 A 
ATOM     20  C   UNL d   1      54.779   0.253  33.794  0.00  0.00     0.000 A 
ATOM     21  C   UNL d   1      55.150   0.510  34.476  0.00  0.00     0.000 A 
ATOM     22  C   UNL d   1      55.973   0.623  34.489  0.00  0.00     0.000 A 
ATOM     23  C   UNL d   1      56.415   0.475  33.809  0.00  0.00     0.002 A 
ENDBRANCH   4  18
TORSDOF 6
ENDMDL
MODEL 2
REMARK VINA RESULT:      -3.8      1.180      1.587
REMARK  6 active torsions:
REMARK  status: ('A' for Active; 'I' for Inactive)
REMARK    1  A    between atoms: S_9  and  C_3 
REMARK    2  A    between atoms: C_4  and  C_17 
REMARK       I    between atoms: N_8  and  C_4 
REMARK    3  A    between atoms: C_5  and  C_16 
REMARK    4  A    between atoms: C_14  and  C_6 
REMARK    5  A    between atoms: C_16  and  N_8 
REMARK    6  A    between atoms: C_17  and  S_9 
ROOT
ATOM      1  N   UNL d   1      55.885  -0.613  32.650  0.00  0.00    -0.148 NA
ATOM      2  N   UNL d   1      56.338  -0.802  31.986  0.00  0.00    -0.141 NA
ATOM      3  C   UNL d   1      56.922  -0.288  31.720  0.00  0.00     0.133 A 
ATOM      4  C   UNL d   1      56.028   0.103  33.046  0.00  0.00     0.103 A 
ATOM      5  C   UNL d   1      56.606   0.615  32.786  0.00  0.00     0.023 A 
ATOM      6  C   UNL d   1      57.058   0.430  32.126  0.00  0.00     0.029 A 
ENDROOT
BRANCH   3   7
ATOM      7  S   UNL d   1      57.368  -0.482  31.059  0.00  0.00    -0.061 SA
BRANCH   7   8
ATOM      8  C   UNL d   1      57.948   0.035  30.789  0.00  0.00     0.099 C 
BRANCH   8   9
ATOM      9  C   UNL d   1      58.240  -0.031  30.019  0.00  0.00     0.286 C 
ATOM     10  N   UNL d   1      58.972  -0.372  29.883  0.00  0.00    -0.204 NA
ATOM     11  O   UNL d   1      57.792   0.246  29.389  0.00  0.00    -0.265 OA
BRANCH  10  12
ATOM     12  C   UNL d   1      59.262  -0.438  29.125  0.00  0.00     0.127 C 
BRANCH  12  13
ATOM     13  C   UNL d   1      59.897  -0.935  28.968  0.00  0.00     0.119 A 
ATOM     14  O   UNL d   1      59.857  -1.692  28.654  0.00  0.00    -0.304 OA
ATOM     15  C   UNL d   1      60.618  -1.987  28.590  0.00  0.00     0.123 A 
ATOM     16  C   UNL d   1      61.133  -1.412  28.866  0.00  0.00     0.029 A 
ATOM     17  C   UNL d   1      60.697  -0.758  29.102  0.00  0.00     0.028 A 
ENDBRANCH  12  13
ENDBRANCH  10  12
ENDBRANCH   8   9
ENDBRANCH   7   8
ENDBRANCH   3   7
BRANCH   4  18
ATOM     18  C   UNL d   1      55.575   0.296  33.713  0.00  0.00     0.019 A 
ATOM     19  C   UNL d   1      55.934   0.366  34.466  0.00  0.00     0.002 A 
ATOM     20  C   UNL d   1      55.477   0.559  35.125  0.00  0.00     0.000 A 
ATOM     21  C   UNL d   1      54.671   0.682  35.048  0.00  0.00     0.000 A 
ATOM     22  C   UNL d   1      54.305   0.615  34.306  0.00  0.00     0.000 A 
ATOM     23  C   UNL d   1      54.759   0.422  33.644  0.00  0.00     0.002 A 
ENDBRANCH   4  18
TORSDOF 6
ENDMDL
MODEL 3
REMARK VINA RESULT:      -3.7      8.292      9.751
REMARK  6 active torsions:
REMARK  status: ('A' for Active; 'I' for Inactive)
REMARK    1  A    between atoms: S_9  and  C_3 
REMARK    2  A    between atoms: C_4  and  C_17 
REMARK       I    between atoms: N_8  and  C_4 
REMARK    3  A    between atoms: C_5  and  C_16 
REMARK    4  A    between atoms: C_14  and  C_6 
REMARK    5  A    between atoms: C_16  and  N_8 
REMARK    6  A    between atoms: C_17  and  S_9 
ROOT
ATOM      1  N   UNL d   1      58.577  -9.695  31.039  0.00  0.00    -0.148 NA
ATOM      2  N   UNL d   1      58.830  -9.720  31.824  0.00  0.00    -0.141 NA
ATOM      3  C   UNL d   1      58.284  -9.781  32.436  0.00  0.00     0.133 A 
ATOM      4  C   UNL d   1      57.765  -9.732  30.875  0.00  0.00     0.103 A 
ATOM      5  C   UNL d   1      57.220  -9.793  31.479  0.00  0.00     0.023 A 
ATOM      6  C   UNL d   1      57.468  -9.818  32.261  0.00  0.00     0.029 A 
ENDROOT
BRANCH   3   7
ATOM      7  S   UNL d   1      58.543  -9.805  33.215  0.00  0.00    -0.061 SA
BRANCH   7   8
ATOM      8  C   UNL d   1      59.138  -9.295  33.466  0.00  0.00     0.099 C 
BRANCH   8   9
ATOM      9  C   UNL d   1      59.294  -9.200  34.271  0.00  0.00     0.286 C 
ATOM     10  N   UNL d   1      59.675  -8.526  34.540  0.00  0.00    -0.204 NA
ATOM     11  O   UNL d   1      59.065  -9.783  34.802  0.00  0.00    -0.265 OA
BRANCH  10  12
ATOM     12  C   UNL d   1      59.830  -8.430  35.334  0.00  0.00     0.127 C 
BRANCH  12  13
ATOM     13  C   UNL d   1      60.116  -7.712  35.614  0.00  0.00     0.119 A 
ATOM     14  O   UNL d   1      60.885  -7.434  35.543  0.00  0.00    -0.304 OA
ATOM     15  C   UNL d   1      60.927  -6.697  35.898  0.00  0.00     0.123 A 
ATOM     16  C   UNL d   1      60.183  -6.518  36.191  0.00  0.00     0.029 A 
ATOM     17  C   UNL d   1      59.675  -7.139  36.021  0.00  0.00     0.028 A 
ENDBRANCH  12  13
ENDBRANCH  10  12
ENDBRANCH   8   9
ENDBRANCH   7   8
ENDBRANCH   3   7
BRANCH   4  18
ATOM     18  C   UNL d   1      57.507  -9.708  30.088  0.00  0.00     0.019 A 
ATOM     19  C   UNL d   1      56.690  -9.693  29.907  0.00  0.00     0.002 A 
ATOM     20  C   UNL d   1      56.442  -9.669  29.120  0.00  0.00     0.000 A 
ATOM     21  C   UNL d   1      56.990  -9.658  28.513  0.00  0.00     0.000 A 
ATOM     22  C   UNL d   1      57.803  -9.672  28.682  0.00  0.00     0.000 A 
ATOM     23  C   UNL d   1      58.056  -9.697  29.467  0.00  0.00     0.002 A 
ENDBRANCH   4  18
TORSDOF 6
ENDMDL
MODEL 4
REMARK VINA RESULT:      -2.7      1.642      5.937
REMARK  6 active torsions:
REMARK  status: ('A' for Active; 'I' for Inactive)
REMARK    1  A    between atoms: S_9  and  C_3 
REMARK    2  A    between atoms: C_4  and  C_17 
REMARK       I    between atoms: N_8  and  C_4 
REMARK    3  A    between atoms: C_5  and  C_16 
REMARK    4  A    between atoms: C_14  and  C_6 
REMARK    5  A    between atoms: C_16  and  N_8 
REMARK    6  A    between atoms: C_17  and  S_9 
ROOT
ATOM      1  N   UNL d   1      57.949  -2.130  29.958  0.00  0.00    -0.148 NA
ATOM      2  N   UNL d   1      57.648  -1.455  30.326  0.00  0.00    -0.141 NA
ATOM      3  C   UNL d   1      58.069  -0.749  30.310  0.00  0.00     0.133 A 
ATOM      4  C   UNL d   1      58.682  -2.086  29.571  0.00  0.00     0.103 A 
ATOM      5  C   UNL d   1      59.103  -1.388  29.553  0.00  0.00     0.023 A 
ATOM      6  C   UNL d   1      58.807  -0.715  29.918  0.00  0.00     0.029 A 
ENDROOT
BRANCH   3   7
ATOM      7  S   UNL d   1      57.763  -0.082  30.679  0.00  0.00    -0.061 SA
BRANCH   7   8
ATOM      8  C   UNL d   1      57.145  -0.158  31.216  0.00  0.00     0.099 C 
BRANCH   8   9
ATOM      9  C   UNL d   1      57.173   0.235  31.942  0.00  0.00     0.286 C 
ATOM     10  N   UNL d   1      56.502   0.288  32.408  0.00  0.00    -0.204 NA
ATOM     11  O   UNL d   1      57.877   0.573  32.196  0.00  0.00    -0.265 OA
BRANCH  10  12
ATOM     12  C   UNL d   1      56.526   0.675  33.125  0.00  0.00     0.127 C 
BRANCH  12  13
ATOM     13  C   UNL d   1      55.881   0.645  33.632  0.00  0.00     0.119 A 
ATOM     14  O   UNL d   1      55.902   0.682  34.451  0.00  0.00    -0.304 OA
ATOM     15  C   UNL d   1      55.135   0.632  34.733  0.00  0.00     0.123 A 
ATOM     16  C   UNL d   1      54.635   0.565  34.087  0.00  0.00     0.029 A 
ATOM     17  C   UNL d   1      55.086   0.572  33.402  0.00  0.00     0.028 A 
ENDBRANCH  12  13
ENDBRANCH  10  12
ENDBRANCH   8   9
ENDBRANCH   7   8
ENDBRANCH   3   7
BRANCH   4  18
ATOM     18  C   UNL d   1      58.987  -2.762  29.200  0.00  0.00     0.019 A 
ATOM     19  C   UNL d   1      59.812  -2.901  29.181  0.00  0.00     0.002 A 
ATOM     20  C   UNL d   1      60.108  -3.576  28.809  0.00  0.00     0.000 A 
ATOM     21  C   UNL d   1      59.599  -4.112  28.458  0.00  0.00     0.000 A 
ATOM     22  C   UNL d   1      58.779  -3.983  28.472  0.00  0.00     0.000 A 
ATOM     23  C   UNL d   1      58.479  -3.310  28.842  0.00  0.00     0.002 A 
ENDBRANCH   4  18
TORSDOF 6
ENDMDL
