MODEL 1
REMARK VINA RESULT:       1.3      0.000      0.000
REMARK  1 active torsions:
REMARK  status: ('A' for Active; 'I' for Inactive)
REMARK    1  A    between atoms: O_8  and  C_4 
ROOT
ATOM      1  C   UNL d   1     -54.711-101.581 -36.849  0.00  0.00     0.065 A 
ATOM      2  C   UNL d   1     -54.715-101.216 -36.107  0.00  0.00     0.186 A 
ATOM      3  N   UNL d   1     -54.722-101.675 -35.422  0.00  0.00    -0.224 NA
ATOM      4  C   UNL d   1     -54.715-102.404 -36.901  0.00  0.00     0.099 A 
ATOM      5  N   UNL d   1     -54.711-100.397 -36.052  0.00  0.00    -0.127 N 
ATOM      6  C   UNL d   1     -54.725-102.495 -35.477  0.00  0.00     0.103 A 
ATOM      7  C   UNL d   1     -54.721-102.860 -36.218  0.00  0.00     0.045 A 
ENDROOT
BRANCH   4   8
ATOM      8  O   UNL d   1     -54.711-102.767 -37.636  0.00  0.00    -0.328 OA
ATOM      9  C   UNL d   1     -55.413-102.861 -38.052  0.00  0.00     0.181 C 
ENDBRANCH   4   8
TORSDOF 1
ENDMDL
MODEL 2
REMARK VINA RESULT:       3.9      8.442      9.356
REMARK  1 active torsions:
REMARK  status: ('A' for Active; 'I' for Inactive)
REMARK    1  A    between atoms: O_8  and  C_4 
ROOT
ATOM      1  C   UNL d   1     -58.502 -98.756 -43.676  0.00  0.00     0.065 A 
ATOM      2  C   UNL d   1     -58.054 -98.757 -44.372  0.00  0.00     0.186 A 
ATOM      3  N   UNL d   1     -58.432 -98.760 -45.105  0.00  0.00    -0.224 NA
ATOM      4  C   UNL d   1     -59.325 -98.757 -43.717  0.00  0.00     0.099 A 
ATOM      5  N   UNL d   1     -57.234 -98.755 -44.334  0.00  0.00    -0.127 N 
ATOM      6  C   UNL d   1     -59.253 -98.762 -45.143  0.00  0.00     0.103 A 
ATOM      7  C   UNL d   1     -59.701 -98.760 -44.448  0.00  0.00     0.045 A 
ENDROOT
BRANCH   4   8
ATOM      8  O   UNL d   1     -59.769 -98.756 -43.029  0.00  0.00    -0.328 OA
ATOM      9  C   UNL d   1     -59.394 -98.764 -42.298  0.00  0.00     0.181 C 
ENDBRANCH   4   8
TORSDOF 1
ENDMDL
MODEL 3
REMARK VINA RESULT:       4.0      8.922      9.520
REMARK  1 active torsions:
REMARK  status: ('A' for Active; 'I' for Inactive)
REMARK    1  A    between atoms: O_8  and  C_4 
ROOT
ATOM      1  C   UNL d   1     -58.636 -98.758 -43.745  0.00  0.00     0.065 A 
ATOM      2  C   UNL d   1     -59.458 -98.759 -43.832  0.00  0.00     0.186 A 
ATOM      3  N   UNL d   1     -59.792 -98.758 -44.587  0.00  0.00    -0.224 NA
ATOM      4  C   UNL d   1     -58.152 -98.757 -44.412  0.00  0.00     0.099 A 
ATOM      5  N   UNL d   1     -59.943 -98.760 -43.170  0.00  0.00    -0.127 N 
ATOM      6  C   UNL d   1     -59.307 -98.757 -45.250  0.00  0.00     0.103 A 
ATOM      7  C   UNL d   1     -58.485 -98.756 -45.163  0.00  0.00     0.045 A 
ENDROOT
BRANCH   4   8
ATOM      8  O   UNL d   1     -57.337 -98.757 -44.326  0.00  0.00    -0.328 OA
ATOM      9  C   UNL d   1     -56.852 -98.785 -44.988  0.00  0.00     0.181 C 
ENDBRANCH   4   8
TORSDOF 1
ENDMDL
