MODEL 1
REMARK VINA RESULT:      42.2      0.000      0.000
REMARK  5 active torsions:
REMARK  status: ('A' for Active; 'I' for Inactive)
REMARK    1  A    between atoms: C_7  and  C_1 
REMARK    2  A    between atoms: C_10  and  C_6 
REMARK    3  A    between atoms: O_18  and  C_7 
REMARK    4  A    between atoms: N_8  and  C_10 
REMARK    5  A    between atoms: C_23  and  O_18 
ROOT
ATOM      1  C   UNL d   1      14.791  13.991  -1.718  0.00  0.00     0.081 A 
ATOM      2  C   UNL d   1      15.346  14.013  -1.108  0.00  0.00     0.069 A 
ATOM      3  C   UNL d   1      14.384  13.263  -1.661  0.00  0.00     0.027 A 
ATOM      4  N   UNL d   1      15.291  13.317  -0.676  0.00  0.00    -0.304 N 
ATOM      5  C   UNL d   1      14.692  12.847  -1.018  0.00  0.00     0.065 A 
ATOM      6  C   UNL d   1      13.783  12.941  -2.111  0.00  0.00     0.058 A 
ATOM      7  C   UNL d   1      14.401  12.108  -0.822  0.00  0.00     0.021 A 
ATOM      8  C   UNL d   1      13.486  12.197  -1.919  0.00  0.00     0.197 A 
ATOM      9  C   UNL d   1      13.795  11.780  -1.273  0.00  0.00     0.044 A 
ATOM     10  C   UNL d   1      15.871  14.644  -0.962  0.00  0.00     0.019 C 
ATOM     11  C   UNL d   1      15.746  13.112  -0.016  0.00  0.00     0.099 C 
ATOM     12  O   UNL d   1      12.874  11.863  -2.372  0.00  0.00    -0.286 OA
ENDROOT
BRANCH   6  13
ATOM     13  C   UNL d   1      13.478  13.360  -2.753  0.00  0.00     0.083 C 
BRANCH  13  14
ATOM     14  N   UNL d   1      13.324  12.964  -3.462  0.00  0.00    -0.302 N 
ATOM     15  C   UNL d   1      13.569  12.187  -3.559  0.00  0.00     0.080 A 
ATOM     16  C   UNL d   1      13.414  11.790  -4.272  0.00  0.00     0.019 A 
ATOM     17  C   UNL d   1      13.016  12.176  -4.881  0.00  0.00     0.003 A 
ATOM     18  C   UNL d   1      12.770  12.958  -4.784  0.00  0.00     0.019 A 
ATOM     19  C   UNL d   1      12.865  11.780  -5.587  0.00  0.00     0.000 C 
ATOM     20  C   UNL d   1      12.925  13.353  -4.071  0.00  0.00     0.080 A 
ENDBRANCH  13  14
ENDBRANCH   6  13
BRANCH   1  21
ATOM     21  C   UNL d   1      14.655  14.575  -2.285  0.00  0.00     0.302 C 
ATOM     22  O   UNL d   1      14.796  14.416  -3.087  0.00  0.00    -0.259 OA
BRANCH  21  23
ATOM     23  O   UNL d   1      14.380  15.312  -2.047  0.00  0.00    -0.271 OA
BRANCH  23  24
ATOM     24  C   UNL d   1      14.584  15.988  -2.480  0.00  0.00     0.126 C 
ATOM     25  C   UNL d   1      14.485  16.735  -2.151  0.00  0.00     0.029 C 
ENDBRANCH  23  24
ENDBRANCH  21  23
ENDBRANCH   1  21
TORSDOF 5
ENDMDL
