MODEL 1
REMARK VINA RESULT:      -7.8      0.000      0.000
REMARK  5 active torsions:
REMARK  status: ('A' for Active; 'I' for Inactive)
REMARK    1  A    between atoms: C_5  and  C_1 
REMARK    2  A    between atoms: O_8  and  C_5 
REMARK    3  A    between atoms: C_15  and  O_8 
REMARK       I    between atoms: C_9  and  N_11 
REMARK    4  A    between atoms: N_11  and  C_16 
REMARK    5  A    between atoms: O_21  and  C_13 
ROOT
ATOM      1  C   UNL d   1     -48.597  12.854  22.993  0.00  0.00     0.127 A 
ATOM      2  C   UNL d   1     -49.355  12.876  23.325  0.00  0.00     0.305 A 
ATOM      3  O   UNL d   1     -49.759  13.601  23.383  0.00  0.00    -0.271 OA
ATOM      4  C   UNL d   1     -48.244  13.548  22.721  0.00  0.00     0.013 A 
ATOM      5  C   UNL d   1     -49.406  14.296  23.111  0.00  0.00     0.125 A 
ATOM      6  C   UNL d   1     -48.649  14.265  22.781  0.00  0.00     0.025 A 
ATOM      7  O   UNL d   1     -49.715  12.190  23.598  0.00  0.00    -0.259 OA
ATOM      8  C   UNL d   1     -49.806  15.004  23.170  0.00  0.00     0.117 A 
ATOM      9  C   UNL d   1     -48.292  14.959  22.508  0.00  0.00     0.002 A 
ATOM     10  C   UNL d   1     -48.700  15.672  22.570  0.00  0.00     0.002 A 
ATOM     11  C   UNL d   1     -49.457  15.694  22.901  0.00  0.00     0.026 A 
ENDROOT
BRANCH   1  12
ATOM     12  C   UNL d   1     -48.200  12.133  22.938  0.00  0.00     0.305 C 
ATOM     13  O   UNL d   1     -48.636  11.435  22.856  0.00  0.00    -0.259 OA
BRANCH  12  14
ATOM     14  O   UNL d   1     -47.374  12.109  22.963  0.00  0.00    -0.273 OA
BRANCH  14  15
ATOM     15  C   UNL d   1     -46.677  11.704  23.147  0.00  0.00     0.103 A 
ATOM     16  C   UNL d   1     -46.723  10.971  23.509  0.00  0.00     0.026 A 
ATOM     17  C   UNL d   1     -46.029  10.564  23.694  0.00  0.00     0.021 A 
ATOM     18  C   UNL d   1     -45.294  10.901  23.513  0.00  0.00     0.085 A 
ATOM     19  C   UNL d   1     -45.261  11.637  23.149  0.00  0.00     0.021 A 
ATOM     20  C   UNL d   1     -45.949  12.041  22.966  0.00  0.00     0.026 A 
BRANCH  18  21
ATOM     21  N   UNL d   1     -44.599  10.494  23.698  0.00  0.00    -0.208 NA
ATOM     22  C   UNL d   1     -43.891  10.701  23.329  0.00  0.00     0.279 C 
ATOM     23  O   UNL d   1     -43.878  11.317  22.775  0.00  0.00    -0.265 OA
ATOM     24  C   UNL d   1     -43.194  10.296  23.512  0.00  0.00     0.068 C 
ENDBRANCH  18  21
ENDBRANCH  14  15
ENDBRANCH  12  14
ENDBRANCH   1  12
BRANCH   8  25
ATOM     25  O   UNL d   1     -50.555  15.022  23.499  0.00  0.00    -0.326 OA
ATOM     26  C   UNL d   1     -50.911  15.742  23.684  0.00  0.00     0.181 C 
ENDBRANCH   8  25
TORSDOF 5
ENDMDL
MODEL 2
REMARK VINA RESULT:      -7.6      1.974      2.830
REMARK  5 active torsions:
REMARK  status: ('A' for Active; 'I' for Inactive)
REMARK    1  A    between atoms: C_5  and  C_1 
REMARK    2  A    between atoms: O_8  and  C_5 
REMARK    3  A    between atoms: C_15  and  O_8 
REMARK       I    between atoms: C_9  and  N_11 
REMARK    4  A    between atoms: N_11  and  C_16 
REMARK    5  A    between atoms: O_21  and  C_13 
ROOT
ATOM      1  C   UNL d   1     -47.252  13.070  23.245  0.00  0.00     0.127 A 
ATOM      2  C   UNL d   1     -47.807  13.639  23.018  0.00  0.00     0.305 A 
ATOM      3  O   UNL d   1     -48.618  13.449  23.019  0.00  0.00    -0.271 OA
ATOM      4  C   UNL d   1     -47.501  12.316  23.471  0.00  0.00     0.013 A 
ATOM      5  C   UNL d   1     -48.868  12.696  23.246  0.00  0.00     0.125 A 
ATOM      6  C   UNL d   1     -48.306  12.133  23.471  0.00  0.00     0.025 A 
ATOM      7  O   UNL d   1     -47.570  14.392  22.791  0.00  0.00    -0.259 OA
ATOM      8  C   UNL d   1     -49.662  12.515  23.245  0.00  0.00     0.117 A 
ATOM      9  C   UNL d   1     -48.552  11.376  23.698  0.00  0.00     0.002 A 
ATOM     10  C   UNL d   1     -49.357  11.198  23.696  0.00  0.00     0.002 A 
ATOM     11  C   UNL d   1     -49.912  11.768  23.469  0.00  0.00     0.026 A 
ENDROOT
BRANCH   1  12
ATOM     12  C   UNL d   1     -46.450  13.262  23.242  0.00  0.00     0.305 C 
ATOM     13  O   UNL d   1     -46.184  13.898  23.698  0.00  0.00    -0.259 OA
BRANCH  12  14
ATOM     14  O   UNL d   1     -45.918  12.822  22.787  0.00  0.00    -0.273 OA
BRANCH  14  15
ATOM     15  C   UNL d   1     -45.187  12.760  22.405  0.00  0.00     0.103 A 
ATOM     16  C   UNL d   1     -44.682  12.146  22.603  0.00  0.00     0.026 A 
ATOM     17  C   UNL d   1     -43.952  12.080  22.223  0.00  0.00     0.021 A 
ATOM     18  C   UNL d   1     -43.737  12.636  21.646  0.00  0.00     0.085 A 
ATOM     19  C   UNL d   1     -44.253  13.247  21.457  0.00  0.00     0.021 A 
ATOM     20  C   UNL d   1     -44.976  13.312  21.833  0.00  0.00     0.026 A 
BRANCH  18  21
ATOM     21  N   UNL d   1     -43.006  12.570  21.267  0.00  0.00    -0.208 NA
ATOM     22  C   UNL d   1     -42.500  13.221  21.237  0.00  0.00     0.279 C 
ATOM     23  O   UNL d   1     -42.725  13.937  21.587  0.00  0.00    -0.265 OA
ATOM     24  C   UNL d   1     -41.768  13.159  20.858  0.00  0.00     0.068 C 
ENDBRANCH  18  21
ENDBRANCH  14  15
ENDBRANCH  12  14
ENDBRANCH   1  12
BRANCH   8  25
ATOM     25  O   UNL d   1     -50.208  13.082  23.020  0.00  0.00    -0.326 OA
ATOM     26  C   UNL d   1     -51.016  12.923  23.068  0.00  0.00     0.181 C 
ENDBRANCH   8  25
TORSDOF 5
ENDMDL
MODEL 3
REMARK VINA RESULT:      -6.9      3.928      5.472
REMARK  5 active torsions:
REMARK  status: ('A' for Active; 'I' for Inactive)
REMARK    1  A    between atoms: C_5  and  C_1 
REMARK    2  A    between atoms: O_8  and  C_5 
REMARK    3  A    between atoms: C_15  and  O_8 
REMARK       I    between atoms: C_9  and  N_11 
REMARK    4  A    between atoms: N_11  and  C_16 
REMARK    5  A    between atoms: O_21  and  C_13 
ROOT
ATOM      1  C   UNL d   1     -44.037  12.843  21.831  0.00  0.00     0.127 A 
ATOM      2  C   UNL d   1     -44.128  12.184  22.321  0.00  0.00     0.305 A 
ATOM      3  O   UNL d   1     -44.815  12.105  22.784  0.00  0.00    -0.271 OA
ATOM      4  C   UNL d   1     -44.624  13.422  21.801  0.00  0.00     0.013 A 
ATOM      5  C   UNL d   1     -45.403  12.683  22.755  0.00  0.00     0.125 A 
ATOM      6  C   UNL d   1     -45.304  13.340  22.262  0.00  0.00     0.025 A 
ATOM      7  O   UNL d   1     -43.549  11.603  22.357  0.00  0.00    -0.259 OA
ATOM      8  C   UNL d   1     -46.074  12.602  23.211  0.00  0.00     0.117 A 
ATOM      9  C   UNL d   1     -45.891  13.922  22.231  0.00  0.00     0.002 A 
ATOM     10  C   UNL d   1     -46.568  13.835  22.693  0.00  0.00     0.002 A 
ATOM     11  C   UNL d   1     -46.659  13.175  23.183  0.00  0.00     0.026 A 
ENDROOT
BRANCH   1  12
ATOM     12  C   UNL d   1     -43.354  12.917  21.374  0.00  0.00     0.305 C 
ATOM     13  O   UNL d   1     -43.187  12.347  20.799  0.00  0.00    -0.259 OA
BRANCH  12  14
ATOM     14  O   UNL d   1     -42.842  13.556  21.489  0.00  0.00    -0.273 OA
BRANCH  14  15
ATOM     15  C   UNL d   1     -42.178  13.990  21.255  0.00  0.00     0.103 A 
ATOM     16  C   UNL d   1     -42.262  14.785  21.076  0.00  0.00     0.026 A 
ATOM     17  C   UNL d   1     -41.601  15.221  20.842  0.00  0.00     0.021 A 
ATOM     18  C   UNL d   1     -40.861  14.852  20.791  0.00  0.00     0.085 A 
ATOM     19  C   UNL d   1     -40.790  14.053  20.974  0.00  0.00     0.021 A 
ATOM     20  C   UNL d   1     -41.445  13.621  21.206  0.00  0.00     0.026 A 
BRANCH  18  21
ATOM     21  N   UNL d   1     -40.200  15.288  20.557  0.00  0.00    -0.208 NA
ATOM     22  C   UNL d   1     -39.994  15.326  19.759  0.00  0.00     0.279 C 
ATOM     23  O   UNL d   1     -40.450  14.925  19.195  0.00  0.00    -0.265 OA
ATOM     24  C   UNL d   1     -39.334  15.762  19.521  0.00  0.00     0.068 C 
ENDBRANCH  18  21
ENDBRANCH  14  15
ENDBRANCH  12  14
ENDBRANCH   1  12
BRANCH   8  25
ATOM     25  O   UNL d   1     -46.161  11.948  23.694  0.00  0.00    -0.326 OA
ATOM     26  C   UNL d   1     -46.869  11.524  23.698  0.00  0.00     0.181 C 
ENDBRANCH   8  25
TORSDOF 5
ENDMDL
MODEL 4
REMARK VINA RESULT:      -6.3      1.767      5.670
REMARK  5 active torsions:
REMARK  status: ('A' for Active; 'I' for Inactive)
REMARK    1  A    between atoms: C_5  and  C_1 
REMARK    2  A    between atoms: O_8  and  C_5 
REMARK    3  A    between atoms: C_15  and  O_8 
REMARK       I    between atoms: C_9  and  N_11 
REMARK    4  A    between atoms: N_11  and  C_16 
REMARK    5  A    between atoms: O_21  and  C_13 
ROOT
ATOM      1  C   UNL d   1     -45.995  12.673  22.526  0.00  0.00     0.127 A 
ATOM      2  C   UNL d   1     -45.191  12.841  22.422  0.00  0.00     0.305 A 
ATOM      3  O   UNL d   1     -44.619  12.288  22.667  0.00  0.00    -0.271 OA
ATOM      4  C   UNL d   1     -46.228  11.961  22.872  0.00  0.00     0.013 A 
ATOM      5  C   UNL d   1     -44.851  11.575  23.012  0.00  0.00     0.125 A 
ATOM      6  C   UNL d   1     -45.656  11.416  23.113  0.00  0.00     0.025 A 
ATOM      7  O   UNL d   1     -44.950  13.546  22.079  0.00  0.00    -0.259 OA
ATOM      8  C   UNL d   1     -44.287  11.037  23.250  0.00  0.00     0.117 A 
ATOM      9  C   UNL d   1     -45.893  10.703  23.459  0.00  0.00     0.002 A 
ATOM     10  C   UNL d   1     -45.319  10.162  23.698  0.00  0.00     0.002 A 
ATOM     11  C   UNL d   1     -44.516  10.330  23.594  0.00  0.00     0.026 A 
ENDROOT
BRANCH   1  12
ATOM     12  C   UNL d   1     -46.558  13.223  22.282  0.00  0.00     0.305 C 
ATOM     13  O   UNL d   1     -46.339  13.822  21.755  0.00  0.00    -0.259 OA
BRANCH  12  14
ATOM     14  O   UNL d   1     -47.335  13.177  22.562  0.00  0.00    -0.273 OA
BRANCH  14  15
ATOM     15  C   UNL d   1     -48.065  13.538  22.706  0.00  0.00     0.103 A 
ATOM     16  C   UNL d   1     -48.088  14.243  23.121  0.00  0.00     0.026 A 
ATOM     17  C   UNL d   1     -48.815  14.607  23.267  0.00  0.00     0.021 A 
ATOM     18  C   UNL d   1     -49.513  14.254  22.992  0.00  0.00     0.085 A 
ATOM     19  C   UNL d   1     -49.476  13.546  22.576  0.00  0.00     0.021 A 
ATOM     20  C   UNL d   1     -48.756  13.186  22.432  0.00  0.00     0.026 A 
BRANCH  18  21
ATOM     21  N   UNL d   1     -50.240  14.618  23.137  0.00  0.00    -0.208 NA
ATOM     22  C   UNL d   1     -50.333  15.424  22.990  0.00  0.00     0.279 C 
ATOM     23  O   UNL d   1     -49.697  15.867  22.696  0.00  0.00    -0.265 OA
ATOM     24  C   UNL d   1     -51.059  15.791  23.134  0.00  0.00     0.068 C 
ENDBRANCH  18  21
ENDBRANCH  14  15
ENDBRANCH  12  14
ENDBRANCH   1  12
BRANCH   8  25
ATOM     25  O   UNL d   1     -43.494  11.207  23.146  0.00  0.00    -0.326 OA
ATOM     26  C   UNL d   1     -42.924  10.623  23.267  0.00  0.00     0.181 C 
ENDBRANCH   8  25
TORSDOF 5
ENDMDL
MODEL 5
REMARK VINA RESULT:      -6.1      8.785     10.280
REMARK  5 active torsions:
REMARK  status: ('A' for Active; 'I' for Inactive)
REMARK    1  A    between atoms: C_5  and  C_1 
REMARK    2  A    between atoms: O_8  and  C_5 
REMARK    3  A    between atoms: C_15  and  O_8 
REMARK       I    between atoms: C_9  and  N_11 
REMARK    4  A    between atoms: N_11  and  C_16 
REMARK    5  A    between atoms: O_21  and  C_13 
ROOT
ATOM      1  C   UNL d   1     -39.576  15.017  20.204  0.00  0.00     0.127 A 
ATOM      2  C   UNL d   1     -39.865  14.359  20.612  0.00  0.00     0.305 A 
ATOM      3  O   UNL d   1     -39.628  14.223  21.399  0.00  0.00    -0.271 OA
ATOM      4  C   UNL d   1     -39.053  15.537  20.575  0.00  0.00     0.013 A 
ATOM      5  C   UNL d   1     -39.106  14.743  21.771  0.00  0.00     0.125 A 
ATOM      6  C   UNL d   1     -38.821  15.398  21.355  0.00  0.00     0.025 A 
ATOM      7  O   UNL d   1     -40.385  13.835  20.252  0.00  0.00    -0.259 OA
ATOM      8  C   UNL d   1     -38.877  14.605  22.541  0.00  0.00     0.117 A 
ATOM      9  C   UNL d   1     -38.297  15.922  21.724  0.00  0.00     0.002 A 
ATOM     10  C   UNL d   1     -38.069  15.779  22.503  0.00  0.00     0.002 A 
ATOM     11  C   UNL d   1     -38.358  15.120  22.911  0.00  0.00     0.026 A 
ENDROOT
BRANCH   1  12
ATOM     12  C   UNL d   1     -39.813  15.148  19.426  0.00  0.00     0.305 C 
ATOM     13  O   UNL d   1     -40.612  15.286  19.262  0.00  0.00    -0.259 OA
BRANCH  12  14
ATOM     14  O   UNL d   1     -39.257  15.141  18.814  0.00  0.00    -0.273 OA
BRANCH  14  15
ATOM     15  C   UNL d   1     -39.068  14.991  18.022  0.00  0.00     0.103 A 
ATOM     16  C   UNL d   1     -39.436  14.372  17.632  0.00  0.00     0.026 A 
ATOM     17  C   UNL d   1     -39.249  14.220  16.842  0.00  0.00     0.021 A 
ATOM     18  C   UNL d   1     -38.693  14.695  16.453  0.00  0.00     0.085 A 
ATOM     19  C   UNL d   1     -38.331  15.314  16.855  0.00  0.00     0.021 A 
ATOM     20  C   UNL d   1     -38.516  15.464  17.638  0.00  0.00     0.026 A 
BRANCH  18  21
ATOM     21  N   UNL d   1     -38.507  14.543  15.662  0.00  0.00    -0.208 NA
ATOM     22  C   UNL d   1     -38.130  13.838  15.458  0.00  0.00     0.279 C 
ATOM     23  O   UNL d   1     -37.940  13.285  16.045  0.00  0.00    -0.265 OA
ATOM     24  C   UNL d   1     -37.942  13.682  14.669  0.00  0.00     0.068 C 
ENDBRANCH  18  21
ENDBRANCH  14  15
ENDBRANCH  12  14
ENDBRANCH   1  12
BRANCH   8  25
ATOM     25  O   UNL d   1     -39.166  13.953  22.941  0.00  0.00    -0.326 OA
ATOM     26  C   UNL d   1     -38.822  13.715  23.652  0.00  0.00     0.181 C 
ENDBRANCH   8  25
TORSDOF 5
ENDMDL
MODEL 6
REMARK VINA RESULT:      -5.9      9.092     10.994
REMARK  5 active torsions:
REMARK  status: ('A' for Active; 'I' for Inactive)
REMARK    1  A    between atoms: C_5  and  C_1 
REMARK    2  A    between atoms: O_8  and  C_5 
REMARK    3  A    between atoms: C_15  and  O_8 
REMARK       I    between atoms: C_9  and  N_11 
REMARK    4  A    between atoms: N_11  and  C_16 
REMARK    5  A    between atoms: O_21  and  C_13 
ROOT
ATOM      1  C   UNL d   1     -38.751  13.994  17.893  0.00  0.00     0.127 A 
ATOM      2  C   UNL d   1     -38.751  13.332  17.397  0.00  0.00     0.305 A 
ATOM      3  O   UNL d   1     -38.545  13.417  16.595  0.00  0.00    -0.271 OA
ATOM      4  C   UNL d   1     -38.548  14.736  17.593  0.00  0.00     0.013 A 
ATOM      5  C   UNL d   1     -38.342  14.158  16.294  0.00  0.00     0.125 A 
ATOM      6  C   UNL d   1     -38.345  14.815  16.797  0.00  0.00     0.025 A 
ATOM      7  O   UNL d   1     -38.951  12.590  17.686  0.00  0.00    -0.259 OA
ATOM      8  C   UNL d   1     -38.141  14.236  15.508  0.00  0.00     0.117 A 
ATOM      9  C   UNL d   1     -38.142  15.560  16.499  0.00  0.00     0.002 A 
ATOM     10  C   UNL d   1     -37.940  15.633  15.704  0.00  0.00     0.002 A 
ATOM     11  C   UNL d   1     -37.940  14.971  15.208  0.00  0.00     0.026 A 
ENDROOT
BRANCH   1  12
ATOM     12  C   UNL d   1     -38.956  13.906  18.686  0.00  0.00     0.305 C 
ATOM     13  O   UNL d   1     -39.158  13.157  18.973  0.00  0.00    -0.259 OA
BRANCH  12  14
ATOM     14  O   UNL d   1     -38.958  14.560  19.192  0.00  0.00    -0.273 OA
BRANCH  14  15
ATOM     15  C   UNL d   1     -39.040  14.875  19.952  0.00  0.00     0.103 A 
ATOM     16  C   UNL d   1     -38.478  15.401  20.231  0.00  0.00     0.026 A 
ATOM     17  C   UNL d   1     -38.557  15.718  20.990  0.00  0.00     0.021 A 
ATOM     18  C   UNL d   1     -39.203  15.500  21.461  0.00  0.00     0.085 A 
ATOM     19  C   UNL d   1     -39.760  14.970  21.169  0.00  0.00     0.021 A 
ATOM     20  C   UNL d   1     -39.682  14.657  20.418  0.00  0.00     0.026 A 
BRANCH  18  21
ATOM     21  N   UNL d   1     -39.281  15.816  22.220  0.00  0.00    -0.208 NA
ATOM     22  C   UNL d   1     -38.813  15.528  22.835  0.00  0.00     0.279 C 
ATOM     23  O   UNL d   1     -38.265  14.923  22.690  0.00  0.00    -0.265 OA
ATOM     24  C   UNL d   1     -38.888  15.842  23.595  0.00  0.00     0.068 C 
ENDBRANCH  18  21
ENDBRANCH  14  15
ENDBRANCH  12  14
ENDBRANCH   1  12
BRANCH   8  25
ATOM     25  O   UNL d   1     -38.142  13.578  15.021  0.00  0.00    -0.326 OA
ATOM     26  C   UNL d   1     -37.944  13.651  14.223  0.00  0.00     0.181 C 
ENDBRANCH   8  25
TORSDOF 5
ENDMDL
MODEL 7
REMARK VINA RESULT:      -5.5      9.305     10.512
REMARK  5 active torsions:
REMARK  status: ('A' for Active; 'I' for Inactive)
REMARK    1  A    between atoms: C_5  and  C_1 
REMARK    2  A    between atoms: O_8  and  C_5 
REMARK    3  A    between atoms: C_15  and  O_8 
REMARK       I    between atoms: C_9  and  N_11 
REMARK    4  A    between atoms: N_11  and  C_16 
REMARK    5  A    between atoms: O_21  and  C_13 
ROOT
ATOM      1  C   UNL d   1     -38.348  14.274  20.088  0.00  0.00     0.127 A 
ATOM      2  C   UNL d   1     -38.419  13.541  20.464  0.00  0.00     0.305 A 
ATOM      3  O   UNL d   1     -38.358  13.494  21.294  0.00  0.00    -0.271 OA
ATOM      4  C   UNL d   1     -38.217  14.957  20.534  0.00  0.00     0.013 A 
ATOM      5  C   UNL d   1     -38.227  14.176  21.739  0.00  0.00     0.125 A 
ATOM      6  C   UNL d   1     -38.157  14.905  21.355  0.00  0.00     0.025 A 
ATOM      7  O   UNL d   1     -38.549  12.856  20.030  0.00  0.00    -0.259 OA
ATOM      8  C   UNL d   1     -38.168  14.125  22.550  0.00  0.00     0.117 A 
ATOM      9  C   UNL d   1     -38.026  15.591  21.799  0.00  0.00     0.002 A 
ATOM     10  C   UNL d   1     -37.967  15.534  22.618  0.00  0.00     0.002 A 
ATOM     11  C   UNL d   1     -38.038  14.801  22.994  0.00  0.00     0.026 A 
ENDROOT
BRANCH   1  12
ATOM     12  C   UNL d   1     -38.409  14.316  19.267  0.00  0.00     0.305 C 
ATOM     13  O   UNL d   1     -38.002  13.767  18.801  0.00  0.00    -0.259 OA
BRANCH  12  14
ATOM     14  O   UNL d   1     -38.872  14.902  18.913  0.00  0.00    -0.273 OA
BRANCH  14  15
ATOM     15  C   UNL d   1     -39.359  15.148  18.292  0.00  0.00     0.103 A 
ATOM     16  C   UNL d   1     -39.996  15.638  18.452  0.00  0.00     0.026 A 
ATOM     17  C   UNL d   1     -40.485  15.886  17.834  0.00  0.00     0.021 A 
ATOM     18  C   UNL d   1     -40.326  15.638  17.059  0.00  0.00     0.085 A 
ATOM     19  C   UNL d   1     -39.683  15.147  16.912  0.00  0.00     0.021 A 
ATOM     20  C   UNL d   1     -39.199  14.901  17.524  0.00  0.00     0.026 A 
BRANCH  18  21
ATOM     21  N   UNL d   1     -40.814  15.887  16.442  0.00  0.00    -0.208 NA
ATOM     22  C   UNL d   1     -41.612  15.675  16.439  0.00  0.00     0.279 C 
ATOM     23  O   UNL d   1     -41.920  15.215  17.055  0.00  0.00    -0.265 OA
ATOM     24  C   UNL d   1     -42.104  15.922  15.823  0.00  0.00     0.068 C 
ENDBRANCH  18  21
ENDBRANCH  14  15
ENDBRANCH  12  14
ENDBRANCH   1  12
BRANCH   8  25
ATOM     25  O   UNL d   1     -38.239  13.398  22.919  0.00  0.00    -0.326 OA
ATOM     26  C   UNL d   1     -37.945  13.287  23.681  0.00  0.00     0.181 C 
ENDBRANCH   8  25
TORSDOF 5
ENDMDL
MODEL 8
REMARK VINA RESULT:      -5.5      3.494      6.483
REMARK  5 active torsions:
REMARK  status: ('A' for Active; 'I' for Inactive)
REMARK    1  A    between atoms: C_5  and  C_1 
REMARK    2  A    between atoms: O_8  and  C_5 
REMARK    3  A    between atoms: C_15  and  O_8 
REMARK       I    between atoms: C_9  and  N_11 
REMARK    4  A    between atoms: N_11  and  C_16 
REMARK    5  A    between atoms: O_21  and  C_13 
ROOT
ATOM      1  C   UNL d   1     -43.016  13.306  21.346  0.00  0.00     0.127 A 
ATOM      2  C   UNL d   1     -42.418  12.805  21.619  0.00  0.00     0.305 A 
ATOM      3  O   UNL d   1     -41.627  13.066  21.615  0.00  0.00    -0.271 OA
ATOM      4  C   UNL d   1     -42.830  14.061  21.070  0.00  0.00     0.013 A 
ATOM      5  C   UNL d   1     -41.440  13.821  21.339  0.00  0.00     0.125 A 
ATOM      6  C   UNL d   1     -42.045  14.315  21.067  0.00  0.00     0.025 A 
ATOM      7  O   UNL d   1     -42.593  12.052  21.896  0.00  0.00    -0.259 OA
ATOM      8  C   UNL d   1     -40.665  14.071  21.337  0.00  0.00     0.117 A 
ATOM      9  C   UNL d   1     -41.862  15.073  20.790  0.00  0.00     0.002 A 
ATOM     10  C   UNL d   1     -41.077  15.322  20.790  0.00  0.00     0.002 A 
ATOM     11  C   UNL d   1     -40.478  14.821  21.063  0.00  0.00     0.026 A 
ENDROOT
BRANCH   1  12
ATOM     12  C   UNL d   1     -43.798  13.044  21.352  0.00  0.00     0.305 C 
ATOM     13  O   UNL d   1     -44.058  12.528  20.760  0.00  0.00    -0.259 OA
BRANCH  12  14
ATOM     14  O   UNL d   1     -44.317  13.295  21.944  0.00  0.00    -0.273 OA
BRANCH  14  15
ATOM     15  C   UNL d   1     -45.078  13.309  22.268  0.00  0.00     0.103 A 
ATOM     16  C   UNL d   1     -45.496  14.013  22.280  0.00  0.00     0.026 A 
ATOM     17  C   UNL d   1     -46.256  14.030  22.603  0.00  0.00     0.021 A 
ATOM     18  C   UNL d   1     -46.588  13.336  22.911  0.00  0.00     0.085 A 
ATOM     19  C   UNL d   1     -46.158  12.635  22.893  0.00  0.00     0.021 A 
ATOM     20  C   UNL d   1     -45.405  12.618  22.573  0.00  0.00     0.026 A 
BRANCH  18  21
ATOM     21  N   UNL d   1     -47.348  13.353  23.233  0.00  0.00    -0.208 NA
ATOM     22  C   UNL d   1     -48.002  13.212  22.750  0.00  0.00     0.279 C 
ATOM     23  O   UNL d   1     -47.895  13.053  21.944  0.00  0.00    -0.265 OA
ATOM     24  C   UNL d   1     -48.764  13.229  23.069  0.00  0.00     0.068 C 
ENDBRANCH  18  21
ENDBRANCH  14  15
ENDBRANCH  12  14
ENDBRANCH   1  12
BRANCH   8  25
ATOM     25  O   UNL d   1     -40.075  13.573  21.608  0.00  0.00    -0.326 OA
ATOM     26  C   UNL d   1     -39.294  13.834  21.645  0.00  0.00     0.181 C 
ENDBRANCH   8  25
TORSDOF 5
ENDMDL
MODEL 9
REMARK VINA RESULT:      -5.1      5.779      8.453
REMARK  5 active torsions:
REMARK  status: ('A' for Active; 'I' for Inactive)
REMARK    1  A    between atoms: C_5  and  C_1 
REMARK    2  A    between atoms: O_8  and  C_5 
REMARK    3  A    between atoms: C_15  and  O_8 
REMARK       I    between atoms: C_9  and  N_11 
REMARK    4  A    between atoms: N_11  and  C_16 
REMARK    5  A    between atoms: O_21  and  C_13 
ROOT
ATOM      1  C   UNL d   1     -40.601  14.400  19.818  0.00  0.00     0.127 A 
ATOM      2  C   UNL d   1     -39.784  14.276  19.858  0.00  0.00     0.305 A 
ATOM      3  O   UNL d   1     -39.322  14.337  19.168  0.00  0.00    -0.271 OA
ATOM      4  C   UNL d   1     -40.956  14.583  19.096  0.00  0.00     0.013 A 
ATOM      5  C   UNL d   1     -39.677  14.521  18.446  0.00  0.00     0.125 A 
ATOM      6  C   UNL d   1     -40.494  14.643  18.415  0.00  0.00     0.025 A 
ATOM      7  O   UNL d   1     -39.421  14.092  20.572  0.00  0.00    -0.259 OA
ATOM      8  C   UNL d   1     -39.220  14.579  17.774  0.00  0.00     0.117 A 
ATOM      9  C   UNL d   1     -40.854  14.827  17.693  0.00  0.00     0.002 A 
ATOM     10  C   UNL d   1     -40.388  14.886  17.016  0.00  0.00     0.002 A 
ATOM     11  C   UNL d   1     -39.571  14.762  17.056  0.00  0.00     0.026 A 
ENDROOT
BRANCH   1  12
ATOM     12  C   UNL d   1     -41.054  14.338  20.504  0.00  0.00     0.305 C 
ATOM     13  O   UNL d   1     -41.042  14.954  21.055  0.00  0.00    -0.259 OA
BRANCH  12  14
ATOM     14  O   UNL d   1     -41.517  13.666  20.639  0.00  0.00    -0.273 OA
BRANCH  14  15
ATOM     15  C   UNL d   1     -42.178  13.312  20.988  0.00  0.00     0.103 A 
ATOM     16  C   UNL d   1     -42.081  12.862  21.665  0.00  0.00     0.026 A 
ATOM     17  C   UNL d   1     -42.739  12.508  22.016  0.00  0.00     0.021 A 
ATOM     18  C   UNL d   1     -43.490  12.611  21.680  0.00  0.00     0.085 A 
ATOM     19  C   UNL d   1     -43.573  13.065  21.000  0.00  0.00     0.021 A 
ATOM     20  C   UNL d   1     -42.922  13.416  20.652  0.00  0.00     0.026 A 
BRANCH  18  21
ATOM     21  N   UNL d   1     -44.148  12.256  22.031  0.00  0.00    -0.208 NA
ATOM     22  C   UNL d   1     -44.788  12.721  22.267  0.00  0.00     0.279 C 
ATOM     23  O   UNL d   1     -44.769  13.541  22.149  0.00  0.00    -0.265 OA
ATOM     24  C   UNL d   1     -45.448  12.370  22.618  0.00  0.00     0.068 C 
ENDBRANCH  18  21
ENDBRANCH  14  15
ENDBRANCH  12  14
ENDBRANCH   1  12
BRANCH   8  25
ATOM     25  O   UNL d   1     -38.413  14.456  17.818  0.00  0.00    -0.326 OA
ATOM     26  C   UNL d   1     -37.941  14.541  17.146  0.00  0.00     0.181 C 
ENDBRANCH   8  25
TORSDOF 5
ENDMDL
