MODEL 1
REMARK VINA RESULT:      -7.9      0.000      0.000
REMARK  5 active torsions:
REMARK  status: ('A' for Active; 'I' for Inactive)
REMARK    1  A    between atoms: C_6  and  N_1 
REMARK    2  A    between atoms: C_13  and  C_6 
REMARK    3  A    between atoms: O_11  and  C_7 
REMARK    4  A    between atoms: O_19  and  C_8 
REMARK    5  A    between atoms: C_20  and  O_11 
ROOT
ATOM      1  C   UNL d   1     -46.261  12.691  22.940  0.00  0.00     0.122 A 
ATOM      2  C   UNL d   1     -46.582  12.080  23.388  0.00  0.00     0.117 A 
ATOM      3  C   UNL d   1     -47.395  12.051  23.529  0.00  0.00     0.028 A 
ATOM      4  C   UNL d   1     -47.879  12.639  23.217  0.00  0.00     0.020 A 
ATOM      5  C   UNL d   1     -46.755  13.276  22.632  0.00  0.00     0.027 A 
ATOM      6  C   UNL d   1     -47.559  13.246  22.773  0.00  0.00     0.004 A 
ENDROOT
BRANCH   4   7
ATOM      7  C   UNL d   1     -48.690  12.607  23.360  0.00  0.00     0.085 C 
BRANCH   7   8
ATOM      8  N   UNL d   1     -49.220  12.659  22.730  0.00  0.00    -0.251 N 
ATOM      9  C   UNL d   1     -49.369  12.104  22.124  0.00  0.00     0.378 A 
ATOM     10  O   UNL d   1     -49.950  12.418  21.625  0.00  0.00    -0.258 OA
ATOM     11  O   UNL d   1     -48.998  11.374  22.044  0.00  0.00    -0.237 OA
ATOM     12  C   UNL d   1     -50.161  13.164  21.919  0.00  0.00     0.121 A 
ATOM     13  C   UNL d   1     -49.711  13.313  22.601  0.00  0.00     0.092 A 
ATOM     14  C   UNL d   1     -50.704  13.733  21.661  0.00  0.00     0.026 A 
ATOM     15  C   UNL d   1     -49.801  14.016  23.016  0.00  0.00     0.020 A 
ATOM     16  C   UNL d   1     -50.344  14.576  22.750  0.00  0.00     0.002 A 
ATOM     17  C   UNL d   1     -50.794  14.435  22.075  0.00  0.00     0.002 A 
ATOM     18  C   UNL d   1     -50.431  15.283  23.171  0.00  0.00     0.000 C 
ENDBRANCH   7   8
ENDBRANCH   4   7
BRANCH   2  19
ATOM     19  O   UNL d   1     -46.101  11.496  23.697  0.00  0.00    -0.326 OA
ATOM     20  C   UNL d   1     -46.365  10.712  23.698  0.00  0.00     0.181 C 
ENDBRANCH   2  19
BRANCH   1  21
ATOM     21  O   UNL d   1     -45.452  12.723  22.798  0.00  0.00    -0.305 OA
BRANCH  21  22
ATOM     22  C   UNL d   1     -45.158  13.235  22.231  0.00  0.00     0.100 C 
ATOM     23  C   UNL d   1     -44.858  12.943  21.528  0.00  0.00     0.027 C 
ATOM     24  C   UNL d   1     -45.163  14.049  22.369  0.00  0.00     0.027 C 
ENDBRANCH  21  22
ENDBRANCH   1  21
TORSDOF 5
ENDMDL
MODEL 2
REMARK VINA RESULT:      -7.3      1.171      1.655
REMARK  5 active torsions:
REMARK  status: ('A' for Active; 'I' for Inactive)
REMARK    1  A    between atoms: C_6  and  N_1 
REMARK    2  A    between atoms: C_13  and  C_6 
REMARK    3  A    between atoms: O_11  and  C_7 
REMARK    4  A    between atoms: O_19  and  C_8 
REMARK    5  A    between atoms: C_20  and  O_11 
ROOT
ATOM      1  C   UNL d   1     -45.795  12.978  22.754  0.00  0.00     0.122 A 
ATOM      2  C   UNL d   1     -46.279  12.565  23.277  0.00  0.00     0.117 A 
ATOM      3  C   UNL d   1     -47.016  12.869  23.491  0.00  0.00     0.028 A 
ATOM      4  C   UNL d   1     -47.260  13.589  23.176  0.00  0.00     0.020 A 
ATOM      5  C   UNL d   1     -46.051  13.698  22.444  0.00  0.00     0.027 A 
ATOM      6  C   UNL d   1     -46.780  13.998  22.657  0.00  0.00     0.004 A 
ENDROOT
BRANCH   4   7
ATOM      7  C   UNL d   1     -47.997  13.890  23.392  0.00  0.00     0.085 C 
BRANCH   7   8
ATOM      8  N   UNL d   1     -48.568  14.029  22.814  0.00  0.00    -0.251 N 
ATOM      9  C   UNL d   1     -48.617  14.658  22.267  0.00  0.00     0.378 A 
ATOM     10  O   UNL d   1     -49.295  14.545  21.805  0.00  0.00    -0.258 OA
ATOM     11  O   UNL d   1     -48.081  15.279  22.204  0.00  0.00    -0.237 OA
ATOM     12  C   UNL d   1     -49.665  13.850  22.063  0.00  0.00     0.121 A 
ATOM     13  C   UNL d   1     -49.216  13.531  22.686  0.00  0.00     0.092 A 
ATOM     14  C   UNL d   1     -50.352  13.458  21.818  0.00  0.00     0.026 A 
ATOM     15  C   UNL d   1     -49.450  12.836  23.056  0.00  0.00     0.020 A 
ATOM     16  C   UNL d   1     -50.136  12.454  22.804  0.00  0.00     0.002 A 
ATOM     17  C   UNL d   1     -50.585  12.764  22.188  0.00  0.00     0.002 A 
ATOM     18  C   UNL d   1     -50.367  11.753  23.180  0.00  0.00     0.000 C 
ENDBRANCH   7   8
ENDBRANCH   4   7
BRANCH   2  19
ATOM     19  O   UNL d   1     -46.035  11.850  23.590  0.00  0.00    -0.326 OA
ATOM     20  C   UNL d   1     -46.588  11.245  23.698  0.00  0.00     0.181 C 
ENDBRANCH   2  19
BRANCH   1  21
ATOM     21  O   UNL d   1     -45.061  12.677  22.539  0.00  0.00    -0.305 OA
BRANCH  21  22
ATOM     22  C   UNL d   1     -44.673  12.979  21.884  0.00  0.00     0.100 C 
ATOM     23  C   UNL d   1     -44.126  13.580  21.972  0.00  0.00     0.027 C 
ATOM     24  C   UNL d   1     -44.835  12.675  21.134  0.00  0.00     0.027 C 
ENDBRANCH  21  22
ENDBRANCH   1  21
TORSDOF 5
ENDMDL
MODEL 3
REMARK VINA RESULT:      -6.9      1.142      4.319
REMARK  5 active torsions:
REMARK  status: ('A' for Active; 'I' for Inactive)
REMARK    1  A    between atoms: C_6  and  N_1 
REMARK    2  A    between atoms: C_13  and  C_6 
REMARK    3  A    between atoms: O_11  and  C_7 
REMARK    4  A    between atoms: O_19  and  C_8 
REMARK    5  A    between atoms: C_20  and  O_11 
ROOT
ATOM      1  C   UNL d   1     -49.814  13.507  22.489  0.00  0.00     0.122 A 
ATOM      2  C   UNL d   1     -49.550  12.857  22.918  0.00  0.00     0.117 A 
ATOM      3  C   UNL d   1     -48.814  12.876  23.292  0.00  0.00     0.028 A 
ATOM      4  C   UNL d   1     -48.350  13.553  23.230  0.00  0.00     0.020 A 
ATOM      5  C   UNL d   1     -49.340  14.180  22.434  0.00  0.00     0.027 A 
ATOM      6  C   UNL d   1     -48.613  14.198  22.804  0.00  0.00     0.004 A 
ENDROOT
BRANCH   4   7
ATOM      7  C   UNL d   1     -47.615  13.569  23.605  0.00  0.00     0.085 C 
BRANCH   7   8
ATOM      8  N   UNL d   1     -46.925  13.559  23.154  0.00  0.00    -0.251 N 
ATOM      9  C   UNL d   1     -46.608  14.160  22.669  0.00  0.00     0.378 A 
ATOM     10  O   UNL d   1     -45.905  13.877  22.335  0.00  0.00    -0.258 OA
ATOM     11  O   UNL d   1     -46.943  14.902  22.548  0.00  0.00    -0.237 OA
ATOM     12  C   UNL d   1     -45.785  13.105  22.611  0.00  0.00     0.121 A 
ATOM     13  C   UNL d   1     -46.415  12.908  23.117  0.00  0.00     0.092 A 
ATOM     14  C   UNL d   1     -45.188  12.549  22.473  0.00  0.00     0.026 A 
ATOM     15  C   UNL d   1     -46.446  12.171  23.477  0.00  0.00     0.020 A 
ATOM     16  C   UNL d   1     -45.846  11.624  23.332  0.00  0.00     0.002 A 
ATOM     17  C   UNL d   1     -45.220  11.812  22.833  0.00  0.00     0.002 A 
ATOM     18  C   UNL d   1     -45.883  10.882  23.698  0.00  0.00     0.000 C 
ENDBRANCH   7   8
ENDBRANCH   4   7
BRANCH   2  19
ATOM     19  O   UNL d   1     -50.012  12.185  22.979  0.00  0.00    -0.326 OA
ATOM     20  C   UNL d   1     -49.762  11.564  23.465  0.00  0.00     0.181 C 
ENDBRANCH   2  19
BRANCH   1  21
ATOM     21  O   UNL d   1     -50.546  13.491  22.116  0.00  0.00    -0.305 OA
BRANCH  21  22
ATOM     22  C   UNL d   1     -50.882  14.187  21.845  0.00  0.00     0.100 C 
ATOM     23  C   UNL d   1     -51.064  14.786  22.371  0.00  0.00     0.027 C 
ATOM     24  C   UNL d   1     -51.036  14.284  21.040  0.00  0.00     0.027 C 
ENDBRANCH  21  22
ENDBRANCH   1  21
TORSDOF 5
ENDMDL
MODEL 4
REMARK VINA RESULT:      -6.8      1.328      4.513
REMARK  5 active torsions:
REMARK  status: ('A' for Active; 'I' for Inactive)
REMARK    1  A    between atoms: C_6  and  N_1 
REMARK    2  A    between atoms: C_13  and  C_6 
REMARK    3  A    between atoms: O_11  and  C_7 
REMARK    4  A    between atoms: O_19  and  C_8 
REMARK    5  A    between atoms: C_20  and  O_11 
ROOT
ATOM      1  C   UNL d   1     -49.627  13.894  22.497  0.00  0.00     0.122 A 
ATOM      2  C   UNL d   1     -49.287  14.585  22.787  0.00  0.00     0.117 A 
ATOM      3  C   UNL d   1     -48.546  14.564  23.149  0.00  0.00     0.028 A 
ATOM      4  C   UNL d   1     -48.151  13.846  23.216  0.00  0.00     0.020 A 
ATOM      5  C   UNL d   1     -49.223  13.178  22.570  0.00  0.00     0.027 A 
ATOM      6  C   UNL d   1     -48.489  13.160  22.928  0.00  0.00     0.004 A 
ENDROOT
BRANCH   4   7
ATOM      7  C   UNL d   1     -47.410  13.829  23.578  0.00  0.00     0.085 C 
BRANCH   7   8
ATOM      8  N   UNL d   1     -46.732  13.733  23.118  0.00  0.00    -0.251 N 
ATOM      9  C   UNL d   1     -46.356  14.286  22.618  0.00  0.00     0.378 A 
ATOM     10  O   UNL d   1     -45.695  13.919  22.281  0.00  0.00    -0.258 OA
ATOM     11  O   UNL d   1     -46.606  15.059  22.489  0.00  0.00    -0.237 OA
ATOM     12  C   UNL d   1     -45.660  13.143  22.570  0.00  0.00     0.121 A 
ATOM     13  C   UNL d   1     -46.300  13.028  23.087  0.00  0.00     0.092 A 
ATOM     14  C   UNL d   1     -45.132  12.520  22.434  0.00  0.00     0.026 A 
ATOM     15  C   UNL d   1     -46.410  12.305  23.460  0.00  0.00     0.020 A 
ATOM     16  C   UNL d   1     -45.878  11.691  23.319  0.00  0.00     0.002 A 
ATOM     17  C   UNL d   1     -45.242  11.798  22.808  0.00  0.00     0.002 A 
ATOM     18  C   UNL d   1     -45.993  10.964  23.698  0.00  0.00     0.000 C 
ENDBRANCH   7   8
ENDBRANCH   4   7
BRANCH   2  19
ATOM     19  O   UNL d   1     -49.680  15.299  22.720  0.00  0.00    -0.326 OA
ATOM     20  C   UNL d   1     -49.632  15.847  23.337  0.00  0.00     0.181 C 
ENDBRANCH   2  19
BRANCH   1  21
ATOM     21  O   UNL d   1     -50.365  13.911  22.137  0.00  0.00    -0.305 OA
BRANCH  21  22
ATOM     22  C   UNL d   1     -50.701  13.217  21.860  0.00  0.00     0.100 C 
ATOM     23  C   UNL d   1     -51.064  12.701  22.380  0.00  0.00     0.027 C 
ATOM     24  C   UNL d   1     -50.671  13.038  21.055  0.00  0.00     0.027 C 
ENDBRANCH  21  22
ENDBRANCH   1  21
TORSDOF 5
ENDMDL
MODEL 5
REMARK VINA RESULT:      -6.5      1.251      2.280
REMARK  5 active torsions:
REMARK  status: ('A' for Active; 'I' for Inactive)
REMARK    1  A    between atoms: C_6  and  N_1 
REMARK    2  A    between atoms: C_13  and  C_6 
REMARK    3  A    between atoms: O_11  and  C_7 
REMARK    4  A    between atoms: O_19  and  C_8 
REMARK    5  A    between atoms: C_20  and  O_11 
ROOT
ATOM      1  C   UNL d   1     -46.288  12.315  23.174  0.00  0.00     0.122 A 
ATOM      2  C   UNL d   1     -46.018  12.782  22.552  0.00  0.00     0.117 A 
ATOM      3  C   UNL d   1     -46.550  13.234  22.111  0.00  0.00     0.028 A 
ATOM      4  C   UNL d   1     -47.350  13.213  22.302  0.00  0.00     0.020 A 
ATOM      5  C   UNL d   1     -47.092  12.301  23.356  0.00  0.00     0.027 A 
ATOM      6  C   UNL d   1     -47.617  12.749  22.919  0.00  0.00     0.004 A 
ENDROOT
BRANCH   4   7
ATOM      7  C   UNL d   1     -47.879  13.666  21.859  0.00  0.00     0.085 C 
BRANCH   7   8
ATOM      8  N   UNL d   1     -48.352  14.227  22.235  0.00  0.00    -0.251 N 
ATOM      9  C   UNL d   1     -48.121  14.917  22.644  0.00  0.00     0.378 A 
ATOM     10  O   UNL d   1     -48.805  15.293  22.920  0.00  0.00    -0.258 OA
ATOM     11  O   UNL d   1     -47.346  15.173  22.748  0.00  0.00    -0.237 OA
ATOM     12  C   UNL d   1     -49.457  14.839  22.686  0.00  0.00     0.121 A 
ATOM     13  C   UNL d   1     -49.178  14.180  22.263  0.00  0.00     0.092 A 
ATOM     14  C   UNL d   1     -50.272  14.932  22.797  0.00  0.00     0.026 A 
ATOM     15  C   UNL d   1     -49.702  13.627  21.958  0.00  0.00     0.020 A 
ATOM     16  C   UNL d   1     -50.512  13.728  22.075  0.00  0.00     0.002 A 
ATOM     17  C   UNL d   1     -50.796  14.378  22.493  0.00  0.00     0.002 A 
ATOM     18  C   UNL d   1     -51.037  13.167  21.766  0.00  0.00     0.000 C 
ENDBRANCH   7   8
ENDBRANCH   4   7
BRANCH   2  19
ATOM     19  O   UNL d   1     -45.223  12.803  22.363  0.00  0.00    -0.326 OA
ATOM     20  C   UNL d   1     -44.881  13.518  22.129  0.00  0.00     0.181 C 
ENDBRANCH   2  19
BRANCH   1  21
ATOM     21  O   UNL d   1     -45.761  11.864  23.614  0.00  0.00    -0.305 OA
BRANCH  21  22
ATOM     22  C   UNL d   1     -45.852  11.051  23.651  0.00  0.00     0.100 C 
ATOM     23  C   UNL d   1     -46.599  10.723  23.697  0.00  0.00     0.027 C 
ATOM     24  C   UNL d   1     -45.187  10.561  23.641  0.00  0.00     0.027 C 
ENDBRANCH  21  22
ENDBRANCH   1  21
TORSDOF 5
ENDMDL
MODEL 6
REMARK VINA RESULT:      -6.5      7.738      9.966
REMARK  5 active torsions:
REMARK  status: ('A' for Active; 'I' for Inactive)
REMARK    1  A    between atoms: C_6  and  N_1 
REMARK    2  A    between atoms: C_13  and  C_6 
REMARK    3  A    between atoms: O_11  and  C_7 
REMARK    4  A    between atoms: O_19  and  C_8 
REMARK    5  A    between atoms: C_20  and  O_11 
ROOT
ATOM      1  C   UNL d   1     -39.739  15.177  21.035  0.00  0.00     0.122 A 
ATOM      2  C   UNL d   1     -40.520  15.177  20.773  0.00  0.00     0.117 A 
ATOM      3  C   UNL d   1     -40.711  14.851  20.039  0.00  0.00     0.028 A 
ATOM      4  C   UNL d   1     -40.114  14.528  19.574  0.00  0.00     0.020 A 
ATOM      5  C   UNL d   1     -39.149  14.851  20.561  0.00  0.00     0.027 A 
ATOM      6  C   UNL d   1     -39.340  14.529  19.835  0.00  0.00     0.004 A 
ENDROOT
BRANCH   4   7
ATOM      7  C   UNL d   1     -40.309  14.203  18.842  0.00  0.00     0.085 C 
BRANCH   7   8
ATOM      8  N   UNL d   1     -39.933  14.475  18.160  0.00  0.00    -0.251 N 
ATOM      9  C   UNL d   1     -40.014  15.211  17.775  0.00  0.00     0.378 A 
ATOM     10  O   UNL d   1     -39.517  15.212  17.113  0.00  0.00    -0.258 OA
ATOM     11  O   UNL d   1     -40.506  15.825  18.018  0.00  0.00    -0.237 OA
ATOM     12  C   UNL d   1     -39.128  14.480  17.087  0.00  0.00     0.121 A 
ATOM     13  C   UNL d   1     -39.385  14.025  17.733  0.00  0.00     0.092 A 
ATOM     14  C   UNL d   1     -38.573  14.161  16.563  0.00  0.00     0.026 A 
ATOM     15  C   UNL d   1     -39.093  13.267  17.852  0.00  0.00     0.020 A 
ATOM     16  C   UNL d   1     -38.540  12.958  17.324  0.00  0.00     0.002 A 
ATOM     17  C   UNL d   1     -38.281  13.404  16.682  0.00  0.00     0.002 A 
ATOM     18  C   UNL d   1     -38.248  12.194  17.449  0.00  0.00     0.000 C 
ENDBRANCH   7   8
ENDBRANCH   4   7
BRANCH   2  19
ATOM     19  O   UNL d   1     -41.112  15.499  21.235  0.00  0.00    -0.326 OA
ATOM     20  C   UNL d   1     -41.724  15.921  20.873  0.00  0.00     0.181 C 
ENDBRANCH   2  19
BRANCH   1  21
ATOM     21  O   UNL d   1     -39.546  15.501  21.765  0.00  0.00    -0.305 OA
BRANCH  21  22
ATOM     22  C   UNL d   1     -38.800  15.379  22.080  0.00  0.00     0.100 C 
ATOM     23  C   UNL d   1     -38.651  14.720  22.542  0.00  0.00     0.027 C 
ATOM     24  C   UNL d   1     -38.196  15.922  21.931  0.00  0.00     0.027 C 
ENDBRANCH  21  22
ENDBRANCH   1  21
TORSDOF 5
ENDMDL
MODEL 7
REMARK VINA RESULT:      -6.1      7.713     10.105
REMARK  5 active torsions:
REMARK  status: ('A' for Active; 'I' for Inactive)
REMARK    1  A    between atoms: C_6  and  N_1 
REMARK    2  A    between atoms: C_13  and  C_6 
REMARK    3  A    between atoms: O_11  and  C_7 
REMARK    4  A    between atoms: O_19  and  C_8 
REMARK    5  A    between atoms: C_20  and  O_11 
ROOT
ATOM      1  C   UNL d   1     -39.392  14.930  17.048  0.00  0.00     0.122 A 
ATOM      2  C   UNL d   1     -40.143  15.111  17.331  0.00  0.00     0.117 A 
ATOM      3  C   UNL d   1     -40.238  15.425  18.088  0.00  0.00     0.028 A 
ATOM      4  C   UNL d   1     -39.574  15.555  18.556  0.00  0.00     0.020 A 
ATOM      5  C   UNL d   1     -38.732  15.064  17.525  0.00  0.00     0.027 A 
ATOM      6  C   UNL d   1     -38.828  15.376  18.275  0.00  0.00     0.004 A 
ENDROOT
BRANCH   4   7
ATOM      7  C   UNL d   1     -39.672  15.870  19.312  0.00  0.00     0.085 C 
BRANCH   7   8
ATOM      8  N   UNL d   1     -39.345  15.483  19.962  0.00  0.00    -0.251 N 
ATOM      9  C   UNL d   1     -38.557  15.499  20.239  0.00  0.00     0.378 A 
ATOM     10  O   UNL d   1     -38.511  15.018  20.911  0.00  0.00    -0.258 OA
ATOM     11  O   UNL d   1     -37.940  15.922  19.897  0.00  0.00    -0.237 OA
ATOM     12  C   UNL d   1     -39.265  14.704  21.051  0.00  0.00     0.121 A 
ATOM     13  C   UNL d   1     -39.781  14.991  20.466  0.00  0.00     0.092 A 
ATOM     14  C   UNL d   1     -39.560  14.194  21.634  0.00  0.00     0.026 A 
ATOM     15  C   UNL d   1     -40.572  14.773  20.462  0.00  0.00     0.020 A 
ATOM     16  C   UNL d   1     -40.855  14.265  21.047  0.00  0.00     0.002 A 
ATOM     17  C   UNL d   1     -40.351  13.977  21.630  0.00  0.00     0.002 A 
ATOM     18  C   UNL d   1     -41.654  14.048  21.039  0.00  0.00     0.000 C 
ENDBRANCH   7   8
ENDBRANCH   4   7
BRANCH   2  19
ATOM     19  O   UNL d   1     -40.803  14.981  16.866  0.00  0.00    -0.326 OA
ATOM     20  C   UNL d   1     -41.403  15.549  16.847  0.00  0.00     0.181 C 
ENDBRANCH   2  19
BRANCH   1  21
ATOM     21  O   UNL d   1     -39.294  14.617  16.295  0.00  0.00    -0.305 OA
BRANCH  21  22
ATOM     22  C   UNL d   1     -38.544  14.429  16.025  0.00  0.00     0.100 C 
ATOM     23  C   UNL d   1     -38.070  15.007  15.694  0.00  0.00     0.027 C 
ATOM     24  C   UNL d   1     -38.266  13.654  16.088  0.00  0.00     0.027 C 
ENDBRANCH  21  22
ENDBRANCH   1  21
TORSDOF 5
ENDMDL
MODEL 8
REMARK VINA RESULT:      -6.1      1.155      4.127
REMARK  5 active torsions:
REMARK  status: ('A' for Active; 'I' for Inactive)
REMARK    1  A    between atoms: C_6  and  N_1 
REMARK    2  A    between atoms: C_13  and  C_6 
REMARK    3  A    between atoms: O_11  and  C_7 
REMARK    4  A    between atoms: O_19  and  C_8 
REMARK    5  A    between atoms: C_20  and  O_11 
ROOT
ATOM      1  C   UNL d   1     -49.952  13.863  23.113  0.00  0.00     0.122 A 
ATOM      2  C   UNL d   1     -50.068  13.051  23.189  0.00  0.00     0.117 A 
ATOM      3  C   UNL d   1     -49.503  12.522  22.903  0.00  0.00     0.028 A 
ATOM      4  C   UNL d   1     -48.823  12.815  22.543  0.00  0.00     0.020 A 
ATOM      5  C   UNL d   1     -49.268  14.145  22.750  0.00  0.00     0.027 A 
ATOM      6  C   UNL d   1     -48.709  13.620  22.469  0.00  0.00     0.004 A 
ENDROOT
BRANCH   4   7
ATOM      7  C   UNL d   1     -48.260  12.283  22.260  0.00  0.00     0.085 C 
BRANCH   7   8
ATOM      8  N   UNL d   1     -47.655  12.024  22.756  0.00  0.00    -0.251 N 
ATOM      9  C   UNL d   1     -47.685  11.452  23.363  0.00  0.00     0.378 A 
ATOM     10  O   UNL d   1     -46.930  11.392  23.697  0.00  0.00    -0.258 OA
ATOM     11  O   UNL d   1     -48.353  11.026  23.585  0.00  0.00    -0.237 OA
ATOM     12  C   UNL d   1     -46.433  11.924  23.300  0.00  0.00     0.121 A 
ATOM     13  C   UNL d   1     -46.881  12.314  22.719  0.00  0.00     0.092 A 
ATOM     14  C   UNL d   1     -45.631  12.110  23.385  0.00  0.00     0.026 A 
ATOM     15  C   UNL d   1     -46.533  12.878  22.233  0.00  0.00     0.020 A 
ATOM     16  C   UNL d   1     -45.734  13.056  22.327  0.00  0.00     0.002 A 
ATOM     17  C   UNL d   1     -45.285  12.673  22.900  0.00  0.00     0.002 A 
ATOM     18  C   UNL d   1     -45.388  13.625  21.835  0.00  0.00     0.000 C 
ENDBRANCH   7   8
ENDBRANCH   4   7
BRANCH   2  19
ATOM     19  O   UNL d   1     -50.744  12.761  23.547  0.00  0.00    -0.326 OA
ATOM     20  C   UNL d   1     -51.064  12.045  23.286  0.00  0.00     0.181 C 
ENDBRANCH   2  19
BRANCH   1  21
ATOM     21  O   UNL d   1     -50.514  14.392  23.396  0.00  0.00    -0.305 OA
BRANCH  21  22
ATOM     22  C   UNL d   1     -50.438  15.191  23.235  0.00  0.00     0.100 C 
ATOM     23  C   UNL d   1     -49.804  15.613  23.535  0.00  0.00     0.027 C 
ATOM     24  C   UNL d   1     -51.003  15.573  22.769  0.00  0.00     0.027 C 
ENDBRANCH  21  22
ENDBRANCH   1  21
TORSDOF 5
ENDMDL
MODEL 9
REMARK VINA RESULT:      -6.0      8.689     10.028
REMARK  5 active torsions:
REMARK  status: ('A' for Active; 'I' for Inactive)
REMARK    1  A    between atoms: C_6  and  N_1 
REMARK    2  A    between atoms: C_13  and  C_6 
REMARK    3  A    between atoms: O_11  and  C_7 
REMARK    4  A    between atoms: O_19  and  C_8 
REMARK    5  A    between atoms: C_20  and  O_11 
ROOT
ATOM      1  C   UNL d   1     -38.555  14.083  17.063  0.00  0.00     0.122 A 
ATOM      2  C   UNL d   1     -38.538  13.517  17.660  0.00  0.00     0.117 A 
ATOM      3  C   UNL d   1     -39.126  13.507  18.240  0.00  0.00     0.028 A 
ATOM      4  C   UNL d   1     -39.726  14.069  18.214  0.00  0.00     0.020 A 
ATOM      5  C   UNL d   1     -39.162  14.642  17.046  0.00  0.00     0.027 A 
ATOM      6  C   UNL d   1     -39.742  14.631  17.621  0.00  0.00     0.004 A 
ENDROOT
BRANCH   4   7
ATOM      7  C   UNL d   1     -40.311  14.056  18.795  0.00  0.00     0.085 C 
BRANCH   7   8
ATOM      8  N   UNL d   1     -40.419  14.712  19.282  0.00  0.00    -0.251 N 
ATOM      9  C   UNL d   1     -40.762  15.451  19.098  0.00  0.00     0.378 A 
ATOM     10  O   UNL d   1     -40.740  15.922  19.778  0.00  0.00    -0.258 OA
ATOM     11  O   UNL d   1     -41.067  15.665  18.364  0.00  0.00    -0.237 OA
ATOM     12  C   UNL d   1     -40.385  15.479  20.382  0.00  0.00     0.121 A 
ATOM     13  C   UNL d   1     -40.187  14.732  20.076  0.00  0.00     0.092 A 
ATOM     14  C   UNL d   1     -40.213  15.651  21.173  0.00  0.00     0.026 A 
ATOM     15  C   UNL d   1     -39.825  14.169  20.552  0.00  0.00     0.020 A 
ATOM     16  C   UNL d   1     -39.658  14.350  21.339  0.00  0.00     0.002 A 
ATOM     17  C   UNL d   1     -39.851  15.088  21.648  0.00  0.00     0.002 A 
ATOM     18  C   UNL d   1     -39.292  13.779  21.814  0.00  0.00     0.000 C 
ENDBRANCH   7   8
ENDBRANCH   4   7
BRANCH   2  19
ATOM     19  O   UNL d   1     -37.941  12.959  17.685  0.00  0.00    -0.326 OA
ATOM     20  C   UNL d   1     -38.118  12.187  17.922  0.00  0.00     0.181 C 
ENDBRANCH   2  19
BRANCH   1  21
ATOM     21  O   UNL d   1     -37.972  14.096  16.484  0.00  0.00    -0.305 OA
BRANCH  21  22
ATOM     22  C   UNL d   1     -38.027  14.625  15.861  0.00  0.00     0.100 C 
ATOM     23  C   UNL d   1     -38.168  14.353  15.103  0.00  0.00     0.027 C 
ATOM     24  C   UNL d   1     -37.940  15.434  15.999  0.00  0.00     0.027 C 
ENDBRANCH  21  22
ENDBRANCH   1  21
TORSDOF 5
ENDMDL
