MODEL 1
REMARK VINA RESULT:      -7.4      0.000      0.000
REMARK  4 active torsions:
REMARK  status: ('A' for Active; 'I' for Inactive)
REMARK    1  A    between atoms: C_7  and  C_1 
REMARK    2  A    between atoms: C_6  and  N_2 
REMARK    3  A    between atoms: C_8  and  C_6 
REMARK    4  A    between atoms: C_9  and  C_7 
ROOT
ATOM      1  C   UNL d   1     -49.044  13.380  23.124  0.00  0.00     0.148 A 
ATOM      2  N   UNL d   1     -48.284  13.185  23.223  0.00  0.00    -0.289 N 
ATOM      3  N   UNL d   1     -49.533  12.766  23.208  0.00  0.00    -0.227 NA
ATOM      4  C   UNL d   1     -48.263  12.341  23.393  0.00  0.00     0.083 A 
ATOM      5  C   UNL d   1     -49.020  12.087  23.384  0.00  0.00     0.099 A 
ATOM      6  C   UNL d   1     -47.676  11.801  23.547  0.00  0.00     0.019 A 
ATOM      7  C   UNL d   1     -49.241  11.277  23.528  0.00  0.00     0.021 A 
ATOM      8  C   UNL d   1     -47.823  11.015  23.692  0.00  0.00     0.002 A 
ATOM      9  C   UNL d   1     -48.579  10.761  23.683  0.00  0.00     0.002 A 
ENDROOT
BRANCH   2  10
ATOM     10  C   UNL d   1     -47.746  13.762  23.150  0.00  0.00     0.082 C 
BRANCH  10  11
ATOM     11  C   UNL d   1     -47.026  13.638  22.816  0.00  0.00     0.018 A 
ATOM     12  C   UNL d   1     -46.352  13.726  23.284  0.00  0.00     0.002 A 
ATOM     13  C   UNL d   1     -45.583  13.606  22.973  0.00  0.00     0.000 A 
ATOM     14  C   UNL d   1     -45.530  13.392  22.163  0.00  0.00     0.000 A 
ATOM     15  C   UNL d   1     -46.204  13.304  21.695  0.00  0.00     0.000 A 
ATOM     16  C   UNL d   1     -44.759  13.271  21.848  0.00  0.00     0.000 C 
ATOM     17  C   UNL d   1     -46.930  13.430  22.038  0.00  0.00     0.002 A 
ENDBRANCH  10  11
ENDBRANCH   2  10
BRANCH   1  18
ATOM     18  C   UNL d   1     -48.866  14.152  22.984  0.00  0.00     0.037 C 
BRANCH  18  19
ATOM     19  C   UNL d   1     -49.477  14.707  22.955  0.00  0.00     0.003 A 
ATOM     20  C   UNL d   1     -49.969  14.746  22.292  0.00  0.00     0.000 A 
ATOM     21  C   UNL d   1     -50.579  15.300  22.263  0.00  0.00     0.000 A 
ATOM     22  C   UNL d   1     -50.699  15.816  22.896  0.00  0.00     0.000 A 
ATOM     23  C   UNL d   1     -50.212  15.792  23.577  0.00  0.00     0.000 A 
ATOM     24  C   UNL d   1     -49.597  15.222  23.588  0.00  0.00     0.000 A 
ENDBRANCH  18  19
ENDBRANCH   1  18
TORSDOF 4
ENDMDL
MODEL 2
REMARK VINA RESULT:      -7.3      0.647      3.575
REMARK  4 active torsions:
REMARK  status: ('A' for Active; 'I' for Inactive)
REMARK    1  A    between atoms: C_7  and  C_1 
REMARK    2  A    between atoms: C_6  and  N_2 
REMARK    3  A    between atoms: C_8  and  C_6 
REMARK    4  A    between atoms: C_9  and  C_7 
ROOT
ATOM      1  C   UNL d   1     -47.750  12.825  22.858  0.00  0.00     0.148 A 
ATOM      2  N   UNL d   1     -48.489  13.077  22.729  0.00  0.00    -0.289 N 
ATOM      3  N   UNL d   1     -47.722  12.120  23.214  0.00  0.00    -0.227 NA
ATOM      4  C   UNL d   1     -49.016  12.468  23.034  0.00  0.00     0.083 A 
ATOM      5  C   UNL d   1     -48.552  11.889  23.327  0.00  0.00     0.099 A 
ATOM      6  C   UNL d   1     -49.822  12.377  23.077  0.00  0.00     0.019 A 
ATOM      7  C   UNL d   1     -48.863  11.180  23.683  0.00  0.00     0.021 A 
ATOM      8  C   UNL d   1     -50.179  11.724  23.404  0.00  0.00     0.002 A 
ATOM      9  C   UNL d   1     -49.715  11.145  23.698  0.00  0.00     0.002 A 
ENDROOT
BRANCH   2  10
ATOM     10  C   UNL d   1     -48.579  13.780  22.374  0.00  0.00     0.082 C 
BRANCH  10  11
ATOM     11  C   UNL d   1     -49.157  14.296  22.584  0.00  0.00     0.018 A 
ATOM     12  C   UNL d   1     -49.047  14.760  23.257  0.00  0.00     0.002 A 
ATOM     13  C   UNL d   1     -49.627  15.311  23.510  0.00  0.00     0.000 A 
ATOM     14  C   UNL d   1     -50.324  15.367  23.047  0.00  0.00     0.000 A 
ATOM     15  C   UNL d   1     -50.434  14.903  22.373  0.00  0.00     0.000 A 
ATOM     16  C   UNL d   1     -50.908  15.920  23.299  0.00  0.00     0.000 C 
ATOM     17  C   UNL d   1     -49.846  14.383  22.165  0.00  0.00     0.002 A 
ENDBRANCH  10  11
ENDBRANCH   2  10
BRANCH   1  18
ATOM     18  C   UNL d   1     -47.428  13.484  22.527  0.00  0.00     0.037 C 
BRANCH  18  19
ATOM     19  C   UNL d   1     -46.611  13.519  22.416  0.00  0.00     0.003 A 
ATOM     20  C   UNL d   1     -46.179  14.155  22.720  0.00  0.00     0.000 A 
ATOM     21  C   UNL d   1     -45.362  14.191  22.608  0.00  0.00     0.000 A 
ATOM     22  C   UNL d   1     -44.976  13.591  22.193  0.00  0.00     0.000 A 
ATOM     23  C   UNL d   1     -45.395  12.938  21.877  0.00  0.00     0.000 A 
ATOM     24  C   UNL d   1     -46.225  12.920  22.001  0.00  0.00     0.000 A 
ENDBRANCH  18  19
ENDBRANCH   1  18
TORSDOF 4
ENDMDL
MODEL 3
REMARK VINA RESULT:      -6.5      9.188     10.453
REMARK  4 active torsions:
REMARK  status: ('A' for Active; 'I' for Inactive)
REMARK    1  A    between atoms: C_7  and  C_1 
REMARK    2  A    between atoms: C_6  and  N_2 
REMARK    3  A    between atoms: C_8  and  C_6 
REMARK    4  A    between atoms: C_9  and  C_7 
ROOT
ATOM      1  C   UNL d   1     -38.751  14.088  19.343  0.00  0.00     0.148 A 
ATOM      2  N   UNL d   1     -38.872  14.367  18.613  0.00  0.00    -0.289 N 
ATOM      3  N   UNL d   1     -38.412  13.375  19.348  0.00  0.00    -0.227 NA
ATOM      4  C   UNL d   1     -38.579  13.770  18.066  0.00  0.00     0.083 A 
ATOM      5  C   UNL d   1     -38.301  13.169  18.511  0.00  0.00     0.099 A 
ATOM      6  C   UNL d   1     -38.536  13.706  17.257  0.00  0.00     0.019 A 
ATOM      7  C   UNL d   1     -37.959  12.463  18.177  0.00  0.00     0.021 A 
ATOM      8  C   UNL d   1     -38.221  13.058  16.880  0.00  0.00     0.002 A 
ATOM      9  C   UNL d   1     -37.943  12.457  17.325  0.00  0.00     0.002 A 
ENDROOT
BRANCH   2  10
ATOM     10  C   UNL d   1     -39.211  15.081  18.546  0.00  0.00     0.082 C 
BRANCH  10  11
ATOM     11  C   UNL d   1     -39.803  15.228  18.024  0.00  0.00     0.018 A 
ATOM     12  C   UNL d   1     -39.659  15.743  17.396  0.00  0.00     0.002 A 
ATOM     13  C   UNL d   1     -40.250  15.922  16.830  0.00  0.00     0.000 A 
ATOM     14  C   UNL d   1     -40.997  15.553  16.932  0.00  0.00     0.000 A 
ATOM     15  C   UNL d   1     -41.142  15.039  17.560  0.00  0.00     0.000 A 
ATOM     16  C   UNL d   1     -41.593  15.732  16.364  0.00  0.00     0.000 C 
ATOM     17  C   UNL d   1     -40.540  14.893  18.085  0.00  0.00     0.002 A 
ENDBRANCH  10  11
ENDBRANCH   2  10
BRANCH   1  18
ATOM     18  C   UNL d   1     -39.068  14.743  19.686  0.00  0.00     0.037 C 
BRANCH  18  19
ATOM     19  C   UNL d   1     -39.019  14.831  20.505  0.00  0.00     0.003 A 
ATOM     20  C   UNL d   1     -39.557  14.440  20.996  0.00  0.00     0.000 A 
ATOM     21  C   UNL d   1     -39.507  14.529  21.816  0.00  0.00     0.000 A 
ATOM     22  C   UNL d   1     -38.921  15.007  22.145  0.00  0.00     0.000 A 
ATOM     23  C   UNL d   1     -38.367  15.412  21.664  0.00  0.00     0.000 A 
ATOM     24  C   UNL d   1     -38.433  15.310  20.834  0.00  0.00     0.000 A 
ENDBRANCH  18  19
ENDBRANCH   1  18
TORSDOF 4
ENDMDL
MODEL 4
REMARK VINA RESULT:      -6.5      1.597      4.574
REMARK  4 active torsions:
REMARK  status: ('A' for Active; 'I' for Inactive)
REMARK    1  A    between atoms: C_7  and  C_1 
REMARK    2  A    between atoms: C_6  and  N_2 
REMARK    3  A    between atoms: C_8  and  C_6 
REMARK    4  A    between atoms: C_9  and  C_7 
ROOT
ATOM      1  C   UNL d   1     -46.315  12.689  23.093  0.00  0.00     0.148 A 
ATOM      2  N   UNL d   1     -47.095  12.803  23.170  0.00  0.00    -0.289 N 
ATOM      3  N   UNL d   1     -45.929  13.343  22.875  0.00  0.00    -0.227 NA
ATOM      4  C   UNL d   1     -47.246  13.629  22.981  0.00  0.00     0.083 A 
ATOM      5  C   UNL d   1     -46.541  13.956  22.802  0.00  0.00     0.099 A 
ATOM      6  C   UNL d   1     -47.909  14.098  22.952  0.00  0.00     0.019 A 
ATOM      7  C   UNL d   1     -46.450  14.774  22.582  0.00  0.00     0.021 A 
ATOM      8  C   UNL d   1     -47.887  14.885  22.750  0.00  0.00     0.002 A 
ATOM      9  C   UNL d   1     -47.182  15.212  22.571  0.00  0.00     0.002 A 
ENDROOT
BRANCH   2  10
ATOM     10  C   UNL d   1     -47.535  12.181  23.388  0.00  0.00     0.082 C 
BRANCH  10  11
ATOM     11  C   UNL d   1     -48.294  12.085  23.144  0.00  0.00     0.018 A 
ATOM     12  C   UNL d   1     -48.901  12.163  23.698  0.00  0.00     0.002 A 
ATOM     13  C   UNL d   1     -49.706  12.071  23.484  0.00  0.00     0.000 A 
ATOM     14  C   UNL d   1     -49.866  11.896  22.679  0.00  0.00     0.000 A 
ATOM     15  C   UNL d   1     -49.260  11.819  22.125  0.00  0.00     0.000 A 
ATOM     16  C   UNL d   1     -50.675  11.803  22.461  0.00  0.00     0.000 C 
ATOM     17  C   UNL d   1     -48.494  11.916  22.376  0.00  0.00     0.002 A 
ENDBRANCH  10  11
ENDBRANCH   2  10
BRANCH   1  18
ATOM     18  C   UNL d   1     -46.371  11.913  23.297  0.00  0.00     0.037 C 
BRANCH  18  19
ATOM     19  C   UNL d   1     -45.688  11.450  23.305  0.00  0.00     0.003 A 
ATOM     20  C   UNL d   1     -45.688  10.719  23.691  0.00  0.00     0.000 A 
ATOM     21  C   UNL d   1     -45.004  10.256  23.698  0.00  0.00     0.000 A 
ATOM     22  C   UNL d   1     -44.321  10.522  23.320  0.00  0.00     0.000 A 
ATOM     23  C   UNL d   1     -44.301  11.260  22.923  0.00  0.00     0.000 A 
ATOM     24  C   UNL d   1     -45.005  11.717  22.927  0.00  0.00     0.000 A 
ENDBRANCH  18  19
ENDBRANCH   1  18
TORSDOF 4
ENDMDL
MODEL 5
REMARK VINA RESULT:      -6.2      8.630     10.046
REMARK  4 active torsions:
REMARK  status: ('A' for Active; 'I' for Inactive)
REMARK    1  A    between atoms: C_7  and  C_1 
REMARK    2  A    between atoms: C_6  and  N_2 
REMARK    3  A    between atoms: C_8  and  C_6 
REMARK    4  A    between atoms: C_9  and  C_7 
ROOT
ATOM      1  C   UNL d   1     -40.198  15.216  19.190  0.00  0.00     0.148 A 
ATOM      2  N   UNL d   1     -39.798  15.109  18.515  0.00  0.00    -0.289 N 
ATOM      3  N   UNL d   1     -40.921  15.513  19.075  0.00  0.00    -0.227 NA
ATOM      4  C   UNL d   1     -40.315  15.364  17.876  0.00  0.00     0.083 A 
ATOM      5  C   UNL d   1     -40.995  15.609  18.215  0.00  0.00     0.099 A 
ATOM      6  C   UNL d   1     -40.251  15.401  17.067  0.00  0.00     0.019 A 
ATOM      7  C   UNL d   1     -41.656  15.908  17.768  0.00  0.00     0.021 A 
ATOM      8  C   UNL d   1     -40.847  15.676  16.586  0.00  0.00     0.002 A 
ATOM      9  C   UNL d   1     -41.526  15.921  16.925  0.00  0.00     0.002 A 
ENDROOT
BRANCH   2  10
ATOM     10  C   UNL d   1     -39.065  14.812  18.568  0.00  0.00     0.082 C 
BRANCH  10  11
ATOM     11  C   UNL d   1     -38.803  14.226  18.086  0.00  0.00     0.018 A 
ATOM     12  C   UNL d   1     -38.239  14.408  17.513  0.00  0.00     0.002 A 
ATOM     13  C   UNL d   1     -37.940  13.826  16.990  0.00  0.00     0.000 A 
ATOM     14  C   UNL d   1     -38.242  13.048  17.076  0.00  0.00     0.000 A 
ATOM     15  C   UNL d   1     -38.807  12.865  17.649  0.00  0.00     0.000 A 
ATOM     16  C   UNL d   1     -37.943  12.460  16.552  0.00  0.00     0.000 C 
ATOM     17  C   UNL d   1     -39.069  13.461  18.135  0.00  0.00     0.002 A 
ENDBRANCH  10  11
ENDBRANCH   2  10
BRANCH   1  18
ATOM     18  C   UNL d   1     -39.590  14.939  19.637  0.00  0.00     0.037 C 
BRANCH  18  19
ATOM     19  C   UNL d   1     -39.629  15.015  20.459  0.00  0.00     0.003 A 
ATOM     20  C   UNL d   1     -39.889  14.380  20.920  0.00  0.00     0.000 A 
ATOM     21  C   UNL d   1     -39.927  14.456  21.742  0.00  0.00     0.000 A 
ATOM     22  C   UNL d   1     -39.706  15.165  22.102  0.00  0.00     0.000 A 
ATOM     23  C   UNL d   1     -39.440  15.819  21.651  0.00  0.00     0.000 A 
ATOM     24  C   UNL d   1     -39.408  15.723  20.819  0.00  0.00     0.000 A 
ENDBRANCH  18  19
ENDBRANCH   1  18
TORSDOF 4
ENDMDL
MODEL 6
REMARK VINA RESULT:      -5.8      8.041     10.166
REMARK  4 active torsions:
REMARK  status: ('A' for Active; 'I' for Inactive)
REMARK    1  A    between atoms: C_7  and  C_1 
REMARK    2  A    between atoms: C_6  and  N_2 
REMARK    3  A    between atoms: C_8  and  C_6 
REMARK    4  A    between atoms: C_9  and  C_7 
ROOT
ATOM      1  C   UNL d   1     -39.520  14.584  19.201  0.00  0.00     0.148 A 
ATOM      2  N   UNL d   1     -39.336  14.768  19.949  0.00  0.00    -0.289 N 
ATOM      3  N   UNL d   1     -40.242  14.828  18.994  0.00  0.00    -0.227 NA
ATOM      4  C   UNL d   1     -40.014  15.183  20.279  0.00  0.00     0.083 A 
ATOM      5  C   UNL d   1     -40.563  15.220  19.700  0.00  0.00     0.099 A 
ATOM      6  C   UNL d   1     -40.189  15.515  20.999  0.00  0.00     0.019 A 
ATOM      7  C   UNL d   1     -41.323  15.590  19.804  0.00  0.00     0.021 A 
ATOM      8  C   UNL d   1     -40.896  15.883  21.159  0.00  0.00     0.002 A 
ATOM      9  C   UNL d   1     -41.445  15.919  20.581  0.00  0.00     0.002 A 
ENDROOT
BRANCH   2  10
ATOM     10  C   UNL d   1     -38.622  14.548  20.214  0.00  0.00     0.082 C 
BRANCH  10  11
ATOM     11  C   UNL d   1     -38.506  14.274  20.960  0.00  0.00     0.018 A 
ATOM     12  C   UNL d   1     -38.082  14.742  21.491  0.00  0.00     0.002 A 
ATOM     13  C   UNL d   1     -37.940  14.492  22.279  0.00  0.00     0.000 A 
ATOM     14  C   UNL d   1     -38.249  13.745  22.501  0.00  0.00     0.000 A 
ATOM     15  C   UNL d   1     -38.673  13.277  21.970  0.00  0.00     0.000 A 
ATOM     16  C   UNL d   1     -38.107  13.492  23.292  0.00  0.00     0.000 C 
ATOM     17  C   UNL d   1     -38.787  13.558  21.217  0.00  0.00     0.002 A 
ENDBRANCH  10  11
ENDBRANCH   2  10
BRANCH   1  18
ATOM     18  C   UNL d   1     -38.811  14.228  19.075  0.00  0.00     0.037 C 
BRANCH  18  19
ATOM     19  C   UNL d   1     -38.621  13.968  18.315  0.00  0.00     0.003 A 
ATOM     20  C   UNL d   1     -38.738  13.177  18.107  0.00  0.00     0.000 A 
ATOM     21  C   UNL d   1     -38.549  12.917  17.346  0.00  0.00     0.000 A 
ATOM     22  C   UNL d   1     -38.243  13.448  16.793  0.00  0.00     0.000 A 
ATOM     23  C   UNL d   1     -38.117  14.254  16.984  0.00  0.00     0.000 A 
ATOM     24  C   UNL d   1     -38.315  14.498  17.762  0.00  0.00     0.000 A 
ENDBRANCH  18  19
ENDBRANCH   1  18
TORSDOF 4
ENDMDL
MODEL 7
REMARK VINA RESULT:      -5.6      8.874     10.009
REMARK  4 active torsions:
REMARK  status: ('A' for Active; 'I' for Inactive)
REMARK    1  A    between atoms: C_7  and  C_1 
REMARK    2  A    between atoms: C_6  and  N_2 
REMARK    3  A    between atoms: C_8  and  C_6 
REMARK    4  A    between atoms: C_9  and  C_7 
ROOT
ATOM      1  C   UNL d   1     -39.692  14.291  17.802  0.00  0.00     0.148 A 
ATOM      2  N   UNL d   1     -39.292  14.354  18.483  0.00  0.00    -0.289 N 
ATOM      3  N   UNL d   1     -39.548  13.613  17.423  0.00  0.00    -0.227 NA
ATOM      4  C   UNL d   1     -38.827  13.634  18.567  0.00  0.00     0.083 A 
ATOM      5  C   UNL d   1     -38.983  13.185  17.926  0.00  0.00     0.099 A 
ATOM      6  C   UNL d   1     -38.308  13.349  19.123  0.00  0.00     0.019 A 
ATOM      7  C   UNL d   1     -38.630  12.420  17.797  0.00  0.00     0.021 A 
ATOM      8  C   UNL d   1     -37.940  12.627  19.057  0.00  0.00     0.002 A 
ATOM      9  C   UNL d   1     -38.095  12.178  18.415  0.00  0.00     0.002 A 
ENDROOT
BRANCH   2  10
ATOM     10  C   UNL d   1     -39.396  15.015  18.907  0.00  0.00     0.082 C 
BRANCH  10  11
ATOM     11  C   UNL d   1     -39.439  15.008  19.710  0.00  0.00     0.018 A 
ATOM     12  C   UNL d   1     -38.846  15.385  20.141  0.00  0.00     0.002 A 
ATOM     13  C   UNL d   1     -38.854  15.399  20.979  0.00  0.00     0.000 A 
ATOM     14  C   UNL d   1     -39.495  15.013  21.359  0.00  0.00     0.000 A 
ATOM     15  C   UNL d   1     -40.088  14.636  20.927  0.00  0.00     0.000 A 
ATOM     16  C   UNL d   1     -39.505  15.027  22.201  0.00  0.00     0.000 C 
ATOM     17  C   UNL d   1     -40.041  14.646  20.117  0.00  0.00     0.002 A 
ENDBRANCH  10  11
ENDBRANCH   2  10
BRANCH   1  18
ATOM     18  C   UNL d   1     -40.040  15.009  17.898  0.00  0.00     0.037 C 
BRANCH  18  19
ATOM     19  C   UNL d   1     -40.513  15.310  17.291  0.00  0.00     0.003 A 
ATOM     20  C   UNL d   1     -41.336  15.307  17.369  0.00  0.00     0.000 A 
ATOM     21  C   UNL d   1     -41.809  15.608  16.763  0.00  0.00     0.000 A 
ATOM     22  C   UNL d   1     -41.461  15.910  16.079  0.00  0.00     0.000 A 
ATOM     23  C   UNL d   1     -40.629  15.922  15.981  0.00  0.00     0.000 A 
ATOM     24  C   UNL d   1     -40.165  15.612  16.608  0.00  0.00     0.000 A 
ENDBRANCH  18  19
ENDBRANCH   1  18
TORSDOF 4
ENDMDL
MODEL 8
REMARK VINA RESULT:      -5.4      8.489     10.223
REMARK  4 active torsions:
REMARK  status: ('A' for Active; 'I' for Inactive)
REMARK    1  A    between atoms: C_7  and  C_1 
REMARK    2  A    between atoms: C_6  and  N_2 
REMARK    3  A    between atoms: C_8  and  C_6 
REMARK    4  A    between atoms: C_9  and  C_7 
ROOT
ATOM      1  C   UNL d   1     -39.559  14.745  20.187  0.00  0.00     0.148 A 
ATOM      2  N   UNL d   1     -39.347  14.769  19.425  0.00  0.00    -0.289 N 
ATOM      3  N   UNL d   1     -40.265  15.074  20.320  0.00  0.00    -0.227 NA
ATOM      4  C   UNL d   1     -39.987  15.160  19.000  0.00  0.00     0.083 A 
ATOM      5  C   UNL d   1     -40.542  15.344  19.543  0.00  0.00     0.099 A 
ATOM      6  C   UNL d   1     -40.122  15.359  18.225  0.00  0.00     0.019 A 
ATOM      7  C   UNL d   1     -41.271  15.740  19.346  0.00  0.00     0.021 A 
ATOM      8  C   UNL d   1     -40.797  15.738  17.974  0.00  0.00     0.002 A 
ATOM      9  C   UNL d   1     -41.352  15.922  18.517  0.00  0.00     0.002 A 
ENDROOT
BRANCH   2  10
ATOM     10  C   UNL d   1     -38.647  14.454  19.230  0.00  0.00     0.082 C 
BRANCH  10  11
ATOM     11  C   UNL d   1     -38.530  14.062  18.538  0.00  0.00     0.018 A 
ATOM     12  C   UNL d   1     -38.085  14.428  17.947  0.00  0.00     0.002 A 
ATOM     13  C   UNL d   1     -37.940  14.053  17.212  0.00  0.00     0.000 A 
ATOM     14  C   UNL d   1     -38.268  13.288  17.105  0.00  0.00     0.000 A 
ATOM     15  C   UNL d   1     -38.713  12.922  17.696  0.00  0.00     0.000 A 
ATOM     16  C   UNL d   1     -38.123  12.909  16.366  0.00  0.00     0.000 C 
ATOM     17  C   UNL d   1     -38.829  13.322  18.393  0.00  0.00     0.002 A 
ENDBRANCH  10  11
ENDBRANCH   2  10
BRANCH   1  18
ATOM     18  C   UNL d   1     -38.881  14.371  20.401  0.00  0.00     0.037 C 
BRANCH  18  19
ATOM     19  C   UNL d   1     -38.721  14.257  21.204  0.00  0.00     0.003 A 
ATOM     20  C   UNL d   1     -38.307  14.833  21.629  0.00  0.00     0.000 A 
ATOM     21  C   UNL d   1     -38.148  14.719  22.431  0.00  0.00     0.000 A 
ATOM     22  C   UNL d   1     -38.402  14.031  22.808  0.00  0.00     0.000 A 
ATOM     23  C   UNL d   1     -38.823  13.435  22.395  0.00  0.00     0.000 A 
ATOM     24  C   UNL d   1     -38.975  13.569  21.581  0.00  0.00     0.000 A 
ENDBRANCH  18  19
ENDBRANCH   1  18
TORSDOF 4
ENDMDL
MODEL 9
REMARK VINA RESULT:      -4.8      0.910      2.609
REMARK  4 active torsions:
REMARK  status: ('A' for Active; 'I' for Inactive)
REMARK    1  A    between atoms: C_7  and  C_1 
REMARK    2  A    between atoms: C_6  and  N_2 
REMARK    3  A    between atoms: C_8  and  C_6 
REMARK    4  A    between atoms: C_9  and  C_7 
ROOT
ATOM      1  C   UNL d   1     -48.390  14.596  22.792  0.00  0.00     0.148 A 
ATOM      2  N   UNL d   1     -48.011  13.940  23.022  0.00  0.00    -0.289 N 
ATOM      3  N   UNL d   1     -47.905  15.141  22.488  0.00  0.00    -0.227 NA
ATOM      4  C   UNL d   1     -47.175  14.063  22.852  0.00  0.00     0.083 A 
ATOM      5  C   UNL d   1     -47.111  14.789  22.529  0.00  0.00     0.099 A 
ATOM      6  C   UNL d   1     -46.500  13.621  22.948  0.00  0.00     0.019 A 
ATOM      7  C   UNL d   1     -46.368  15.124  22.280  0.00  0.00     0.021 A 
ATOM      8  C   UNL d   1     -45.763  13.885  22.731  0.00  0.00     0.002 A 
ATOM      9  C   UNL d   1     -45.699  14.611  22.408  0.00  0.00     0.002 A 
ENDROOT
BRANCH   2  10
ATOM     10  C   UNL d   1     -48.447  13.357  23.335  0.00  0.00     0.082 C 
BRANCH  10  11
ATOM     11  C   UNL d   1     -48.353  12.589  23.121  0.00  0.00     0.018 A 
ATOM     12  C   UNL d   1     -48.131  12.042  23.697  0.00  0.00     0.002 A 
ATOM     13  C   UNL d   1     -48.023  11.231  23.515  0.00  0.00     0.000 A 
ATOM     14  C   UNL d   1     -48.151  11.001  22.718  0.00  0.00     0.000 A 
ATOM     15  C   UNL d   1     -48.373  11.548  22.141  0.00  0.00     0.000 A 
ATOM     16  C   UNL d   1     -48.043  10.187  22.532  0.00  0.00     0.000 C 
ATOM     17  C   UNL d   1     -48.467  12.324  22.362  0.00  0.00     0.002 A 
ENDBRANCH  10  11
ENDBRANCH   2  10
BRANCH   1  18
ATOM     18  C   UNL d   1     -49.105  14.306  23.017  0.00  0.00     0.037 C 
BRANCH  18  19
ATOM     19  C   UNL d   1     -49.758  14.811  23.029  0.00  0.00     0.003 A 
ATOM     20  C   UNL d   1     -50.294  14.809  22.399  0.00  0.00     0.000 A 
ATOM     21  C   UNL d   1     -50.947  15.314  22.411  0.00  0.00     0.000 A 
ATOM     22  C   UNL d   1     -51.064  15.822  23.050  0.00  0.00     0.000 A 
ATOM     23  C   UNL d   1     -50.532  15.840  23.698  0.00  0.00     0.000 A 
ATOM     24  C   UNL d   1     -49.875  15.319  23.668  0.00  0.00     0.000 A 
ENDBRANCH  18  19
ENDBRANCH   1  18
TORSDOF 4
ENDMDL
