MODEL 1
REMARK VINA RESULT:      73.4      0.000      0.000
REMARK  5 active torsions:
REMARK  status: ('A' for Active; 'I' for Inactive)
REMARK       I    between atoms: C_5  and  N_1 
REMARK    1  A    between atoms: S_13  and  C_2 
REMARK    2  A    between atoms: S_3  and  C_9 
REMARK    3  A    between atoms: N_7  and  S_3 
REMARK    4  A    between atoms: C_12  and  C_5 
REMARK    5  A    between atoms: C_23  and  S_13 
ROOT
ATOM      1  C   UNL d   1      13.265  14.891  -4.969  0.00  0.00     0.104 A 
ATOM      2  C   UNL d   1      13.349  16.443  -5.522  0.00  0.00     0.057 A 
ATOM      3  C   UNL d   1      13.742  15.075  -5.617  0.00  0.00     0.013 A 
ATOM      4  C   UNL d   1      12.827  15.489  -4.594  0.00  0.00     0.013 A 
ATOM      5  C   UNL d   1      12.868  16.268  -4.870  0.00  0.00     0.005 A 
ATOM      6  C   UNL d   1      13.781  15.849  -5.891  0.00  0.00     0.005 A 
ENDROOT
BRANCH   2   7
ATOM      7  C   UNL d   1      13.388  17.214  -5.793  0.00  0.00     0.266 C 
ATOM      8  N   UNL d   1      13.967  17.735  -5.509  0.00  0.00    -0.253 N 
ATOM      9  C   UNL d   1      14.543  17.551  -4.948  0.00  0.00     0.182 A 
ATOM     10  C   UNL d   1      14.065  18.524  -5.737  0.00  0.00     0.086 A 
ATOM     11  N   UNL d   1      15.002  18.229  -4.828  0.00  0.00    -0.221 NA
ATOM     12  C   UNL d   1      14.709  18.827  -5.312  0.00  0.00     0.100 A 
ATOM     13  C   UNL d   1      14.938  19.606  -5.425  0.00  0.00     0.021 A 
ATOM     14  C   UNL d   1      14.534  20.086  -5.958  0.00  0.00     0.002 A 
ATOM     15  C   UNL d   1      13.891  19.779  -6.381  0.00  0.00     0.002 A 
ATOM     16  C   UNL d   1      13.662  18.997  -6.266  0.00  0.00     0.019 A 
ATOM     17  O   UNL d   1      12.843  17.477  -6.359  0.00  0.00    -0.267 OA
BRANCH   9  18
ATOM     18  S   UNL d   1      14.636  16.823  -4.582  0.00  0.00    -0.049 SA
BRANCH  18  19
ATOM     19  C   UNL d   1      15.239  16.712  -3.781  0.00  0.00     0.038 C 
ATOM     20  C   UNL d   1      14.966  16.455  -2.915  0.00  0.00     0.008 C 
ENDBRANCH  18  19
ENDBRANCH   9  18
ENDBRANCH   2   7
BRANCH   1  21
ATOM     21  S   UNL d   1      13.227  14.111  -4.696  0.00  0.00     0.271 S 
ATOM     22  O   UNL d   1      12.831  14.361  -4.010  0.00  0.00    -0.200 OA
ATOM     23  O   UNL d   1      13.621  13.850  -5.375  0.00  0.00    -0.200 OA
BRANCH  21  24
ATOM     24  N   UNL d   1      13.191  13.329  -4.425  0.00  0.00    -0.229 N 
ATOM     25  C   UNL d   1      13.480  13.132  -3.672  0.00  0.00     0.092 A 
ATOM     26  C   UNL d   1      13.444  12.363  -3.405  0.00  0.00     0.020 A 
ATOM     27  C   UNL d   1      13.122  11.780  -3.882  0.00  0.00     0.003 A 
ATOM     28  C   UNL d   1      12.830  11.961  -4.635  0.00  0.00     0.020 A 
ATOM     29  C   UNL d   1      12.869  12.743  -4.900  0.00  0.00     0.092 A 
ENDBRANCH  21  24
ENDBRANCH   1  21
TORSDOF 5
ENDMDL
MODEL 2
REMARK VINA RESULT:      75.1      0.870      5.097
REMARK  5 active torsions:
REMARK  status: ('A' for Active; 'I' for Inactive)
REMARK       I    between atoms: C_5  and  N_1 
REMARK    1  A    between atoms: S_13  and  C_2 
REMARK    2  A    between atoms: S_3  and  C_9 
REMARK    3  A    between atoms: N_7  and  S_3 
REMARK    4  A    between atoms: C_12  and  C_5 
REMARK    5  A    between atoms: C_23  and  S_13 
ROOT
ATOM      1  C   UNL d   1      13.752  16.754  -5.654  0.00  0.00     0.104 A 
ATOM      2  C   UNL d   1      13.523  15.144  -5.378  0.00  0.00     0.057 A 
ATOM      3  C   UNL d   1      14.401  16.255  -5.550  0.00  0.00     0.013 A 
ATOM      4  C   UNL d   1      12.982  16.445  -5.620  0.00  0.00     0.013 A 
ATOM      5  C   UNL d   1      12.865  15.638  -5.481  0.00  0.00     0.005 A 
ATOM      6  C   UNL d   1      14.284  15.453  -5.412  0.00  0.00     0.005 A 
ENDROOT
BRANCH   2   7
ATOM      7  C   UNL d   1      13.405  14.346  -5.240  0.00  0.00     0.266 C 
ATOM      8  N   UNL d   1      13.480  14.031  -4.477  0.00  0.00    -0.253 N 
ATOM      9  C   UNL d   1      13.671  14.460  -3.799  0.00  0.00     0.182 A 
ATOM     10  C   UNL d   1      13.376  13.239  -4.266  0.00  0.00     0.086 A 
ATOM     11  N   UNL d   1      13.686  13.930  -3.163  0.00  0.00    -0.221 NA
ATOM     12  C   UNL d   1      13.505  13.180  -3.449  0.00  0.00     0.100 A 
ATOM     13  C   UNL d   1      13.439  12.451  -3.080  0.00  0.00     0.021 A 
ATOM     14  C   UNL d   1      13.246  11.779  -3.515  0.00  0.00     0.002 A 
ATOM     15  C   UNL d   1      13.118  11.842  -4.332  0.00  0.00     0.002 A 
ATOM     16  C   UNL d   1      13.184  12.575  -4.700  0.00  0.00     0.019 A 
ATOM     17  O   UNL d   1      13.209  13.846  -5.871  0.00  0.00    -0.267 OA
BRANCH   9  18
ATOM     18  S   UNL d   1      13.819  15.266  -3.770  0.00  0.00    -0.049 SA
BRANCH  18  19
ATOM     19  C   UNL d   1      14.005  15.735  -2.898  0.00  0.00     0.038 C 
ATOM     20  C   UNL d   1      14.841  16.074  -2.620  0.00  0.00     0.008 C 
ENDBRANCH  18  19
ENDBRANCH   9  18
ENDBRANCH   2   7
BRANCH   1  21
ATOM     21  S   UNL d   1      13.873  17.560  -5.793  0.00  0.00     0.271 S 
ATOM     22  O   UNL d   1      14.500  17.569  -5.249  0.00  0.00    -0.200 OA
ATOM     23  O   UNL d   1      13.250  17.565  -6.337  0.00  0.00    -0.200 OA
BRANCH  21  24
ATOM     24  N   UNL d   1      13.992  18.369  -5.934  0.00  0.00    -0.229 N 
ATOM     25  C   UNL d   1      13.379  18.833  -6.250  0.00  0.00     0.092 A 
ATOM     26  C   UNL d   1      13.495  19.627  -6.389  0.00  0.00     0.020 A 
ATOM     27  C   UNL d   1      14.218  19.971  -6.217  0.00  0.00     0.003 A 
ATOM     28  C   UNL d   1      14.838  19.520  -5.903  0.00  0.00     0.020 A 
ATOM     29  C   UNL d   1      14.714  18.715  -5.764  0.00  0.00     0.092 A 
ENDBRANCH  21  24
ENDBRANCH   1  21
TORSDOF 5
ENDMDL
