MODEL 1
REMARK VINA RESULT:      -9.0      0.000      0.000
REMARK  2 active torsions:
REMARK  status: ('A' for Active; 'I' for Inactive)
REMARK    1  A    between atoms: N_10  and  C_3 
REMARK    2  A    between atoms: C_11  and  C_5 
ROOT
ATOM      1  N   UNL d   1     -48.594  14.165  22.961  0.00  0.00    -0.196 N 
ATOM      2  C   UNL d   1     -48.051  13.538  22.998  0.00  0.00     0.167 A 
ATOM      3  C   UNL d   1     -49.394  14.007  23.062  0.00  0.00     0.152 A 
ATOM      4  N   UNL d   1     -47.533  15.062  22.726  0.00  0.00    -0.163 NA
ATOM      5  C   UNL d   1     -47.260  13.671  22.901  0.00  0.00     0.055 A 
ATOM      6  N   UNL d   1     -48.321  12.767  23.136  0.00  0.00    -0.227 NA
ATOM      7  C   UNL d   1     -49.662  13.249  23.199  0.00  0.00     0.052 A 
ATOM      8  C   UNL d   1     -46.994  14.439  22.763  0.00  0.00     0.104 A 
ATOM      9  C   UNL d   1     -49.123  12.625  23.236  0.00  0.00     0.086 A 
ATOM     10  C   UNL d   1     -50.473  13.112  23.298  0.00  0.00     0.004 A 
ATOM     11  C   UNL d   1     -46.207  14.585  22.664  0.00  0.00     0.023 C 
ATOM     12  C   UNL d   1     -49.389  11.858  23.373  0.00  0.00     0.019 A 
ATOM     13  C   UNL d   1     -50.739  12.331  23.438  0.00  0.00     0.000 A 
ATOM     14  C   UNL d   1     -50.200  11.708  23.475  0.00  0.00     0.002 A 
ENDROOT
BRANCH   3  15
ATOM     15  N   UNL d   1     -49.948  14.642  23.025  0.00  0.00    -0.285 N 
ATOM     16  C   UNL d   1     -50.069  15.145  23.698  0.00  0.00     0.108 A 
ATOM     17  C   UNL d   1     -50.620  15.775  23.657  0.00  0.00     0.142 A 
ATOM     18  O   UNL d   1     -51.064  15.917  22.942  0.00  0.00    -0.300 OA
ATOM     19  C   UNL d   1     -50.936  15.409  22.278  0.00  0.00     0.142 A 
ATOM     20  C   UNL d   1     -50.384  14.779  22.319  0.00  0.00     0.108 A 
ENDBRANCH   3  15
BRANCH   5  21
ATOM     21  C   UNL d   1     -46.721  13.048  22.938  0.00  0.00     0.004 A 
ATOM     22  C   UNL d   1     -46.356  12.793  22.256  0.00  0.00     0.000 A 
ATOM     23  C   UNL d   1     -45.817  12.170  22.293  0.00  0.00     0.000 A 
ATOM     24  C   UNL d   1     -45.651  11.811  23.011  0.00  0.00     0.000 A 
ATOM     25  C   UNL d   1     -46.023  12.075  23.693  0.00  0.00     0.000 A 
ATOM     26  C   UNL d   1     -46.562  12.699  23.656  0.00  0.00     0.000 A 
ENDBRANCH   5  21
TORSDOF 2
ENDMDL
MODEL 2
REMARK VINA RESULT:      -7.9      9.176     10.240
REMARK  2 active torsions:
REMARK  status: ('A' for Active; 'I' for Inactive)
REMARK    1  A    between atoms: N_10  and  C_3 
REMARK    2  A    between atoms: C_11  and  C_5 
ROOT
ATOM      1  N   UNL d   1     -39.789  14.971  19.164  0.00  0.00    -0.196 N 
ATOM      2  C   UNL d   1     -39.422  14.614  19.817  0.00  0.00     0.167 A 
ATOM      3  C   UNL d   1     -39.663  14.657  18.415  0.00  0.00     0.152 A 
ATOM      4  N   UNL d   1     -40.378  15.922  20.020  0.00  0.00    -0.163 NA
ATOM      5  C   UNL d   1     -39.533  14.907  20.563  0.00  0.00     0.055 A 
ATOM      6  N   UNL d   1     -38.939  13.951  19.707  0.00  0.00    -0.227 NA
ATOM      7  C   UNL d   1     -39.187  14.004  18.304  0.00  0.00     0.052 A 
ATOM      8  C   UNL d   1     -40.014  15.567  20.670  0.00  0.00     0.104 A 
ATOM      9  C   UNL d   1     -38.823  13.649  18.954  0.00  0.00     0.086 A 
ATOM     10  C   UNL d   1     -39.073  13.703  17.541  0.00  0.00     0.004 A 
ATOM     11  C   UNL d   1     -40.133  15.869  21.408  0.00  0.00     0.023 C 
ATOM     12  C   UNL d   1     -38.341  12.989  18.847  0.00  0.00     0.019 A 
ATOM     13  C   UNL d   1     -38.584  13.033  17.436  0.00  0.00     0.000 A 
ATOM     14  C   UNL d   1     -38.220  12.678  18.086  0.00  0.00     0.002 A 
ENDROOT
BRANCH   3  15
ATOM     15  N   UNL d   1     -40.033  15.017  17.749  0.00  0.00    -0.285 N 
ATOM     16  C   UNL d   1     -40.839  14.833  17.555  0.00  0.00     0.108 A 
ATOM     17  C   UNL d   1     -41.204  15.192  16.892  0.00  0.00     0.142 A 
ATOM     18  O   UNL d   1     -40.772  15.745  16.406  0.00  0.00    -0.300 OA
ATOM     19  C   UNL d   1     -39.970  15.921  16.608  0.00  0.00     0.142 A 
ATOM     20  C   UNL d   1     -39.605  15.561  17.271  0.00  0.00     0.108 A 
ENDBRANCH   3  15
BRANCH   5  21
ATOM     21  C   UNL d   1     -39.169  14.552  21.212  0.00  0.00     0.004 A 
ATOM     22  C   UNL d   1     -38.425  14.795  21.436  0.00  0.00     0.000 A 
ATOM     23  C   UNL d   1     -38.061  14.440  22.085  0.00  0.00     0.000 A 
ATOM     24  C   UNL d   1     -38.447  13.848  22.502  0.00  0.00     0.000 A 
ATOM     25  C   UNL d   1     -39.196  13.611  22.269  0.00  0.00     0.000 A 
ATOM     26  C   UNL d   1     -39.560  13.966  21.619  0.00  0.00     0.000 A 
ENDBRANCH   5  21
TORSDOF 2
ENDMDL
MODEL 3
REMARK VINA RESULT:      -7.5      8.877     10.814
REMARK  2 active torsions:
REMARK  status: ('A' for Active; 'I' for Inactive)
REMARK    1  A    between atoms: N_10  and  C_3 
REMARK    2  A    between atoms: C_11  and  C_5 
ROOT
ATOM      1  N   UNL d   1     -39.097  14.718  18.055  0.00  0.00    -0.196 N 
ATOM      2  C   UNL d   1     -39.570  14.916  18.708  0.00  0.00     0.167 A 
ATOM      3  C   UNL d   1     -39.376  14.873  17.298  0.00  0.00     0.152 A 
ATOM      4  N   UNL d   1     -38.105  14.229  18.929  0.00  0.00    -0.163 NA
ATOM      5  C   UNL d   1     -39.313  14.772  19.461  0.00  0.00     0.055 A 
ATOM      6  N   UNL d   1     -40.311  15.264  18.589  0.00  0.00    -0.227 NA
ATOM      7  C   UNL d   1     -40.107  15.216  17.179  0.00  0.00     0.052 A 
ATOM      8  C   UNL d   1     -38.575  14.426  19.577  0.00  0.00     0.104 A 
ATOM      9  C   UNL d   1     -40.577  15.412  17.827  0.00  0.00     0.086 A 
ATOM     10  C   UNL d   1     -40.370  15.363  16.407  0.00  0.00     0.004 A 
ATOM     11  C   UNL d   1     -38.308  14.277  20.324  0.00  0.00     0.023 C 
ATOM     12  C   UNL d   1     -41.315  15.759  17.711  0.00  0.00     0.019 A 
ATOM     13  C   UNL d   1     -41.120  15.715  16.293  0.00  0.00     0.000 A 
ATOM     14  C   UNL d   1     -41.590  15.911  16.942  0.00  0.00     0.002 A 
ENDROOT
BRANCH   3  15
ATOM     15  N   UNL d   1     -38.898  14.673  16.633  0.00  0.00    -0.285 N 
ATOM     16  C   UNL d   1     -38.422  15.265  16.255  0.00  0.00     0.108 A 
ATOM     17  C   UNL d   1     -37.948  15.063  15.593  0.00  0.00     0.142 A 
ATOM     18  O   UNL d   1     -37.940  14.264  15.294  0.00  0.00    -0.300 OA
ATOM     19  C   UNL d   1     -38.418  13.682  15.679  0.00  0.00     0.142 A 
ATOM     20  C   UNL d   1     -38.892  13.885  16.340  0.00  0.00     0.108 A 
ENDBRANCH   3  15
BRANCH   5  21
ATOM     21  C   UNL d   1     -39.783  14.969  20.110  0.00  0.00     0.004 A 
ATOM     22  C   UNL d   1     -39.747  15.722  20.417  0.00  0.00     0.000 A 
ATOM     23  C   UNL d   1     -40.217  15.919  21.065  0.00  0.00     0.000 A 
ATOM     24  C   UNL d   1     -40.717  15.359  21.397  0.00  0.00     0.000 A 
ATOM     25  C   UNL d   1     -40.746  14.603  21.081  0.00  0.00     0.000 A 
ATOM     26  C   UNL d   1     -40.276  14.407  20.433  0.00  0.00     0.000 A 
ENDBRANCH   5  21
TORSDOF 2
ENDMDL
MODEL 4
REMARK VINA RESULT:      -7.5      1.801      4.516
REMARK  2 active torsions:
REMARK  status: ('A' for Active; 'I' for Inactive)
REMARK    1  A    between atoms: N_10  and  C_3 
REMARK    2  A    between atoms: C_11  and  C_5 
ROOT
ATOM      1  N   UNL d   1     -47.776  12.522  22.651  0.00  0.00    -0.196 N 
ATOM      2  C   UNL d   1     -48.418  13.028  22.510  0.00  0.00     0.167 A 
ATOM      3  C   UNL d   1     -47.031  12.846  22.777  0.00  0.00     0.152 A 
ATOM      4  N   UNL d   1     -48.634  11.410  22.539  0.00  0.00    -0.163 NA
ATOM      5  C   UNL d   1     -49.158  12.729  22.384  0.00  0.00     0.055 A 
ATOM      6  N   UNL d   1     -48.301  13.847  22.496  0.00  0.00    -0.227 NA
ATOM      7  C   UNL d   1     -46.914  13.653  22.764  0.00  0.00     0.052 A 
ATOM      8  C   UNL d   1     -49.272  11.913  22.398  0.00  0.00     0.104 A 
ATOM      9  C   UNL d   1     -47.552  14.157  22.623  0.00  0.00     0.086 A 
ATOM     10  C   UNL d   1     -46.155  13.960  22.892  0.00  0.00     0.004 A 
ATOM     11  C   UNL d   1     -50.006  11.602  22.274  0.00  0.00     0.023 C 
ATOM     12  C   UNL d   1     -47.438  14.972  22.609  0.00  0.00     0.019 A 
ATOM     13  C   UNL d   1     -46.044  14.789  22.878  0.00  0.00     0.000 A 
ATOM     14  C   UNL d   1     -46.682  15.292  22.737  0.00  0.00     0.002 A 
ENDROOT
BRANCH   3  15
ATOM     15  N   UNL d   1     -46.377  12.335  22.921  0.00  0.00    -0.285 N 
ATOM     16  C   UNL d   1     -45.684  12.378  22.432  0.00  0.00     0.108 A 
ATOM     17  C   UNL d   1     -45.035  11.868  22.579  0.00  0.00     0.142 A 
ATOM     18  O   UNL d   1     -45.063  11.302  23.218  0.00  0.00    -0.300 OA
ATOM     19  C   UNL d   1     -45.759  11.268  23.698  0.00  0.00     0.142 A 
ATOM     20  C   UNL d   1     -46.407  11.778  23.551  0.00  0.00     0.108 A 
ENDBRANCH   3  15
BRANCH   5  21
ATOM     21  C   UNL d   1     -49.797  13.232  22.243  0.00  0.00     0.004 A 
ATOM     22  C   UNL d   1     -50.235  13.508  22.871  0.00  0.00     0.000 A 
ATOM     23  C   UNL d   1     -50.873  14.011  22.730  0.00  0.00     0.000 A 
ATOM     24  C   UNL d   1     -51.063  14.231  21.964  0.00  0.00     0.000 A 
ATOM     25  C   UNL d   1     -50.615  13.949  21.337  0.00  0.00     0.000 A 
ATOM     26  C   UNL d   1     -49.977  13.445  21.478  0.00  0.00     0.000 A 
ENDBRANCH   5  21
TORSDOF 2
ENDMDL
MODEL 5
REMARK VINA RESULT:      -7.2      8.200     10.316
REMARK  2 active torsions:
REMARK  status: ('A' for Active; 'I' for Inactive)
REMARK    1  A    between atoms: N_10  and  C_3 
REMARK    2  A    between atoms: C_11  and  C_5 
ROOT
ATOM      1  N   UNL d   1     -40.108  14.907  18.792  0.00  0.00    -0.196 N 
ATOM      2  C   UNL d   1     -39.535  14.693  18.230  0.00  0.00     0.167 A 
ATOM      3  C   UNL d   1     -39.983  14.718  19.581  0.00  0.00     0.152 A 
ATOM      4  N   UNL d   1     -40.890  15.478  17.769  0.00  0.00    -0.163 NA
ATOM      5  C   UNL d   1     -39.639  14.870  17.448  0.00  0.00     0.055 A 
ATOM      6  N   UNL d   1     -38.850  14.295  18.472  0.00  0.00    -0.227 NA
ATOM      7  C   UNL d   1     -39.309  14.326  19.821  0.00  0.00     0.052 A 
ATOM      8  C   UNL d   1     -40.321  15.266  17.211  0.00  0.00     0.104 A 
ATOM      9  C   UNL d   1     -38.740  14.113  19.263  0.00  0.00     0.086 A 
ATOM     10  C   UNL d   1     -39.203  14.144  20.623  0.00  0.00     0.004 A 
ATOM     11  C   UNL d   1     -40.436  15.448  16.433  0.00  0.00     0.023 C 
ATOM     12  C   UNL d   1     -38.058  13.717  19.501  0.00  0.00     0.019 A 
ATOM     13  C   UNL d   1     -38.509  13.742  20.860  0.00  0.00     0.000 A 
ATOM     14  C   UNL d   1     -37.940  13.530  20.302  0.00  0.00     0.002 A 
ENDROOT
BRANCH   3  15
ATOM     15  N   UNL d   1     -40.563  14.933  20.154  0.00  0.00    -0.285 N 
ATOM     16  C   UNL d   1     -40.561  15.711  20.494  0.00  0.00     0.108 A 
ATOM     17  C   UNL d   1     -41.139  15.922  21.063  0.00  0.00     0.142 A 
ATOM     18  O   UNL d   1     -41.733  15.360  21.307  0.00  0.00    -0.300 OA
ATOM     19  C   UNL d   1     -41.725  14.587  20.962  0.00  0.00     0.142 A 
ATOM     20  C   UNL d   1     -41.147  14.377  20.393  0.00  0.00     0.108 A 
ENDBRANCH   3  15
BRANCH   5  21
ATOM     21  C   UNL d   1     -39.069  14.658  16.890  0.00  0.00     0.004 A 
ATOM     22  C   UNL d   1     -39.070  13.903  16.585  0.00  0.00     0.000 A 
ATOM     23  C   UNL d   1     -38.501  13.690  16.027  0.00  0.00     0.000 A 
ATOM     24  C   UNL d   1     -37.940  14.236  15.783  0.00  0.00     0.000 A 
ATOM     25  C   UNL d   1     -37.947  14.994  16.096  0.00  0.00     0.000 A 
ATOM     26  C   UNL d   1     -38.517  15.206  16.654  0.00  0.00     0.000 A 
ENDBRANCH   5  21
TORSDOF 2
ENDMDL
MODEL 6
REMARK VINA RESULT:      -6.9      8.626     10.318
REMARK  2 active torsions:
REMARK  status: ('A' for Active; 'I' for Inactive)
REMARK    1  A    between atoms: N_10  and  C_3 
REMARK    2  A    between atoms: C_11  and  C_5 
ROOT
ATOM      1  N   UNL d   1     -38.923  14.314  20.062  0.00  0.00    -0.196 N 
ATOM      2  C   UNL d   1     -39.288  14.566  19.360  0.00  0.00     0.167 A 
ATOM      3  C   UNL d   1     -39.251  14.532  20.783  0.00  0.00     0.152 A 
ATOM      4  N   UNL d   1     -37.940  13.648  19.304  0.00  0.00    -0.163 NA
ATOM      5  C   UNL d   1     -38.982  14.362  18.640  0.00  0.00     0.055 A 
ATOM      6  N   UNL d   1     -39.972  15.032  19.396  0.00  0.00    -0.227 NA
ATOM      7  C   UNL d   1     -39.924  14.991  20.820  0.00  0.00     0.052 A 
ATOM      8  C   UNL d   1     -38.302  13.899  18.607  0.00  0.00     0.104 A 
ATOM      9  C   UNL d   1     -40.287  15.242  20.123  0.00  0.00     0.086 A 
ATOM     10  C   UNL d   1     -40.238  15.200  21.558  0.00  0.00     0.004 A 
ATOM     11  C   UNL d   1     -37.987  13.688  17.895  0.00  0.00     0.023 C 
ATOM     12  C   UNL d   1     -40.967  15.705  20.156  0.00  0.00     0.019 A 
ATOM     13  C   UNL d   1     -40.929  15.671  21.588  0.00  0.00     0.000 A 
ATOM     14  C   UNL d   1     -41.291  15.922  20.890  0.00  0.00     0.002 A 
ENDROOT
BRANCH   3  15
ATOM     15  N   UNL d   1     -38.883  14.277  21.497  0.00  0.00    -0.285 N 
ATOM     16  C   UNL d   1     -38.304  14.767  21.879  0.00  0.00     0.108 A 
ATOM     17  C   UNL d   1     -37.940  14.510  22.590  0.00  0.00     0.142 A 
ATOM     18  O   UNL d   1     -38.147  13.757  22.936  0.00  0.00    -0.300 OA
ATOM     19  C   UNL d   1     -38.726  13.279  22.546  0.00  0.00     0.142 A 
ATOM     20  C   UNL d   1     -39.089  13.535  21.836  0.00  0.00     0.108 A 
ENDBRANCH   3  15
BRANCH   5  21
ATOM     21  C   UNL d   1     -39.345  14.613  17.943  0.00  0.00     0.004 A 
ATOM     22  C   UNL d   1     -39.929  14.156  17.608  0.00  0.00     0.000 A 
ATOM     23  C   UNL d   1     -40.292  14.407  16.911  0.00  0.00     0.000 A 
ATOM     24  C   UNL d   1     -40.064  15.112  16.560  0.00  0.00     0.000 A 
ATOM     25  C   UNL d   1     -39.474  15.566  16.904  0.00  0.00     0.000 A 
ATOM     26  C   UNL d   1     -39.112  15.315  17.601  0.00  0.00     0.000 A 
ENDBRANCH   5  21
TORSDOF 2
ENDMDL
