MODEL 1
REMARK VINA RESULT:       4.6      0.000      0.000
REMARK  4 active torsions:
REMARK  status: ('A' for Active; 'I' for Inactive)
REMARK    1  A    between atoms: N_2  and  S_1 
REMARK    2  A    between atoms: C_8  and  S_1 
REMARK       I    between atoms: C_3  and  N_2 
REMARK    3  A    between atoms: C_11  and  N_2 
REMARK       I    between atoms: N_4  and  C_3 
REMARK       I    between atoms: C_5  and  N_4 
REMARK       I    between atoms: N_9  and  C_5 
REMARK    4  A    between atoms: C_13  and  N_9 
ROOT
ATOM      1  N   UNL d   1      57.545  -0.961  31.126  0.00  0.00    -0.182 N 
ATOM      2  C   UNL d   1      57.465  -1.581  30.600  0.00  0.00     0.367 C 
ATOM      3  N   UNL d   1      58.059  -1.697  30.035  0.00  0.00    -0.135 NA
ATOM      4  C   UNL d   1      58.009  -2.314  29.489  0.00  0.00     0.373 C 
ATOM      5  N   UNL d   1      58.600  -2.430  28.927  0.00  0.00    -0.191 NA
ATOM      6  O   UNL d   1      56.824  -2.083  30.618  0.00  0.00    -0.243 OA
ATOM      7  O   UNL d   1      57.328  -2.824  29.529  0.00  0.00    -0.242 OA
ENDROOT
BRANCH   1   8
ATOM      8  S   UNL d   1      56.952  -0.827  31.707  0.00  0.00     0.275 S 
ATOM      9  O   UNL d   1      56.538  -0.362  31.172  0.00  0.00    -0.199 OA
ATOM     10  O   UNL d   1      57.383  -1.295  32.225  0.00  0.00    -0.199 OA
BRANCH   8  11
ATOM     11  C   UNL d   1      56.383  -0.705  32.285  0.00  0.00     0.104 A 
ATOM     12  C   UNL d   1      56.040  -1.340  32.677  0.00  0.00     0.013 A 
ATOM     13  C   UNL d   1      55.462  -1.221  33.264  0.00  0.00     0.001 A 
ATOM     14  C   UNL d   1      55.226  -0.466  33.460  0.00  0.00     0.000 A 
ATOM     15  C   UNL d   1      55.569   0.183  33.066  0.00  0.00     0.001 A 
ATOM     16  C   UNL d   1      56.148   0.064  32.479  0.00  0.00     0.013 A 
ENDBRANCH   8  11
ENDBRANCH   1   8
BRANCH   1  17
ATOM     17  C   UNL d   1      58.203  -0.482  31.074  0.00  0.00     0.079 A 
ATOM     18  C   UNL d   1      58.820  -0.580  31.593  0.00  0.00     0.018 A 
ATOM     19  C   UNL d   1      59.490  -0.094  31.542  0.00  0.00     0.002 A 
ATOM     20  C   UNL d   1      59.533   0.493  30.964  0.00  0.00     0.000 A 
ATOM     21  C   UNL d   1      58.905   0.588  30.442  0.00  0.00     0.002 A 
ATOM     22  C   UNL d   1      58.245   0.102  30.499  0.00  0.00     0.018 A 
ENDBRANCH   1  17
BRANCH   5  23
ATOM     23  C   UNL d   1      59.252  -1.922  28.907  0.00  0.00     0.086 A 
ATOM     24  C   UNL d   1      59.222  -1.199  28.485  0.00  0.00     0.019 A 
ATOM     25  C   UNL d   1      59.868  -0.702  28.469  0.00  0.00     0.002 A 
ATOM     26  C   UNL d   1      60.566  -0.910  28.873  0.00  0.00     0.000 A 
ATOM     27  C   UNL d   1      60.609  -1.633  29.300  0.00  0.00     0.002 A 
ATOM     28  C   UNL d   1      61.090  -0.503  28.857  0.00  0.00     0.000 C 
ATOM     29  C   UNL d   1      59.939  -2.127  29.304  0.00  0.00     0.019 A 
ENDBRANCH   5  23
TORSDOF 4
ENDMDL
MODEL 2
REMARK VINA RESULT:       7.6      1.413      2.281
REMARK  4 active torsions:
REMARK  status: ('A' for Active; 'I' for Inactive)
REMARK    1  A    between atoms: N_2  and  S_1 
REMARK    2  A    between atoms: C_8  and  S_1 
REMARK       I    between atoms: C_3  and  N_2 
REMARK    3  A    between atoms: C_11  and  N_2 
REMARK       I    between atoms: N_4  and  C_3 
REMARK       I    between atoms: C_5  and  N_4 
REMARK       I    between atoms: N_9  and  C_5 
REMARK    4  A    between atoms: C_13  and  N_9 
ROOT
ATOM      1  N   UNL d   1      58.326  -0.353  31.180  0.00  0.00    -0.182 N 
ATOM      2  C   UNL d   1      59.048  -0.005  31.337  0.00  0.00     0.367 C 
ATOM      3  N   UNL d   1      59.709  -0.261  30.909  0.00  0.00    -0.135 NA
ATOM      4  C   UNL d   1      60.454   0.070  31.044  0.00  0.00     0.373 C 
ATOM      5  N   UNL d   1      61.112  -0.185  30.619  0.00  0.00    -0.191 NA
ATOM      6  O   UNL d   1      59.133   0.580  31.897  0.00  0.00    -0.243 OA
ATOM      7  O   UNL d   1      60.515   0.679  31.635  0.00  0.00    -0.242 OA
ENDROOT
BRANCH   1   8
ATOM      8  S   UNL d   1      57.642  -0.107  31.604  0.00  0.00     0.275 S 
ATOM      9  O   UNL d   1      57.832   0.676  31.447  0.00  0.00    -0.199 OA
ATOM     10  O   UNL d   1      57.472  -0.896  31.748  0.00  0.00    -0.199 OA
BRANCH   8  11
ATOM     11  C   UNL d   1      56.971   0.117  32.020  0.00  0.00     0.104 A 
ATOM     12  C   UNL d   1      56.964   0.106  32.841  0.00  0.00     0.013 A 
ATOM     13  C   UNL d   1      56.285   0.333  33.267  0.00  0.00     0.001 A 
ATOM     14  C   UNL d   1      55.614   0.571  32.872  0.00  0.00     0.000 A 
ATOM     15  C   UNL d   1      55.614   0.585  32.039  0.00  0.00     0.001 A 
ATOM     16  C   UNL d   1      56.293   0.358  31.613  0.00  0.00     0.013 A 
ENDBRANCH   8  11
ENDBRANCH   1   8
BRANCH   1  17
ATOM     17  C   UNL d   1      58.283  -0.936  30.611  0.00  0.00     0.079 A 
ATOM     18  C   UNL d   1      58.304  -0.738  29.823  0.00  0.00     0.018 A 
ATOM     19  C   UNL d   1      58.262  -1.329  29.243  0.00  0.00     0.002 A 
ATOM     20  C   UNL d   1      58.197  -2.121  29.463  0.00  0.00     0.000 A 
ATOM     21  C   UNL d   1      58.176  -2.315  30.262  0.00  0.00     0.002 A 
ATOM     22  C   UNL d   1      58.219  -1.724  30.830  0.00  0.00     0.018 A 
ENDBRANCH   1  17
BRANCH   5  23
ATOM     23  C   UNL d   1      61.028  -0.779  30.050  0.00  0.00     0.086 A 
ATOM     24  C   UNL d   1      60.866  -0.589  29.250  0.00  0.00     0.019 A 
ATOM     25  C   UNL d   1      60.784  -1.180  28.694  0.00  0.00     0.002 A 
ATOM     26  C   UNL d   1      60.861  -1.979  28.916  0.00  0.00     0.000 A 
ATOM     27  C   UNL d   1      61.024  -2.182  29.715  0.00  0.00     0.002 A 
ATOM     28  C   UNL d   1      60.794  -2.455  28.459  0.00  0.00     0.000 C 
ATOM     29  C   UNL d   1      61.104  -1.565  30.268  0.00  0.00     0.019 A 
ENDBRANCH   5  23
TORSDOF 4
ENDMDL
