MODEL 1
REMARK VINA RESULT:      -4.2      0.000      0.000
REMARK  5 active torsions:
REMARK  status: ('A' for Active; 'I' for Inactive)
REMARK    1  A    between atoms: C_2  and  S_1 
REMARK    2  A    between atoms: N_3  and  S_1 
REMARK    3  A    between atoms: C_14  and  N_3 
REMARK    4  A    between atoms: C_15  and  C_14 
REMARK    5  A    between atoms: O_18  and  C_16 
ROOT
ATOM      1  S   UNL d   1      58.434   0.144  29.232  0.00  0.00     0.285 S 
ATOM      2  O   UNL d   1      57.782   0.646  29.172  0.00  0.00    -0.198 OA
ATOM      3  O   UNL d   1      58.630   0.306  28.456  0.00  0.00    -0.198 OA
ENDROOT
BRANCH   1   4
ATOM      4  C   UNL d   1      59.084  -0.359  29.300  0.00  0.00     0.107 A 
ATOM      5  C   UNL d   1      59.007  -1.167  29.143  0.00  0.00     0.037 A 
ATOM      6  C   UNL d   1      59.661  -1.664  29.213  0.00  0.00     0.095 A 
ATOM      7  C   UNL d   1      60.394  -1.353  29.440  0.00  0.00     0.024 A 
ATOM      8  C   UNL d   1      60.468  -0.548  29.596  0.00  0.00     0.003 A 
ATOM      9  C   UNL d   1      59.813  -0.051  29.526  0.00  0.00     0.013 A 
BRANCH   6  10
ATOM     10  O   UNL d   1      59.587  -2.469  29.057  0.00  0.00    -0.328 OA
ATOM     11  C   UNL d   1      60.174  -2.864  28.632  0.00  0.00     0.181 C 
ENDBRANCH   6  10
ENDBRANCH   1   4
BRANCH   1  12
ATOM     12  N   UNL d   1      58.233  -0.016  30.016  0.00  0.00    -0.157 NA
BRANCH  12  13
ATOM     13  C   UNL d   1      57.565   0.348  30.353  0.00  0.00     0.112 C 
BRANCH  13  14
ATOM     14  C   UNL d   1      57.337   0.159  31.122  0.00  0.00     0.022 A 
ATOM     15  C   UNL d   1      56.889  -0.519  31.259  0.00  0.00     0.028 A 
ATOM     16  C   UNL d   1      56.661  -0.709  32.028  0.00  0.00     0.119 A 
ATOM     17  O   UNL d   1      56.223  -1.335  32.329  0.00  0.00    -0.300 OA
ATOM     18  C   UNL d   1      56.877  -0.227  32.662  0.00  0.00     0.119 A 
ATOM     19  C   UNL d   1      56.164  -1.245  33.148  0.00  0.00     0.304 A 
ATOM     20  O   UNL d   1      56.576  -0.551  33.343  0.00  0.00    -0.300 OA
ATOM     21  C   UNL d   1      57.328   0.455  32.516  0.00  0.00     0.026 A 
ATOM     22  C   UNL d   1      57.559   0.649  31.748  0.00  0.00     0.004 A 
ENDBRANCH  13  14
ENDBRANCH  12  13
ENDBRANCH   1  12
TORSDOF 5
ENDMDL
MODEL 2
REMARK VINA RESULT:      -3.4      1.553      4.695
REMARK  5 active torsions:
REMARK  status: ('A' for Active; 'I' for Inactive)
REMARK    1  A    between atoms: C_2  and  S_1 
REMARK    2  A    between atoms: N_3  and  S_1 
REMARK    3  A    between atoms: C_14  and  N_3 
REMARK    4  A    between atoms: C_15  and  C_14 
REMARK    5  A    between atoms: O_18  and  C_16 
ROOT
ATOM      1  S   UNL d   1      57.454   0.357  32.883  0.00  0.00     0.285 S 
ATOM      2  O   UNL d   1      58.202   0.682  32.759  0.00  0.00    -0.198 OA
ATOM      3  O   UNL d   1      57.512   0.527  33.680  0.00  0.00    -0.198 OA
ENDROOT
BRANCH   1   4
ATOM      4  C   UNL d   1      56.706   0.030  32.999  0.00  0.00     0.107 A 
ATOM      5  C   UNL d   1      56.080   0.501  33.267  0.00  0.00     0.037 A 
ATOM      6  C   UNL d   1      55.335   0.167  33.381  0.00  0.00     0.095 A 
ATOM      7  C   UNL d   1      55.214  -0.637  33.227  0.00  0.00     0.024 A 
ATOM      8  C   UNL d   1      55.839  -1.103  32.960  0.00  0.00     0.003 A 
ATOM      9  C   UNL d   1      56.584  -0.770  32.846  0.00  0.00     0.013 A 
BRANCH   6  10
ATOM     10  O   UNL d   1      54.710   0.632  33.648  0.00  0.00    -0.328 OA
ATOM     11  C   UNL d   1      54.546   0.682  34.455  0.00  0.00     0.181 C 
ENDBRANCH   6  10
ENDBRANCH   1   4
BRANCH   1  12
ATOM     12  N   UNL d   1      57.399   0.187  32.078  0.00  0.00    -0.157 NA
BRANCH  12  13
ATOM     13  C   UNL d   1      57.875   0.602  31.536  0.00  0.00     0.112 C 
BRANCH  13  14
ATOM     14  C   UNL d   1      57.980   0.308  30.772  0.00  0.00     0.022 A 
ATOM     15  C   UNL d   1      58.470  -0.344  30.651  0.00  0.00     0.028 A 
ATOM     16  C   UNL d   1      58.576  -0.637  29.888  0.00  0.00     0.119 A 
ATOM     17  O   UNL d   1      59.021  -1.266  29.601  0.00  0.00    -0.300 OA
ATOM     18  C   UNL d   1      58.197  -0.285  29.245  0.00  0.00     0.119 A 
ATOM     19  C   UNL d   1      58.920  -1.307  28.782  0.00  0.00     0.304 A 
ATOM     20  O   UNL d   1      58.405  -0.690  28.573  0.00  0.00    -0.300 OA
ATOM     21  C   UNL d   1      57.705   0.371  29.376  0.00  0.00     0.026 A 
ATOM     22  C   UNL d   1      57.596   0.669  30.138  0.00  0.00     0.004 A 
ENDBRANCH  13  14
ENDBRANCH  12  13
ENDBRANCH   1  12
TORSDOF 5
ENDMDL
MODEL 3
REMARK VINA RESULT:      -3.0      1.347      1.813
REMARK  5 active torsions:
REMARK  status: ('A' for Active; 'I' for Inactive)
REMARK    1  A    between atoms: C_2  and  S_1 
REMARK    2  A    between atoms: N_3  and  S_1 
REMARK    3  A    between atoms: C_14  and  N_3 
REMARK    4  A    between atoms: C_15  and  C_14 
REMARK    5  A    between atoms: O_18  and  C_16 
ROOT
ATOM      1  S   UNL d   1      58.159  -1.260  29.901  0.00  0.00     0.285 S 
ATOM      2  O   UNL d   1      57.720  -1.900  30.181  0.00  0.00    -0.198 OA
ATOM      3  O   UNL d   1      58.517  -1.747  29.351  0.00  0.00    -0.198 OA
ENDROOT
BRANCH   1   4
ATOM      4  C   UNL d   1      58.594  -0.616  29.627  0.00  0.00     0.107 A 
ATOM      5  C   UNL d   1      59.337  -0.444  29.949  0.00  0.00     0.037 A 
ATOM      6  C   UNL d   1      59.766   0.202  29.669  0.00  0.00     0.095 A 
ATOM      7  C   UNL d   1      59.454   0.677  29.067  0.00  0.00     0.024 A 
ATOM      8  C   UNL d   1      58.714   0.504  28.749  0.00  0.00     0.003 A 
ATOM      9  C   UNL d   1      58.285  -0.143  29.028  0.00  0.00     0.013 A 
BRANCH   6  10
ATOM     10  O   UNL d   1      60.505   0.376  29.987  0.00  0.00    -0.328 OA
ATOM     11  C   UNL d   1      61.114   0.642  29.499  0.00  0.00     0.181 C 
ENDBRANCH   6  10
ENDBRANCH   1   4
BRANCH   1  12
ATOM     12  N   UNL d   1      57.795  -0.772  30.458  0.00  0.00    -0.157 NA
BRANCH  12  13
ATOM     13  C   UNL d   1      57.277  -1.103  31.019  0.00  0.00     0.112 C 
BRANCH  13  14
ATOM     14  C   UNL d   1      56.908  -0.617  31.575  0.00  0.00     0.022 A 
ATOM     15  C   UNL d   1      56.347  -0.938  32.087  0.00  0.00     0.028 A 
ATOM     16  C   UNL d   1      55.979  -0.453  32.642  0.00  0.00     0.119 A 
ATOM     17  O   UNL d   1      55.410  -0.612  33.214  0.00  0.00    -0.300 OA
ATOM     18  C   UNL d   1      56.165   0.349  32.690  0.00  0.00     0.119 A 
ATOM     19  C   UNL d   1      55.241   0.088  33.618  0.00  0.00     0.304 A 
ATOM     20  O   UNL d   1      55.718   0.680  33.282  0.00  0.00    -0.300 OA
ATOM     21  C   UNL d   1      56.731   0.664  32.171  0.00  0.00     0.026 A 
ATOM     22  C   UNL d   1      57.103   0.184  31.613  0.00  0.00     0.004 A 
ENDBRANCH  13  14
ENDBRANCH  12  13
ENDBRANCH   1  12
TORSDOF 5
ENDMDL
MODEL 4
REMARK VINA RESULT:      -2.2      8.434     10.100
REMARK  5 active torsions:
REMARK  status: ('A' for Active; 'I' for Inactive)
REMARK    1  A    between atoms: C_2  and  S_1 
REMARK    2  A    between atoms: N_3  and  S_1 
REMARK    3  A    between atoms: C_14  and  N_3 
REMARK    4  A    between atoms: C_15  and  C_14 
REMARK    5  A    between atoms: O_18  and  C_16 
ROOT
ATOM      1  S   UNL d   1      59.200  -8.872  35.721  0.00  0.00     0.285 S 
ATOM      2  O   UNL d   1      58.649  -9.473  35.597  0.00  0.00    -0.198 OA
ATOM      3  O   UNL d   1      58.741  -8.576  36.328  0.00  0.00    -0.198 OA
ENDROOT
BRANCH   1   4
ATOM      4  C   UNL d   1      59.755  -8.273  35.838  0.00  0.00     0.107 A 
ATOM      5  C   UNL d   1      59.563  -7.485  35.677  0.00  0.00     0.037 A 
ATOM      6  C   UNL d   1      60.124  -6.892  35.797  0.00  0.00     0.095 A 
ATOM      7  C   UNL d   1      60.877  -7.087  36.078  0.00  0.00     0.024 A 
ATOM      8  C   UNL d   1      61.066  -7.873  36.238  0.00  0.00     0.003 A 
ATOM      9  C   UNL d   1      60.505  -8.466  36.118  0.00  0.00     0.013 A 
BRANCH   6  10
ATOM     10  O   UNL d   1      59.935  -6.107  35.637  0.00  0.00    -0.328 OA
ATOM     11  C   UNL d   1      60.223  -5.505  36.123  0.00  0.00     0.181 C 
ENDBRANCH   6  10
ENDBRANCH   1   4
BRANCH   1  12
ATOM     12  N   UNL d   1      59.661  -9.173  35.107  0.00  0.00    -0.157 NA
BRANCH  12  13
ATOM     13  C   UNL d   1      59.363  -9.790  34.634  0.00  0.00     0.112 C 
BRANCH  13  14
ATOM     14  C   UNL d   1      59.508  -9.792  33.822  0.00  0.00     0.022 A 
ATOM     15  C   UNL d   1      60.285  -9.804  33.547  0.00  0.00     0.028 A 
ATOM     16  C   UNL d   1      60.430  -9.806  32.735  0.00  0.00     0.119 A 
ATOM     17  O   UNL d   1      61.130  -9.818  32.306  0.00  0.00    -0.300 OA
ATOM     18  C   UNL d   1      59.805  -9.796  32.196  0.00  0.00     0.119 A 
ATOM     19  C   UNL d   1      60.944  -9.814  31.501  0.00  0.00     0.304 A 
ATOM     20  O   UNL d   1      60.116  -9.801  31.446  0.00  0.00    -0.300 OA
ATOM     21  C   UNL d   1      59.026  -9.784  32.481  0.00  0.00     0.026 A 
ATOM     22  C   UNL d   1      58.875  -9.782  33.293  0.00  0.00     0.004 A 
ENDBRANCH  13  14
ENDBRANCH  12  13
ENDBRANCH   1  12
TORSDOF 5
ENDMDL
