MODEL 1
REMARK VINA RESULT:      -1.7      0.000      0.000
REMARK  5 active torsions:
REMARK  status: ('A' for Active; 'I' for Inactive)
REMARK    1  A    between atoms: N_2  and  S_1 
REMARK    2  A    between atoms: C_9  and  S_1 
REMARK    3  A    between atoms: C_8  and  N_2 
REMARK       I    between atoms: C_14  and  N_2 
REMARK    4  A    between atoms: C_17  and  C_3 
REMARK    5  A    between atoms: N_6  and  C_5 
ROOT
ATOM      1  N   UNL d   1      32.057  17.043 -23.746  0.00  0.00    -0.198 N 
ATOM      2  C   UNL d   1      32.507  16.569 -23.223  0.00  0.00     0.274 C 
ATOM      3  O   UNL d   1      33.241  16.844 -22.940  0.00  0.00    -0.266 OA
ATOM      4  C   UNL d   1      32.239  15.824 -22.977  0.00  0.00     0.067 C 
ENDROOT
BRANCH   1   5
ATOM      5  S   UNL d   1      31.315  16.743 -24.021  0.00  0.00     0.274 S 
ATOM      6  O   UNL d   1      30.957  17.055 -23.352  0.00  0.00    -0.200 OA
ATOM      7  O   UNL d   1      31.693  16.424 -24.711  0.00  0.00    -0.200 OA
BRANCH   5   8
ATOM      8  C   UNL d   1      30.585  16.460 -24.272  0.00  0.00     0.106 A 
ATOM      9  C   UNL d   1      29.903  16.782 -23.999  0.00  0.00     0.037 A 
ATOM     10  C   UNL d   1      29.153  16.515 -24.235  0.00  0.00     0.138 A 
ATOM     11  C   UNL d   1      29.139  15.850 -24.810  0.00  0.00     0.080 A 
ATOM     12  C   UNL d   1      29.851  15.532 -25.079  0.00  0.00     0.014 A 
ATOM     13 CL   UNL d   1      28.421  15.533 -25.090  0.00  0.00    -0.081 Cl
ATOM     14  C   UNL d   1      30.556  15.836 -24.811  0.00  0.00     0.014 A 
BRANCH  10  15
ATOM     15  N   UNL d   1      28.452  16.855 -23.948  0.00  0.00    -0.113 N 
ATOM     16  O   UNL d   1      28.293  17.645 -24.172  0.00  0.00    -0.532 OA
ATOM     17  O   UNL d   1      27.933  16.461 -23.473  0.00  0.00    -0.532 OA
ENDBRANCH  10  15
ENDBRANCH   5   8
ENDBRANCH   1   5
BRANCH   1  18
ATOM     18  C   UNL d   1      32.334  17.779 -23.983  0.00  0.00     0.078 A 
ATOM     19  C   UNL d   1      32.376  18.361 -23.454  0.00  0.00     0.021 A 
ATOM     20  C   UNL d   1      32.653  19.120 -23.664  0.00  0.00     0.029 A 
ATOM     21  C   UNL d   1      32.750  19.802 -23.236  0.00  0.00     0.064 A 
ATOM     22  C   UNL d   1      32.889  19.275 -24.436  0.00  0.00     0.100 A 
ATOM     23  C   UNL d   1      33.043  20.380 -23.730  0.00  0.00     0.103 A 
ATOM     24  C   UNL d   1      33.232  21.163 -23.555  0.00  0.00     0.027 C 
ATOM     25  O   UNL d   1      33.129  20.050 -24.477  0.00  0.00    -0.307 OA
ATOM     26  C   UNL d   1      32.855  18.674 -25.020  0.00  0.00     0.026 A 
ATOM     27  C   UNL d   1      32.582  17.941 -24.797  0.00  0.00     0.020 A 
BRANCH  21  28
ATOM     28  C   UNL d   1      32.580  19.904 -22.423  0.00  0.00     0.198 C 
ATOM     29  O   UNL d   1      31.820  20.029 -22.155  0.00  0.00    -0.286 OA
ATOM     30  C   UNL d   1      33.227  19.874 -21.875  0.00  0.00     0.045 C 
ENDBRANCH  21  28
ENDBRANCH   1  18
TORSDOF 5
ENDMDL
MODEL 2
REMARK VINA RESULT:      -0.3      2.295      4.836
REMARK  5 active torsions:
REMARK  status: ('A' for Active; 'I' for Inactive)
REMARK    1  A    between atoms: N_2  and  S_1 
REMARK    2  A    between atoms: C_9  and  S_1 
REMARK    3  A    between atoms: C_8  and  N_2 
REMARK       I    between atoms: C_14  and  N_2 
REMARK    4  A    between atoms: C_17  and  C_3 
REMARK    5  A    between atoms: N_6  and  C_5 
ROOT
ATOM      1  N   UNL d   1      32.837  19.010 -23.504  0.00  0.00    -0.198 N 
ATOM      2  C   UNL d   1      33.032  19.414 -24.212  0.00  0.00     0.274 C 
ATOM      3  O   UNL d   1      33.018  19.009 -24.939  0.00  0.00    -0.266 OA
ATOM      4  C   UNL d   1      33.240  20.217 -24.206  0.00  0.00     0.067 C 
ENDROOT
BRANCH   1   5
ATOM      5  S   UNL d   1      32.858  19.442 -22.777  0.00  0.00     0.274 S 
ATOM      6  O   UNL d   1      32.495  20.072 -23.157  0.00  0.00    -0.200 OA
ATOM      7  O   UNL d   1      33.234  18.786 -22.392  0.00  0.00    -0.200 OA
BRANCH   5   8
ATOM      8  C   UNL d   1      32.870  19.877 -22.079  0.00  0.00     0.106 A 
ATOM      9  C   UNL d   1      32.552  20.613 -22.048  0.00  0.00     0.037 A 
ATOM     10  C   UNL d   1      32.550  21.073 -21.357  0.00  0.00     0.138 A 
ATOM     11  C   UNL d   1      32.919  20.711 -20.646  0.00  0.00     0.080 A 
ATOM     12  C   UNL d   1      33.240  19.954 -20.698  0.00  0.00     0.014 A 
ATOM     13 CL   UNL d   1      32.952  21.117 -19.919  0.00  0.00    -0.081 Cl
ATOM     14  C   UNL d   1      33.213  19.550 -21.404  0.00  0.00     0.014 A 
BRANCH  10  15
ATOM     15  N   UNL d   1      32.219  21.835 -21.334  0.00  0.00    -0.113 N 
ATOM     16  O   UNL d   1      31.387  21.888 -21.392  0.00  0.00    -0.532 OA
ATOM     17  O   UNL d   1      32.660  22.505 -21.259  0.00  0.00    -0.532 OA
ENDBRANCH  10  15
ENDBRANCH   5   8
ENDBRANCH   1   5
BRANCH   1  18
ATOM     18  C   UNL d   1      32.633  18.216 -23.523  0.00  0.00     0.078 A 
ATOM     19  C   UNL d   1      31.897  18.013 -23.719  0.00  0.00     0.021 A 
ATOM     20  C   UNL d   1      31.658  17.214 -23.746  0.00  0.00     0.029 A 
ATOM     21  C   UNL d   1      30.950  16.863 -23.927  0.00  0.00     0.064 A 
ATOM     22  C   UNL d   1      32.193  16.617 -23.567  0.00  0.00     0.100 A 
ATOM     23  C   UNL d   1      31.035  16.055 -23.863  0.00  0.00     0.103 A 
ATOM     24  C   UNL d   1      30.475  15.465 -23.991  0.00  0.00     0.027 C 
ATOM     25  O   UNL d   1      31.810  15.904 -23.639  0.00  0.00    -0.307 OA
ATOM     26  C   UNL d   1      32.983  16.802 -23.355  0.00  0.00     0.026 A 
ATOM     27  C   UNL d   1      33.197  17.586 -23.333  0.00  0.00     0.020 A 
BRANCH  21  28
ATOM     28  C   UNL d   1      30.243  17.257 -24.144  0.00  0.00     0.198 C 
ATOM     29  O   UNL d   1      29.813  17.695 -23.607  0.00  0.00    -0.286 OA
ATOM     30  C   UNL d   1      29.982  17.189 -24.948  0.00  0.00     0.045 C 
ENDBRANCH  21  28
ENDBRANCH   1  18
TORSDOF 5
ENDMDL
MODEL 3
REMARK VINA RESULT:       1.1      1.407      2.494
REMARK  5 active torsions:
REMARK  status: ('A' for Active; 'I' for Inactive)
REMARK    1  A    between atoms: N_2  and  S_1 
REMARK    2  A    between atoms: C_9  and  S_1 
REMARK    3  A    between atoms: C_8  and  N_2 
REMARK       I    between atoms: C_14  and  N_2 
REMARK    4  A    between atoms: C_17  and  C_3 
REMARK    5  A    between atoms: N_6  and  C_5 
ROOT
ATOM      1  N   UNL d   1      32.625  19.044 -23.590  0.00  0.00    -0.198 N 
ATOM      2  C   UNL d   1      32.851  19.533 -24.231  0.00  0.00     0.274 C 
ATOM      3  O   UNL d   1      33.236  20.257 -24.085  0.00  0.00    -0.266 OA
ATOM      4  C   UNL d   1      32.701  19.312 -25.016  0.00  0.00     0.067 C 
ENDROOT
BRANCH   1   5
ATOM      5  S   UNL d   1      32.235  18.313 -23.762  0.00  0.00     0.274 S 
ATOM      6  O   UNL d   1      31.545  18.731 -23.910  0.00  0.00    -0.200 OA
ATOM      7  O   UNL d   1      32.953  17.887 -23.607  0.00  0.00    -0.200 OA
BRANCH   5   8
ATOM      8  C   UNL d   1      31.840  17.612 -23.932  0.00  0.00     0.106 A 
ATOM      9  C   UNL d   1      31.089  17.490 -23.676  0.00  0.00     0.037 A 
ATOM     10  C   UNL d   1      30.668  16.793 -23.834  0.00  0.00     0.138 A 
ATOM     11  C   UNL d   1      31.088  16.181 -24.304  0.00  0.00     0.080 A 
ATOM     12  C   UNL d   1      31.859  16.324 -24.560  0.00  0.00     0.014 A 
ATOM     13 CL   UNL d   1      30.724  15.457 -24.500  0.00  0.00    -0.081 Cl
ATOM     14  C   UNL d   1      32.222  17.029 -24.373  0.00  0.00     0.014 A 
BRANCH  10  15
ATOM     15  N   UNL d   1      29.891  16.675 -23.564  0.00  0.00    -0.113 N 
ATOM     16  O   UNL d   1      29.290  17.127 -23.928  0.00  0.00    -0.532 OA
ATOM     17  O   UNL d   1      29.702  16.154 -22.979  0.00  0.00    -0.532 OA
ENDBRANCH  10  15
ENDBRANCH   5   8
ENDBRANCH   1   5
BRANCH   1  18
ATOM     18  C   UNL d   1      32.779  19.273 -22.817  0.00  0.00     0.078 A 
ATOM     19  C   UNL d   1      32.639  20.018 -22.603  0.00  0.00     0.021 A 
ATOM     20  C   UNL d   1      32.786  20.282 -21.824  0.00  0.00     0.029 A 
ATOM     21  C   UNL d   1      32.692  21.004 -21.468  0.00  0.00     0.064 A 
ATOM     22  C   UNL d   1      33.082  19.762 -21.261  0.00  0.00     0.100 A 
ATOM     23  C   UNL d   1      32.926  20.942 -20.689  0.00  0.00     0.103 A 
ATOM     24  C   UNL d   1      32.934  21.522 -20.104  0.00  0.00     0.027 C 
ATOM     25  O   UNL d   1      33.169  20.168 -20.563  0.00  0.00    -0.307 OA
ATOM     26  C   UNL d   1      33.241  18.963 -21.461  0.00  0.00     0.026 A 
ATOM     27  C   UNL d   1      33.092  18.725 -22.224  0.00  0.00     0.020 A 
BRANCH  21  28
ATOM     28  C   UNL d   1      32.404  21.702 -21.830  0.00  0.00     0.198 C 
ATOM     29  O   UNL d   1      31.617  21.791 -22.025  0.00  0.00    -0.286 OA
ATOM     30  C   UNL d   1      32.958  22.323 -21.992  0.00  0.00     0.045 C 
ENDBRANCH  21  28
ENDBRANCH   1  18
TORSDOF 5
ENDMDL
