MODEL 1
REMARK VINA RESULT:      -5.9      0.000      0.000
REMARK  4 active torsions:
REMARK  status: ('A' for Active; 'I' for Inactive)
REMARK    1  A    between atoms: C_5  and  S_1 
REMARK    2  A    between atoms: N_8  and  S_1 
REMARK    3  A    between atoms: C_6  and  C_14 
REMARK    4  A    between atoms: C_14  and  N_8 
ROOT
ATOM      1  N   UNL d   1      52.122  33.804  53.714  0.00  0.00    -0.155 NA
ENDROOT
BRANCH   1   2
ATOM      2  S   UNL d   1      52.879  33.646  53.986  0.00  0.00     0.291 S 
ATOM      3  O   UNL d   1      52.742  32.849  53.807  0.00  0.00    -0.198 OA
ATOM      4  O   UNL d   1      53.005  34.442  54.160  0.00  0.00    -0.198 OA
BRANCH   2   5
ATOM      5  C   UNL d   1      53.655  33.481  54.264  0.00  0.00     0.135 A 
ATOM      6  S   UNL d   1      53.969  33.721  54.990  0.00  0.00    -0.073 SA
ATOM      7  C   UNL d   1      54.762  33.435  55.040  0.00  0.00     0.036 A 
ATOM      8  C   UNL d   1      54.926  33.017  54.334  0.00  0.00     0.008 A 
ATOM      9  C   UNL d   1      54.242  33.041  53.846  0.00  0.00     0.020 A 
ENDBRANCH   2   5
ENDBRANCH   1   2
BRANCH   1  10
ATOM     10  C   UNL d   1      52.011  34.114  52.963  0.00  0.00     0.133 C 
BRANCH  10  11
ATOM     11  C   UNL d   1      51.255  34.259  52.681  0.00  0.00     0.121 A 
ATOM     12  N   UNL d   1      50.634  34.583  53.108  0.00  0.00    -0.219 NA
ATOM     13  C   UNL d   1      49.978  34.631  52.614  0.00  0.00     0.180 A 
ATOM     14  S   UNL d   1      49.191  34.858  52.567  0.00  0.00    -0.048 SA
ATOM     15  N   UNL d   1      50.197  34.330  51.868  0.00  0.00    -0.282 N 
ATOM     16  C   UNL d   1      48.924  34.701  51.802  0.00  0.00     0.057 A 
ATOM     17  C   UNL d   1      49.545  34.378  51.380  0.00  0.00     0.089 A 
ATOM     18  C   UNL d   1      50.989  34.101  51.916  0.00  0.00     0.103 A 
ENDBRANCH  10  11
ENDBRANCH   1  10
TORSDOF 4
ENDMDL
MODEL 2
REMARK VINA RESULT:      -5.9      2.488      3.898
REMARK  4 active torsions:
REMARK  status: ('A' for Active; 'I' for Inactive)
REMARK    1  A    between atoms: C_5  and  S_1 
REMARK    2  A    between atoms: N_8  and  S_1 
REMARK    3  A    between atoms: C_6  and  C_14 
REMARK    4  A    between atoms: C_14  and  N_8 
ROOT
ATOM      1  N   UNL d   1      52.780  32.887  53.475  0.00  0.00    -0.155 NA
ENDROOT
BRANCH   1   2
ATOM      2  S   UNL d   1      52.878  33.649  53.761  0.00  0.00     0.291 S 
ATOM      3  O   UNL d   1      52.138  33.571  54.127  0.00  0.00    -0.198 OA
ATOM      4  O   UNL d   1      53.613  33.715  53.394  0.00  0.00    -0.198 OA
BRANCH   2   5
ATOM      5  C   UNL d   1      52.975  34.430  54.058  0.00  0.00     0.135 A 
ATOM      6  S   UNL d   1      53.288  34.631  54.795  0.00  0.00    -0.073 SA
ATOM      7  C   UNL d   1      53.282  35.473  54.862  0.00  0.00     0.036 A 
ATOM      8  C   UNL d   1      52.961  35.781  54.153  0.00  0.00     0.008 A 
ATOM      9  C   UNL d   1      52.767  35.138  53.648  0.00  0.00     0.020 A 
ENDBRANCH   2   5
ENDBRANCH   1   2
BRANCH   1  10
ATOM     10  C   UNL d   1      53.416  32.369  53.458  0.00  0.00     0.133 C 
BRANCH  10  11
ATOM     11  C   UNL d   1      53.291  31.559  53.465  0.00  0.00     0.121 A 
ATOM     12  N   UNL d   1      53.608  31.024  53.999  0.00  0.00    -0.219 NA
ATOM     13  C   UNL d   1      53.339  30.272  53.803  0.00  0.00     0.180 A 
ATOM     14  S   UNL d   1      53.366  29.478  54.008  0.00  0.00    -0.048 SA
ATOM     15  N   UNL d   1      52.847  30.343  53.135  0.00  0.00    -0.282 N 
ATOM     16  C   UNL d   1      52.896  29.060  53.474  0.00  0.00     0.057 A 
ATOM     17  C   UNL d   1      52.581  29.595  52.943  0.00  0.00     0.089 A 
ATOM     18  C   UNL d   1      52.820  31.142  52.930  0.00  0.00     0.103 A 
ENDBRANCH  10  11
ENDBRANCH   1  10
TORSDOF 4
ENDMDL
MODEL 3
REMARK VINA RESULT:      -5.8      1.241      4.453
REMARK  4 active torsions:
REMARK  status: ('A' for Active; 'I' for Inactive)
REMARK    1  A    between atoms: C_5  and  S_1 
REMARK    2  A    between atoms: N_8  and  S_1 
REMARK    3  A    between atoms: C_6  and  C_14 
REMARK    4  A    between atoms: C_14  and  N_8 
ROOT
ATOM      1  N   UNL d   1      51.488  33.792  53.107  0.00  0.00    -0.155 NA
ENDROOT
BRANCH   1   2
ATOM      2  S   UNL d   1      50.812  34.068  52.734  0.00  0.00     0.291 S 
ATOM      3  O   UNL d   1      50.372  33.704  53.336  0.00  0.00    -0.198 OA
ATOM      4  O   UNL d   1      51.259  34.426  52.141  0.00  0.00    -0.198 OA
BRANCH   2   5
ATOM      5  C   UNL d   1      50.116  34.349  52.355  0.00  0.00     0.135 A 
ATOM      6  S   UNL d   1      49.521  34.799  52.710  0.00  0.00    -0.073 SA
ATOM      7  C   UNL d   1      48.929  34.958  52.129  0.00  0.00     0.036 A 
ATOM      8  C   UNL d   1      49.174  34.598  51.414  0.00  0.00     0.008 A 
ATOM      9  C   UNL d   1      49.911  34.217  51.547  0.00  0.00     0.020 A 
ENDBRANCH   2   5
ENDBRANCH   1   2
BRANCH   1  10
ATOM     10  C   UNL d   1      52.130  34.291  53.214  0.00  0.00     0.133 C 
BRANCH  10  11
ATOM     11  C   UNL d   1      52.773  34.048  53.661  0.00  0.00     0.121 A 
ATOM     12  N   UNL d   1      53.235  33.384  53.524  0.00  0.00    -0.219 NA
ATOM     13  C   UNL d   1      53.818  33.350  54.103  0.00  0.00     0.180 A 
ATOM     14  S   UNL d   1      54.461  32.923  54.379  0.00  0.00    -0.048 SA
ATOM     15  N   UNL d   1      53.715  34.005  54.607  0.00  0.00    -0.282 N 
ATOM     16  C   UNL d   1      54.756  33.308  55.047  0.00  0.00     0.057 A 
ATOM     17  C   UNL d   1      54.294  33.970  55.181  0.00  0.00     0.089 A 
ATOM     18  C   UNL d   1      53.067  34.433  54.328  0.00  0.00     0.103 A 
ENDBRANCH  10  11
ENDBRANCH   1  10
TORSDOF 4
ENDMDL
MODEL 4
REMARK VINA RESULT:      -5.8      2.596      3.469
REMARK  4 active torsions:
REMARK  status: ('A' for Active; 'I' for Inactive)
REMARK    1  A    between atoms: C_5  and  S_1 
REMARK    2  A    between atoms: N_8  and  S_1 
REMARK    3  A    between atoms: C_6  and  C_14 
REMARK    4  A    between atoms: C_14  and  N_8 
ROOT
ATOM      1  N   UNL d   1      53.353  32.253  53.373  0.00  0.00    -0.155 NA
ENDROOT
BRANCH   1   2
ATOM      2  S   UNL d   1      53.260  31.438  53.381  0.00  0.00     0.291 S 
ATOM      3  O   UNL d   1      52.824  31.514  52.680  0.00  0.00    -0.198 OA
ATOM      4  O   UNL d   1      53.694  31.374  54.079  0.00  0.00    -0.198 OA
BRANCH   2   5
ATOM      5  C   UNL d   1      53.162  30.603  53.386  0.00  0.00     0.135 A 
ATOM      6  S   UNL d   1      52.660  30.173  52.890  0.00  0.00    -0.073 SA
ATOM      7  C   UNL d   1      52.736  29.355  53.085  0.00  0.00     0.036 A 
ATOM      8  C   UNL d   1      53.292  29.294  53.708  0.00  0.00     0.008 A 
ATOM      9  C   UNL d   1      53.561  30.066  53.901  0.00  0.00     0.020 A 
ENDBRANCH   2   5
ENDBRANCH   1   2
BRANCH   1  10
ATOM     10  C   UNL d   1      52.711  32.741  53.523  0.00  0.00     0.133 C 
BRANCH  10  11
ATOM     11  C   UNL d   1      52.828  33.508  53.789  0.00  0.00     0.121 A 
ATOM     12  N   UNL d   1      53.046  33.729  54.548  0.00  0.00    -0.219 NA
ATOM     13  C   UNL d   1      53.100  34.549  54.573  0.00  0.00     0.180 A 
ATOM     14  S   UNL d   1      53.267  35.193  55.053  0.00  0.00    -0.048 SA
ATOM     15  N   UNL d   1      52.913  34.841  53.816  0.00  0.00    -0.282 N 
ATOM     16  C   UNL d   1      53.185  35.878  54.599  0.00  0.00     0.057 A 
ATOM     17  C   UNL d   1      52.968  35.655  53.843  0.00  0.00     0.089 A 
ATOM     18  C   UNL d   1      52.745  34.192  53.335  0.00  0.00     0.103 A 
ENDBRANCH  10  11
ENDBRANCH   1  10
TORSDOF 4
ENDMDL
MODEL 5
REMARK VINA RESULT:      -5.6      1.527      2.168
REMARK  4 active torsions:
REMARK  status: ('A' for Active; 'I' for Inactive)
REMARK    1  A    between atoms: C_5  and  S_1 
REMARK    2  A    between atoms: N_8  and  S_1 
REMARK    3  A    between atoms: C_6  and  C_14 
REMARK    4  A    between atoms: C_14  and  N_8 
ROOT
ATOM      1  N   UNL d   1      50.518  34.277  53.241  0.00  0.00    -0.155 NA
ENDROOT
BRANCH   1   2
ATOM      2  S   UNL d   1      51.203  33.826  53.230  0.00  0.00     0.291 S 
ATOM      3  O   UNL d   1      51.614  34.516  53.024  0.00  0.00    -0.198 OA
ATOM      4  O   UNL d   1      50.784  33.147  53.436  0.00  0.00    -0.198 OA
BRANCH   2   5
ATOM      5  C   UNL d   1      51.907  33.367  53.218  0.00  0.00     0.135 A 
ATOM      6  S   UNL d   1      52.640  33.600  53.519  0.00  0.00    -0.073 SA
ATOM      7  C   UNL d   1      53.189  32.971  53.390  0.00  0.00     0.036 A 
ATOM      8  C   UNL d   1      52.778  32.351  53.006  0.00  0.00     0.008 A 
ATOM      9  C   UNL d   1      51.979  32.590  52.896  0.00  0.00     0.020 A 
ENDBRANCH   2   5
ENDBRANCH   1   2
BRANCH   1  10
ATOM     10  C   UNL d   1      50.125  34.444  52.540  0.00  0.00     0.133 C 
BRANCH  10  11
ATOM     11  C   UNL d   1      49.433  34.884  52.549  0.00  0.00     0.121 A 
ATOM     12  N   UNL d   1      49.187  35.389  53.146  0.00  0.00    -0.219 NA
ATOM     13  C   UNL d   1      48.465  35.715  52.928  0.00  0.00     0.180 A 
ATOM     14  S   UNL d   1      47.866  36.226  53.158  0.00  0.00    -0.048 SA
ATOM     15  N   UNL d   1      48.260  35.407  52.182  0.00  0.00    -0.282 N 
ATOM     16  C   UNL d   1      47.295  36.236  52.562  0.00  0.00     0.057 A 
ATOM     17  C   UNL d   1      47.543  35.732  51.967  0.00  0.00     0.089 A 
ATOM     18  C   UNL d   1      48.863  34.893  51.952  0.00  0.00     0.103 A 
ENDBRANCH  10  11
ENDBRANCH   1  10
TORSDOF 4
ENDMDL
MODEL 6
REMARK VINA RESULT:      -4.8     10.787     11.419
REMARK  4 active torsions:
REMARK  status: ('A' for Active; 'I' for Inactive)
REMARK    1  A    between atoms: C_5  and  S_1 
REMARK    2  A    between atoms: N_8  and  S_1 
REMARK    3  A    between atoms: C_6  and  C_14 
REMARK    4  A    between atoms: C_14  and  N_8 
ROOT
ATOM      1  N   UNL d   1      45.265  26.619  56.599  0.00  0.00    -0.155 NA
ENDROOT
BRANCH   1   2
ATOM      2  S   UNL d   1      45.190  27.356  56.951  0.00  0.00     0.291 S 
ATOM      3  O   UNL d   1      45.846  27.162  57.419  0.00  0.00    -0.198 OA
ATOM      4  O   UNL d   1      44.538  27.538  56.480  0.00  0.00    -0.198 OA
BRANCH   2   5
ATOM      5  C   UNL d   1      45.117  28.111  57.315  0.00  0.00     0.135 A 
ATOM      6  S   UNL d   1      45.170  28.263  58.125  0.00  0.00    -0.073 SA
ATOM      7  C   UNL d   1      45.063  29.092  58.243  0.00  0.00     0.036 A 
ATOM      8  C   UNL d   1      44.944  29.442  57.492  0.00  0.00     0.008 A 
ATOM      9  C   UNL d   1      44.976  28.838  56.909  0.00  0.00     0.020 A 
ENDBRANCH   2   5
ENDBRANCH   1   2
BRANCH   1  10
ATOM     10  C   UNL d   1      44.619  26.116  56.559  0.00  0.00     0.133 C 
BRANCH  10  11
ATOM     11  C   UNL d   1      44.708  25.349  56.283  0.00  0.00     0.121 A 
ATOM     12  N   UNL d   1      44.925  25.131  55.523  0.00  0.00    -0.219 NA
ATOM     13  C   UNL d   1      44.947  24.309  55.486  0.00  0.00     0.180 A 
ATOM     14  S   UNL d   1      45.094  23.666  54.999  0.00  0.00    -0.048 SA
ATOM     15  N   UNL d   1      44.740  24.014  56.237  0.00  0.00    -0.282 N 
ATOM     16  C   UNL d   1      44.979  22.978  55.441  0.00  0.00     0.057 A 
ATOM     17  C   UNL d   1      44.763  23.199  56.198  0.00  0.00     0.089 A 
ATOM     18  C   UNL d   1      44.593  24.662  56.726  0.00  0.00     0.103 A 
ENDBRANCH  10  11
ENDBRANCH   1  10
TORSDOF 4
ENDMDL
MODEL 7
REMARK VINA RESULT:      -4.7     10.139     10.982
REMARK  4 active torsions:
REMARK  status: ('A' for Active; 'I' for Inactive)
REMARK    1  A    between atoms: C_5  and  S_1 
REMARK    2  A    between atoms: N_8  and  S_1 
REMARK    3  A    between atoms: C_6  and  C_14 
REMARK    4  A    between atoms: C_14  and  N_8 
ROOT
ATOM      1  N   UNL d   1      45.027  29.977  59.281  0.00  0.00    -0.155 NA
ENDROOT
BRANCH   1   2
ATOM      2  S   UNL d   1      45.008  29.668  58.522  0.00  0.00     0.291 S 
ATOM      3  O   UNL d   1      45.135  28.921  58.858  0.00  0.00    -0.198 OA
ATOM      4  O   UNL d   1      44.883  30.416  58.199  0.00  0.00    -0.198 OA
BRANCH   2   5
ATOM      5  C   UNL d   1      44.989  29.348  57.744  0.00  0.00     0.135 A 
ATOM      6  S   UNL d   1      45.172  28.569  57.539  0.00  0.00    -0.073 SA
ATOM      7  C   UNL d   1      45.080  28.490  56.703  0.00  0.00     0.036 A 
ATOM      8  C   UNL d   1      44.838  29.233  56.403  0.00  0.00     0.008 A 
ATOM      9  C   UNL d   1      44.780  29.772  57.045  0.00  0.00     0.020 A 
ENDBRANCH   2   5
ENDBRANCH   1   2
BRANCH   1  10
ATOM     10  C   UNL d   1      44.337  30.244  59.634  0.00  0.00     0.133 C 
BRANCH  10  11
ATOM     11  C   UNL d   1      44.337  30.481  60.419  0.00  0.00     0.121 A 
ATOM     12  N   UNL d   1      44.315  31.254  60.691  0.00  0.00    -0.219 NA
ATOM     13  C   UNL d   1      44.324  31.240  61.513  0.00  0.00     0.180 A 
ATOM     14  S   UNL d   1      44.316  31.703  62.190  0.00  0.00    -0.048 SA
ATOM     15  N   UNL d   1      44.351  30.443  61.754  0.00  0.00    -0.282 N 
ATOM     16  C   UNL d   1      44.338  31.200  62.844  0.00  0.00     0.057 A 
ATOM     17  C   UNL d   1      44.360  30.430  62.570  0.00  0.00     0.089 A 
ATOM     18  C   UNL d   1      44.359  29.978  61.072  0.00  0.00     0.103 A 
ENDBRANCH  10  11
ENDBRANCH   1  10
TORSDOF 4
ENDMDL
MODEL 8
REMARK VINA RESULT:      -4.7     10.203     10.814
REMARK  4 active torsions:
REMARK  status: ('A' for Active; 'I' for Inactive)
REMARK    1  A    between atoms: C_5  and  S_1 
REMARK    2  A    between atoms: N_8  and  S_1 
REMARK    3  A    between atoms: C_6  and  C_14 
REMARK    4  A    between atoms: C_14  and  N_8 
ROOT
ATOM      1  N   UNL d   1      44.318  30.069  59.885  0.00  0.00    -0.155 NA
ENDROOT
BRANCH   1   2
ATOM      2  S   UNL d   1      44.362  30.377  60.644  0.00  0.00     0.291 S 
ATOM      3  O   UNL d   1      44.316  31.132  60.305  0.00  0.00    -0.198 OA
ATOM      4  O   UNL d   1      44.408  29.621  60.971  0.00  0.00    -0.198 OA
BRANCH   2   5
ATOM      5  C   UNL d   1      44.407  30.696  61.421  0.00  0.00     0.135 A 
ATOM      6  S   UNL d   1      44.549  30.266  62.112  0.00  0.00    -0.073 SA
ATOM      7  C   UNL d   1      44.548  30.806  62.761  0.00  0.00     0.036 A 
ATOM      8  C   UNL d   1      44.403  31.571  62.455  0.00  0.00     0.008 A 
ATOM      9  C   UNL d   1      44.314  31.511  61.621  0.00  0.00     0.020 A 
ENDBRANCH   2   5
ENDBRANCH   1   2
BRANCH   1  10
ATOM     10  C   UNL d   1      45.000  29.980  59.438  0.00  0.00     0.133 C 
BRANCH  10  11
ATOM     11  C   UNL d   1      44.969  29.612  58.706  0.00  0.00     0.121 A 
ATOM     12  N   UNL d   1      45.223  28.852  58.535  0.00  0.00    -0.219 NA
ATOM     13  C   UNL d   1      45.090  28.708  57.736  0.00  0.00     0.180 A 
ATOM     14  S   UNL d   1      45.163  28.154  57.135  0.00  0.00    -0.048 SA
ATOM     15  N   UNL d   1      44.749  29.393  57.407  0.00  0.00    -0.282 N 
ATOM     16  C   UNL d   1      44.870  28.490  56.440  0.00  0.00     0.057 A 
ATOM     17  C   UNL d   1      44.618  29.248  56.614  0.00  0.00     0.089 A 
ATOM     18  C   UNL d   1      44.676  29.949  58.012  0.00  0.00     0.103 A 
ENDBRANCH  10  11
ENDBRANCH   1  10
TORSDOF 4
ENDMDL
MODEL 9
REMARK VINA RESULT:      -4.6     10.546     11.239
REMARK  4 active torsions:
REMARK  status: ('A' for Active; 'I' for Inactive)
REMARK    1  A    between atoms: C_5  and  S_1 
REMARK    2  A    between atoms: N_8  and  S_1 
REMARK    3  A    between atoms: C_6  and  C_14 
REMARK    4  A    between atoms: C_14  and  N_8 
ROOT
ATOM      1  N   UNL d   1      44.557  26.287  56.671  0.00  0.00    -0.155 NA
ENDROOT
BRANCH   1   2
ATOM      2  S   UNL d   1      44.619  25.551  56.314  0.00  0.00     0.291 S 
ATOM      3  O   UNL d   1      44.417  25.918  55.599  0.00  0.00    -0.198 OA
ATOM      4  O   UNL d   1      44.820  25.197  57.031  0.00  0.00    -0.198 OA
BRANCH   2   5
ATOM      5  C   UNL d   1      44.682  24.798  55.945  0.00  0.00     0.135 A 
ATOM      6  S   UNL d   1      44.700  24.070  56.334  0.00  0.00    -0.073 SA
ATOM      7  C   UNL d   1      44.767  23.463  55.751  0.00  0.00     0.036 A 
ATOM      8  C   UNL d   1      44.789  23.833  55.000  0.00  0.00     0.008 A 
ATOM      9  C   UNL d   1      44.737  24.664  55.113  0.00  0.00     0.020 A 
ENDBRANCH   2   5
ENDBRANCH   1   2
BRANCH   1  10
ATOM     10  C   UNL d   1      45.221  26.761  56.753  0.00  0.00     0.133 C 
BRANCH  10  11
ATOM     11  C   UNL d   1      45.163  27.497  57.110  0.00  0.00     0.121 A 
ATOM     12  N   UNL d   1      44.922  28.192  56.748  0.00  0.00    -0.219 NA
ATOM     13  C   UNL d   1      44.945  28.796  57.307  0.00  0.00     0.180 A 
ATOM     14  S   UNL d   1      44.812  29.595  57.433  0.00  0.00    -0.048 SA
ATOM     15  N   UNL d   1      45.206  28.467  58.027  0.00  0.00    -0.282 N 
ATOM     16  C   UNL d   1      44.988  29.763  58.222  0.00  0.00     0.057 A 
ATOM     17  C   UNL d   1      45.228  29.068  58.579  0.00  0.00     0.089 A 
ATOM     18  C   UNL d   1      45.339  27.663  57.898  0.00  0.00     0.103 A 
ENDBRANCH  10  11
ENDBRANCH   1  10
TORSDOF 4
ENDMDL
