MODEL 1
REMARK VINA RESULT:      13.3      0.000      0.000
REMARK  2 active torsions:
REMARK  status: ('A' for Active; 'I' for Inactive)
REMARK    1  A    between atoms: C_18  and  N_5 
REMARK    2  A    between atoms: C_21  and  C_18 
ROOT
ATOM      1  C   UNL d   1     -41.419-121.676 -52.012  0.00  0.00     0.155 A 
ATOM      2  C   UNL d   1     -41.396-122.390 -52.425  0.00  0.00     0.092 A 
ATOM      3  N   UNL d   1     -41.370-121.681 -51.185  0.00  0.00    -0.210 NA
ATOM      4  N   UNL d   1     -41.278-123.099 -51.199  0.00  0.00    -0.258 N 
ATOM      5  N   UNL d   1     -41.489-120.965 -52.421  0.00  0.00    -0.275 N 
ATOM      6  C   UNL d   1     -41.300-122.387 -50.783  0.00  0.00     0.152 A 
ATOM      7  C   UNL d   1     -41.326-123.104 -52.018  0.00  0.00     0.269 A 
ATOM      8  C   UNL d   1     -41.515-121.680 -53.660  0.00  0.00     0.105 A 
ATOM      9  C   UNL d   1     -41.537-120.955 -53.240  0.00  0.00     0.180 A 
ATOM     10  C   UNL d   1     -41.444-122.390 -53.250  0.00  0.00     0.021 A 
ATOM     11  C   UNL d   1     -41.253-122.389 -49.969  0.00  0.00     0.035 A 
ATOM     12  C   UNL d   1     -41.563-121.676 -54.478  0.00  0.00     0.104 C 
ATOM     13  N   UNL d   1     -41.611-121.675 -55.297  0.00  0.00    -0.191 NA
ATOM     14  C   UNL d   1     -41.208-123.817 -50.795  0.00  0.00     0.084 A 
ATOM     15  N   UNL d   1     -41.610-120.347 -53.796  0.00  0.00    -0.128 N 
ATOM     16  O   UNL d   1     -41.304-123.816 -52.434  0.00  0.00    -0.266 OA
ATOM     17  C   UNL d   1     -41.160-123.807 -49.968  0.00  0.00     0.019 A 
ATOM     18  C   UNL d   1     -41.182-123.093 -49.555  0.00  0.00     0.005 A 
ATOM     19  C   UNL d   1     -41.275-121.675 -49.557  0.00  0.00     0.003 C 
ENDROOT
BRANCH   5  20
ATOM     20  C   UNL d   1     -41.510-120.255 -52.001  0.00  0.00     0.067 C 
ATOM     21  C   UNL d   1     -41.869-120.262 -51.256  0.00  0.00     0.019 C 
BRANCH  20  22
ATOM     22  C   UNL d   1     -41.202-119.525 -52.260  0.00  0.00     0.018 C 
ATOM     23  C   UNL d   1     -41.125-118.836 -51.802  0.00  0.00     0.002 C 
ENDBRANCH  20  22
ENDBRANCH   5  20
TORSDOF 2
ENDMDL
