MODEL 1
REMARK VINA RESULT:      55.2      0.000      0.000
REMARK  5 active torsions:
REMARK  status: ('A' for Active; 'I' for Inactive)
REMARK    1  A    between atoms: C_6  and  C_1 
REMARK    2  A    between atoms: C_3  and  C_5 
REMARK    3  A    between atoms: C_5  and  C_6 
REMARK    4  A    between atoms: C_17  and  C_13 
REMARK    5  A    between atoms: C_20  and  C_17 
ROOT
ATOM      1  C   UNL d   1      59.953  48.931  50.702  0.00  0.00     0.201 C 
ATOM      2  O   UNL d   1      59.672  48.152  50.692  0.00  0.00    -0.286 OA
ENDROOT
BRANCH   1   3
ATOM      3  C   UNL d   1      60.606  49.112  51.173  0.00  0.00     0.078 A 
ATOM      4  C   UNL d   1      61.369  49.118  50.838  0.00  0.00     0.202 A 
ATOM      5  C   UNL d   1      62.021  49.300  51.309  0.00  0.00     0.084 A 
ATOM      6  O   UNL d   1      61.466  48.943  50.038  0.00  0.00    -0.286 OA
ATOM      7  C   UNL d   1      61.920  49.473  52.101  0.00  0.00     0.199 A 
ATOM      8  C   UNL d   1      61.157  49.467  52.436  0.00  0.00     0.039 A 
ATOM      9  O   UNL d   1      62.586  49.655  52.566  0.00  0.00    -0.286 OA
ATOM     10  C   UNL d   1      60.524  49.289  51.971  0.00  0.00     0.010 A 
BRANCH   8  11
ATOM     11  C   UNL d   1      61.077  49.646  53.239  0.00  0.00     0.003 C 
BRANCH  11  12
ATOM     12  C   UNL d   1      60.388  49.468  53.655  0.00  0.00     0.000 C 
ATOM     13  C   UNL d   1      60.354  49.523  54.474  0.00  0.00     0.000 C 
ENDBRANCH  11  12
ENDBRANCH   8  11
ENDBRANCH   1   3
BRANCH   1  14
ATOM     14  C   UNL d   1      59.577  49.510  50.244  0.00  0.00     0.068 C 
BRANCH  14  15
ATOM     15  C   UNL d   1      58.766  49.512  50.147  0.00  0.00     0.114 A 
ATOM     16  N   UNL d   1      58.207  49.360  50.737  0.00  0.00    -0.238 NA
ATOM     17  C   UNL d   1      57.460  49.421  50.391  0.00  0.00     0.088 A 
ATOM     18  C   UNL d   1      56.709  49.329  50.704  0.00  0.00     0.020 A 
ATOM     19  C   UNL d   1      57.553  49.608  49.597  0.00  0.00     0.049 A 
ATOM     20  C   UNL d   1      56.037  49.422  50.229  0.00  0.00     0.002 A 
ATOM     21  C   UNL d   1      56.141  49.611  49.424  0.00  0.00     0.001 A 
ATOM     22  C   UNL d   1      56.893  49.703  49.111  0.00  0.00     0.008 A 
ATOM     23  S   UNL d   1      58.368  49.668  49.429  0.00  0.00    -0.066 SA
ENDBRANCH  14  15
ENDBRANCH   1  14
TORSDOF 5
ENDMDL
MODEL 2
REMARK VINA RESULT:      55.8      1.518      2.268
REMARK  5 active torsions:
REMARK  status: ('A' for Active; 'I' for Inactive)
REMARK    1  A    between atoms: C_6  and  C_1 
REMARK    2  A    between atoms: C_3  and  C_5 
REMARK    3  A    between atoms: C_5  and  C_6 
REMARK    4  A    between atoms: C_17  and  C_13 
REMARK    5  A    between atoms: C_20  and  C_17 
ROOT
ATOM      1  C   UNL d   1      60.020  49.117  51.173  0.00  0.00     0.201 C 
ATOM      2  O   UNL d   1      59.851  49.045  51.980  0.00  0.00    -0.286 OA
ENDROOT
BRANCH   1   3
ATOM      3  C   UNL d   1      60.563  48.597  50.832  0.00  0.00     0.078 A 
ATOM      4  C   UNL d   1      61.261  48.895  50.487  0.00  0.00     0.202 A 
ATOM      5  C   UNL d   1      61.803  48.375  50.146  0.00  0.00     0.084 A 
ATOM      6  O   UNL d   1      61.403  49.707  50.488  0.00  0.00    -0.286 OA
ATOM      7  C   UNL d   1      61.658  47.571  50.148  0.00  0.00     0.199 A 
ATOM      8  C   UNL d   1      60.961  47.274  50.493  0.00  0.00     0.039 A 
ATOM      9  O   UNL d   1      62.213  47.057  49.801  0.00  0.00    -0.286 OA
ATOM     10  C   UNL d   1      60.434  47.785  50.824  0.00  0.00     0.010 A 
BRANCH   8  11
ATOM     11  C   UNL d   1      60.833  46.457  50.484  0.00  0.00     0.003 C 
BRANCH  11  12
ATOM     12  C   UNL d   1      60.766  46.021  51.180  0.00  0.00     0.000 C 
ATOM     13  C   UNL d   1      60.409  45.281  51.193  0.00  0.00     0.000 C 
ENDBRANCH  11  12
ENDBRANCH   8  11
ENDBRANCH   1   3
BRANCH   1  14
ATOM     14  C   UNL d   1      59.645  49.704  50.724  0.00  0.00     0.068 C 
BRANCH  14  15
ATOM     15  C   UNL d   1      58.844  49.670  50.570  0.00  0.00     0.114 A 
ATOM     16  N   UNL d   1      58.495  49.594  49.825  0.00  0.00    -0.238 NA
ATOM     17  C   UNL d   1      57.677  49.584  49.934  0.00  0.00     0.088 A 
ATOM     18  C   UNL d   1      57.060  49.520  49.400  0.00  0.00     0.020 A 
ATOM     19  C   UNL d   1      57.519  49.652  50.736  0.00  0.00     0.049 A 
ATOM     20  C   UNL d   1      56.273  49.524  49.659  0.00  0.00     0.002 A 
ATOM     21  C   UNL d   1      56.122  49.593  50.475  0.00  0.00     0.001 A 
ATOM     22  C   UNL d   1      56.740  49.656  51.009  0.00  0.00     0.008 A 
ATOM     23  S   UNL d   1      58.242  49.707  51.149  0.00  0.00    -0.066 SA
ENDBRANCH  14  15
ENDBRANCH   1  14
TORSDOF 5
ENDMDL
MODEL 3
REMARK VINA RESULT:      57.0      1.626      2.478
REMARK  5 active torsions:
REMARK  status: ('A' for Active; 'I' for Inactive)
REMARK    1  A    between atoms: C_6  and  C_1 
REMARK    2  A    between atoms: C_3  and  C_5 
REMARK    3  A    between atoms: C_5  and  C_6 
REMARK    4  A    between atoms: C_17  and  C_13 
REMARK    5  A    between atoms: C_20  and  C_17 
ROOT
ATOM      1  C   UNL d   1      60.435  49.287  50.489  0.00  0.00     0.201 C 
ATOM      2  O   UNL d   1      60.794  49.607  49.814  0.00  0.00    -0.286 OA
ENDROOT
BRANCH   1   3
ATOM      3  C   UNL d   1      60.687  48.551  50.763  0.00  0.00     0.078 A 
ATOM      4  C   UNL d   1      60.928  48.465  51.556  0.00  0.00     0.202 A 
ATOM      5  C   UNL d   1      61.180  47.729  51.829  0.00  0.00     0.084 A 
ATOM      6  O   UNL d   1      60.913  49.117  52.061  0.00  0.00    -0.286 OA
ATOM      7  C   UNL d   1      61.194  47.086  51.325  0.00  0.00     0.199 A 
ATOM      8  C   UNL d   1      60.954  47.172  50.532  0.00  0.00     0.039 A 
ATOM      9  O   UNL d   1      61.451  46.349  51.613  0.00  0.00    -0.286 OA
ATOM     10  C   UNL d   1      60.708  47.893  50.270  0.00  0.00     0.010 A 
BRANCH   8  11
ATOM     11  C   UNL d   1      60.975  46.510  50.039  0.00  0.00     0.003 C 
BRANCH  11  12
ATOM     12  C   UNL d   1      61.621  45.997  50.030  0.00  0.00     0.000 C 
ATOM     13  C   UNL d   1      61.920  45.694  49.327  0.00  0.00     0.000 C 
ENDBRANCH  11  12
ENDBRANCH   8  11
ENDBRANCH   1   3
BRANCH   1  14
ATOM     14  C   UNL d   1      59.833  49.708  50.874  0.00  0.00     0.068 C 
BRANCH  14  15
ATOM     15  C   UNL d   1      59.068  49.706  50.588  0.00  0.00     0.114 A 
ATOM     16  N   UNL d   1      58.380  49.705  51.045  0.00  0.00    -0.238 NA
ATOM     17  C   UNL d   1      57.738  49.704  50.525  0.00  0.00     0.088 A 
ATOM     18  C   UNL d   1      56.931  49.703  50.661  0.00  0.00     0.020 A 
ATOM     19  C   UNL d   1      58.024  49.705  49.756  0.00  0.00     0.049 A 
ATOM     20  C   UNL d   1      56.394  49.702  50.030  0.00  0.00     0.002 A 
ATOM     21  C   UNL d   1      56.694  49.703  49.253  0.00  0.00     0.001 A 
ATOM     22  C   UNL d   1      57.501  49.704  49.117  0.00  0.00     0.008 A 
ATOM     23  S   UNL d   1      58.858  49.707  49.779  0.00  0.00    -0.066 SA
ENDBRANCH  14  15
ENDBRANCH   1  14
TORSDOF 5
ENDMDL
