MODEL 1
REMARK VINA RESULT:      -8.6      0.000      0.000
REMARK  5 active torsions:
REMARK  status: ('A' for Active; 'I' for Inactive)
REMARK    1  A    between atoms: N_8  and  C_6 
REMARK    2  A    between atoms: C_7  and  O_9 
REMARK    3  A    between atoms: C_10  and  C_7 
REMARK    4  A    between atoms: O_9  and  N_8 
REMARK    5  A    between atoms: O_20  and  C_15 
ROOT
ATOM      1  O   UNL d   1      53.737  32.139  52.948  0.00  0.00    -0.169 OA
ENDROOT
BRANCH   1   2
ATOM      2  C   UNL d   1      53.225  31.040  52.905  0.00  0.00     0.319 C 
ATOM      3  O   UNL d   1      52.766  30.939  52.243  0.00  0.00    -0.257 OA
BRANCH   2   4
ATOM      4  C   UNL d   1      53.208  30.445  53.298  0.00  0.00     0.065 A 
ATOM      5  C   UNL d   1      52.764  29.925  53.128  0.00  0.00     0.007 A 
ATOM      6  C   UNL d   1      52.748  29.336  53.518  0.00  0.00     0.024 A 
ATOM      7  C   UNL d   1      53.182  29.276  54.079  0.00  0.00     0.094 A 
ATOM      8  C   UNL d   1      53.625  29.802  54.245  0.00  0.00     0.024 A 
ATOM      9  C   UNL d   1      53.641  30.385  53.859  0.00  0.00     0.007 A 
BRANCH   7  10
ATOM     10  O   UNL d   1      53.165  28.681  54.473  0.00  0.00    -0.328 OA
ATOM     11  C   UNL d   1      53.379  28.401  55.365  0.00  0.00     0.181 C 
ENDBRANCH   7  10
ENDBRANCH   2   4
ENDBRANCH   1   2
BRANCH   1  12
ATOM     12  N   UNL d   1      52.549  32.606  52.692  0.00  0.00    -0.123 NA
BRANCH  12  13
ATOM     13  C   UNL d   1      52.228  33.337  52.919  0.00  0.00     0.108 A 
ATOM     14  C   UNL d   1      51.439  33.500  52.742  0.00  0.00     0.025 A 
ATOM     15  C   UNL d   1      51.104  34.227  52.963  0.00  0.00     0.041 A 
ATOM     16  C   UNL d   1      51.572  34.796  53.368  0.00  0.00     0.196 A 
ATOM     17  C   UNL d   1      50.310  34.404  52.791  0.00  0.00     0.003 C 
ATOM     18  C   UNL d   1      52.366  34.619  53.541  0.00  0.00     0.041 A 
ATOM     19  O   UNL d   1      51.244  35.525  53.592  0.00  0.00    -0.287 OA
ATOM     20  C   UNL d   1      52.701  33.892  53.319  0.00  0.00     0.025 A 
ATOM     21  C   UNL d   1      52.831  35.180  53.940  0.00  0.00     0.003 C 
ENDBRANCH  12  13
ENDBRANCH   1  12
TORSDOF 5
ENDMDL
MODEL 2
REMARK VINA RESULT:      -8.1      1.730      5.280
REMARK  5 active torsions:
REMARK  status: ('A' for Active; 'I' for Inactive)
REMARK    1  A    between atoms: N_8  and  C_6 
REMARK    2  A    between atoms: C_7  and  O_9 
REMARK    3  A    between atoms: C_10  and  C_7 
REMARK    4  A    between atoms: O_9  and  N_8 
REMARK    5  A    between atoms: O_20  and  C_15 
ROOT
ATOM      1  O   UNL d   1      51.621  34.265  52.273  0.00  0.00    -0.169 OA
ENDROOT
BRANCH   1   2
ATOM      2  C   UNL d   1      50.453  34.319  52.598  0.00  0.00     0.319 C 
ATOM      3  O   UNL d   1      50.321  33.995  53.330  0.00  0.00    -0.257 OA
BRANCH   2   4
ATOM      4  C   UNL d   1      49.837  34.556  52.329  0.00  0.00     0.065 A 
ATOM      5  C   UNL d   1      49.402  34.937  52.733  0.00  0.00     0.007 A 
ATOM      6  C   UNL d   1      48.791  35.172  52.466  0.00  0.00     0.024 A 
ATOM      7  C   UNL d   1      48.624  35.020  51.791  0.00  0.00     0.094 A 
ATOM      8  C   UNL d   1      49.064  34.638  51.391  0.00  0.00     0.024 A 
ATOM      9  C   UNL d   1      49.668  34.405  51.655  0.00  0.00     0.007 A 
BRANCH   7  10
ATOM     10  O   UNL d   1      48.007  35.258  51.522  0.00  0.00    -0.328 OA
ATOM     11  C   UNL d   1      47.280  35.829  51.779  0.00  0.00     0.181 C 
ENDBRANCH   7  10
ENDBRANCH   2   4
ENDBRANCH   1   2
BRANCH   1  12
ATOM     12  N   UNL d   1      51.720  33.279  53.118  0.00  0.00    -0.123 NA
BRANCH  12  13
ATOM     13  C   UNL d   1      52.372  32.784  53.251  0.00  0.00     0.108 A 
ATOM     14  C   UNL d   1      52.326  31.991  53.026  0.00  0.00     0.025 A 
ATOM     15  C   UNL d   1      52.971  31.484  53.153  0.00  0.00     0.041 A 
ATOM     16  C   UNL d   1      53.671  31.781  53.509  0.00  0.00     0.196 A 
ATOM     17  C   UNL d   1      52.937  30.683  52.931  0.00  0.00     0.003 C 
ATOM     18  C   UNL d   1      53.706  32.582  53.731  0.00  0.00     0.041 A 
ATOM     19  O   UNL d   1      54.321  31.279  53.639  0.00  0.00    -0.287 OA
ATOM     20  C   UNL d   1      53.061  33.089  53.605  0.00  0.00     0.025 A 
ATOM     21  C   UNL d   1      54.397  32.877  54.084  0.00  0.00     0.003 C 
ENDBRANCH  12  13
ENDBRANCH   1  12
TORSDOF 5
ENDMDL
MODEL 3
REMARK VINA RESULT:      -7.7      2.472      3.716
REMARK  5 active torsions:
REMARK  status: ('A' for Active; 'I' for Inactive)
REMARK    1  A    between atoms: N_8  and  C_6 
REMARK    2  A    between atoms: C_7  and  O_9 
REMARK    3  A    between atoms: C_10  and  C_7 
REMARK    4  A    between atoms: O_9  and  N_8 
REMARK    5  A    between atoms: O_20  and  C_15 
ROOT
ATOM      1  O   UNL d   1      50.598  33.311  53.327  0.00  0.00    -0.169 OA
ENDROOT
BRANCH   1   2
ATOM      2  C   UNL d   1      51.772  33.602  53.233  0.00  0.00     0.319 C 
ATOM      3  O   UNL d   1      51.914  34.119  52.624  0.00  0.00    -0.257 OA
BRANCH   2   4
ATOM      4  C   UNL d   1      52.386  33.449  53.562  0.00  0.00     0.065 A 
ATOM      5  C   UNL d   1      52.728  32.853  53.404  0.00  0.00     0.007 A 
ATOM      6  C   UNL d   1      53.337  32.701  53.731  0.00  0.00     0.024 A 
ATOM      7  C   UNL d   1      53.595  33.153  54.216  0.00  0.00     0.094 A 
ATOM      8  C   UNL d   1      53.246  33.749  54.370  0.00  0.00     0.024 A 
ATOM      9  C   UNL d   1      52.645  33.899  54.047  0.00  0.00     0.007 A 
BRANCH   7  10
ATOM     10  O   UNL d   1      54.209  32.999  54.546  0.00  0.00    -0.328 OA
ATOM     11  C   UNL d   1      54.777  33.372  55.224  0.00  0.00     0.181 C 
ENDBRANCH   7  10
ENDBRANCH   2   4
ENDBRANCH   1   2
BRANCH   1  12
ATOM     12  N   UNL d   1      50.368  34.376  52.614  0.00  0.00    -0.123 NA
BRANCH  12  13
ATOM     13  C   UNL d   1      49.633  34.690  52.387  0.00  0.00     0.108 A 
ATOM     14  C   UNL d   1      49.221  35.169  52.917  0.00  0.00     0.025 A 
ATOM     15  C   UNL d   1      48.486  35.490  52.703  0.00  0.00     0.041 A 
ATOM     16  C   UNL d   1      48.163  35.324  51.947  0.00  0.00     0.196 A 
ATOM     17  C   UNL d   1      48.060  35.975  53.229  0.00  0.00     0.003 C 
ATOM     18  C   UNL d   1      48.587  34.839  51.421  0.00  0.00     0.041 A 
ATOM     19  O   UNL d   1      47.427  35.641  51.726  0.00  0.00    -0.287 OA
ATOM     20  C   UNL d   1      49.323  34.518  51.634  0.00  0.00     0.025 A 
ATOM     21  C   UNL d   1      48.270  34.673  50.672  0.00  0.00     0.003 C 
ENDBRANCH  12  13
ENDBRANCH   1  12
TORSDOF 5
ENDMDL
MODEL 4
REMARK VINA RESULT:      -7.7      2.487      3.666
REMARK  5 active torsions:
REMARK  status: ('A' for Active; 'I' for Inactive)
REMARK    1  A    between atoms: N_8  and  C_6 
REMARK    2  A    between atoms: C_7  and  O_9 
REMARK    3  A    between atoms: C_10  and  C_7 
REMARK    4  A    between atoms: O_9  and  N_8 
REMARK    5  A    between atoms: O_20  and  C_15 
ROOT
ATOM      1  O   UNL d   1      50.593  33.346  53.297  0.00  0.00    -0.169 OA
ENDROOT
BRANCH   1   2
ATOM      2  C   UNL d   1      51.766  33.633  53.179  0.00  0.00     0.319 C 
ATOM      3  O   UNL d   1      51.896  34.157  52.575  0.00  0.00    -0.257 OA
BRANCH   2   4
ATOM      4  C   UNL d   1      52.386  33.472  53.493  0.00  0.00     0.065 A 
ATOM      5  C   UNL d   1      52.734  32.890  53.300  0.00  0.00     0.007 A 
ATOM      6  C   UNL d   1      53.349  32.731  53.611  0.00  0.00     0.024 A 
ATOM      7  C   UNL d   1      53.608  33.162  54.114  0.00  0.00     0.094 A 
ATOM      8  C   UNL d   1      53.253  33.744  54.303  0.00  0.00     0.024 A 
ATOM      9  C   UNL d   1      52.645  33.902  53.996  0.00  0.00     0.007 A 
BRANCH   7  10
ATOM     10  O   UNL d   1      54.229  33.001  54.428  0.00  0.00    -0.328 OA
ATOM     11  C   UNL d   1      54.763  33.301  55.166  0.00  0.00     0.181 C 
ENDBRANCH   7  10
ENDBRANCH   2   4
ENDBRANCH   1   2
BRANCH   1  12
ATOM     12  N   UNL d   1      50.350  34.433  52.620  0.00  0.00    -0.123 NA
BRANCH  12  13
ATOM     13  C   UNL d   1      49.613  34.743  52.400  0.00  0.00     0.108 A 
ATOM     14  C   UNL d   1      49.308  34.563  51.655  0.00  0.00     0.025 A 
ATOM     15  C   UNL d   1      48.572  34.867  51.422  0.00  0.00     0.041 A 
ATOM     16  C   UNL d   1      48.138  35.358  51.947  0.00  0.00     0.196 A 
ATOM     17  C   UNL d   1      48.254  34.693  50.673  0.00  0.00     0.003 C 
ATOM     18  C   UNL d   1      48.455  35.533  52.696  0.00  0.00     0.041 A 
ATOM     19  O   UNL d   1      47.400  35.666  51.720  0.00  0.00    -0.287 OA
ATOM     20  C   UNL d   1      49.192  35.229  52.929  0.00  0.00     0.025 A 
ATOM     21  C   UNL d   1      48.028  36.017  53.217  0.00  0.00     0.003 C 
ENDBRANCH  12  13
ENDBRANCH   1  12
TORSDOF 5
ENDMDL
MODEL 5
REMARK VINA RESULT:      -7.5      2.615      6.277
REMARK  5 active torsions:
REMARK  status: ('A' for Active; 'I' for Inactive)
REMARK    1  A    between atoms: N_8  and  C_6 
REMARK    2  A    between atoms: C_7  and  O_9 
REMARK    3  A    between atoms: C_10  and  C_7 
REMARK    4  A    between atoms: O_9  and  N_8 
REMARK    5  A    between atoms: O_20  and  C_15 
ROOT
ATOM      1  O   UNL d   1      49.577  34.497  51.907  0.00  0.00    -0.169 OA
ENDROOT
BRANCH   1   2
ATOM      2  C   UNL d   1      48.818  35.210  52.529  0.00  0.00     0.319 C 
ATOM      3  O   UNL d   1      49.054  35.316  53.298  0.00  0.00    -0.257 OA
BRANCH   2   4
ATOM      4  C   UNL d   1      48.213  35.569  52.416  0.00  0.00     0.065 A 
ATOM      5  C   UNL d   1      47.967  36.006  52.911  0.00  0.00     0.007 A 
ATOM      6  C   UNL d   1      47.367  36.363  52.798  0.00  0.00     0.024 A 
ATOM      7  C   UNL d   1      47.019  36.275  52.184  0.00  0.00     0.094 A 
ATOM      8  C   UNL d   1      47.271  35.835  51.690  0.00  0.00     0.024 A 
ATOM      9  C   UNL d   1      47.864  35.483  51.802  0.00  0.00     0.007 A 
BRANCH   7  10
ATOM     10  O   UNL d   1      46.413  36.635  52.070  0.00  0.00    -0.328 OA
ATOM     11  C   UNL d   1      45.535  36.707  52.449  0.00  0.00     0.181 C 
ENDBRANCH   7  10
ENDBRANCH   2   4
ENDBRANCH   1   2
BRANCH   1  12
ATOM     12  N   UNL d   1      50.322  34.508  52.974  0.00  0.00    -0.123 NA
BRANCH  12  13
ATOM     13  C   UNL d   1      51.089  34.203  53.065  0.00  0.00     0.108 A 
ATOM     14  C   UNL d   1      51.706  34.718  53.252  0.00  0.00     0.025 A 
ATOM     15  C   UNL d   1      52.478  34.427  53.345  0.00  0.00     0.041 A 
ATOM     16  C   UNL d   1      52.628  33.607  53.248  0.00  0.00     0.196 A 
ATOM     17  C   UNL d   1      53.108  34.936  53.534  0.00  0.00     0.003 C 
ATOM     18  C   UNL d   1      51.999  33.097  53.060  0.00  0.00     0.041 A 
ATOM     19  O   UNL d   1      53.398  33.308  53.340  0.00  0.00    -0.287 OA
ATOM     20  C   UNL d   1      51.227  33.388  52.967  0.00  0.00     0.025 A 
ATOM     21  C   UNL d   1      52.145  32.286  52.964  0.00  0.00     0.003 C 
ENDBRANCH  12  13
ENDBRANCH   1  12
TORSDOF 5
ENDMDL
MODEL 6
REMARK VINA RESULT:      -6.7      1.591      4.999
REMARK  5 active torsions:
REMARK  status: ('A' for Active; 'I' for Inactive)
REMARK    1  A    between atoms: N_8  and  C_6 
REMARK    2  A    between atoms: C_7  and  O_9 
REMARK    3  A    between atoms: C_10  and  C_7 
REMARK    4  A    between atoms: O_9  and  N_8 
REMARK    5  A    between atoms: O_20  and  C_15 
ROOT
ATOM      1  O   UNL d   1      53.966  32.245  55.227  0.00  0.00    -0.169 OA
ENDROOT
BRANCH   1   2
ATOM      2  C   UNL d   1      54.046  33.274  54.589  0.00  0.00     0.319 C 
ATOM      3  O   UNL d   1      54.616  33.237  54.013  0.00  0.00    -0.257 OA
BRANCH   2   4
ATOM      4  C   UNL d   1      53.733  33.914  54.572  0.00  0.00     0.065 A 
ATOM      5  C   UNL d   1      53.585  34.215  53.951  0.00  0.00     0.007 A 
ATOM      6  C   UNL d   1      53.275  34.850  53.934  0.00  0.00     0.024 A 
ATOM      7  C   UNL d   1      53.114  35.177  54.546  0.00  0.00     0.094 A 
ATOM      8  C   UNL d   1      53.265  34.870  55.165  0.00  0.00     0.024 A 
ATOM      9  C   UNL d   1      53.572  34.242  55.182  0.00  0.00     0.007 A 
BRANCH   7  10
ATOM     10  O   UNL d   1      52.801  35.818  54.528  0.00  0.00    -0.328 OA
ATOM     11  C   UNL d   1      52.959  36.707  54.852  0.00  0.00     0.181 C 
ENDBRANCH   7  10
ENDBRANCH   2   4
ENDBRANCH   1   2
BRANCH   1  12
ATOM     12  N   UNL d   1      53.878  31.642  54.076  0.00  0.00    -0.123 NA
BRANCH  12  13
ATOM     13  C   UNL d   1      53.574  30.886  53.918  0.00  0.00     0.108 A 
ATOM     14  C   UNL d   1      53.235  30.736  53.181  0.00  0.00     0.025 A 
ATOM     15  C   UNL d   1      52.928  29.984  53.009  0.00  0.00     0.041 A 
ATOM     16  C   UNL d   1      52.963  29.377  53.588  0.00  0.00     0.196 A 
ATOM     17  C   UNL d   1      52.584  29.821  52.269  0.00  0.00     0.003 C 
ATOM     18  C   UNL d   1      53.307  29.540  54.327  0.00  0.00     0.041 A 
ATOM     19  O   UNL d   1      52.658  28.622  53.423  0.00  0.00    -0.287 OA
ATOM     20  C   UNL d   1      53.615  30.292  54.499  0.00  0.00     0.025 A 
ATOM     21  C   UNL d   1      53.343  28.942  54.901  0.00  0.00     0.003 C 
ENDBRANCH  12  13
ENDBRANCH   1  12
TORSDOF 5
ENDMDL
MODEL 7
REMARK VINA RESULT:      -5.7      9.979     10.710
REMARK  5 active torsions:
REMARK  status: ('A' for Active; 'I' for Inactive)
REMARK    1  A    between atoms: N_8  and  C_6 
REMARK    2  A    between atoms: C_7  and  O_9 
REMARK    3  A    between atoms: C_10  and  C_7 
REMARK    4  A    between atoms: O_9  and  N_8 
REMARK    5  A    between atoms: O_20  and  C_15 
ROOT
ATOM      1  O   UNL d   1      45.784  29.633  59.169  0.00  0.00    -0.169 OA
ENDROOT
BRANCH   1   2
ATOM      2  C   UNL d   1      45.062  29.053  58.385  0.00  0.00     0.319 C 
ATOM      3  O   UNL d   1      44.399  29.482  58.199  0.00  0.00    -0.257 OA
BRANCH   2   4
ATOM      4  C   UNL d   1      45.049  28.433  58.033  0.00  0.00     0.065 A 
ATOM      5  C   UNL d   1      44.560  28.321  57.538  0.00  0.00     0.007 A 
ATOM      6  C   UNL d   1      44.548  27.706  57.189  0.00  0.00     0.024 A 
ATOM      7  C   UNL d   1      45.031  27.207  57.344  0.00  0.00     0.094 A 
ATOM      8  C   UNL d   1      45.519  27.325  57.843  0.00  0.00     0.024 A 
ATOM      9  C   UNL d   1      45.532  27.933  58.187  0.00  0.00     0.007 A 
BRANCH   7  10
ATOM     10  O   UNL d   1      45.019  26.586  56.992  0.00  0.00    -0.328 OA
ATOM     11  C   UNL d   1      44.716  26.241  56.149  0.00  0.00     0.181 C 
ENDBRANCH   7  10
ENDBRANCH   2   4
ENDBRANCH   1   2
BRANCH   1  12
ATOM     12  N   UNL d   1      44.712  29.811  59.888  0.00  0.00    -0.123 NA
BRANCH  12  13
ATOM     13  C   UNL d   1      44.664  30.031  60.687  0.00  0.00     0.108 A 
ATOM     14  C   UNL d   1      44.770  29.455  61.268  0.00  0.00     0.025 A 
ATOM     15  C   UNL d   1      44.724  29.660  62.071  0.00  0.00     0.041 A 
ATOM     16  C   UNL d   1      44.571  30.456  62.290  0.00  0.00     0.196 A 
ATOM     17  C   UNL d   1      44.829  29.088  62.667  0.00  0.00     0.003 C 
ATOM     18  C   UNL d   1      44.467  31.028  61.695  0.00  0.00     0.041 A 
ATOM     19  O   UNL d   1      44.524  30.670  63.091  0.00  0.00    -0.287 OA
ATOM     20  C   UNL d   1      44.512  30.823  60.892  0.00  0.00     0.025 A 
ATOM     21  C   UNL d   1      44.315  31.816  61.909  0.00  0.00     0.003 C 
ENDBRANCH  12  13
ENDBRANCH   1  12
TORSDOF 5
ENDMDL
MODEL 8
REMARK VINA RESULT:      -5.7     10.048     10.900
REMARK  5 active torsions:
REMARK  status: ('A' for Active; 'I' for Inactive)
REMARK    1  A    between atoms: N_8  and  C_6 
REMARK    2  A    between atoms: C_7  and  O_9 
REMARK    3  A    between atoms: C_10  and  C_7 
REMARK    4  A    between atoms: O_9  and  N_8 
REMARK    5  A    between atoms: O_20  and  C_15 
ROOT
ATOM      1  O   UNL d   1      45.754  30.249  59.549  0.00  0.00    -0.169 OA
ENDROOT
BRANCH   1   2
ATOM      2  C   UNL d   1      45.065  30.591  58.612  0.00  0.00     0.319 C 
ATOM      3  O   UNL d   1      44.703  31.306  58.739  0.00  0.00    -0.257 OA
BRANCH   2   4
ATOM      4  C   UNL d   1      44.881  30.343  57.969  0.00  0.00     0.065 A 
ATOM      5  C   UNL d   1      44.901  29.650  57.842  0.00  0.00     0.007 A 
ATOM      6  C   UNL d   1      44.719  29.404  57.205  0.00  0.00     0.024 A 
ATOM      7  C   UNL d   1      44.517  29.862  56.699  0.00  0.00     0.094 A 
ATOM      8  C   UNL d   1      44.499  30.557  56.832  0.00  0.00     0.024 A 
ATOM      9  C   UNL d   1      44.679  30.800  57.462  0.00  0.00     0.007 A 
BRANCH   7  10
ATOM     10  O   UNL d   1      44.333  29.614  56.055  0.00  0.00    -0.328 OA
ATOM     11  C   UNL d   1      44.351  29.901  55.140  0.00  0.00     0.181 C 
ENDBRANCH   7  10
ENDBRANCH   2   4
ENDBRANCH   1   2
BRANCH   1  12
ATOM     12  N   UNL d   1      44.725  30.532  60.296  0.00  0.00    -0.123 NA
BRANCH  12  13
ATOM     13  C   UNL d   1      44.663  30.477  61.121  0.00  0.00     0.108 A 
ATOM     14  C   UNL d   1      44.521  31.162  61.559  0.00  0.00     0.025 A 
ATOM     15  C   UNL d   1      44.457  31.122  62.386  0.00  0.00     0.041 A 
ATOM     16  C   UNL d   1      44.536  30.382  62.775  0.00  0.00     0.196 A 
ATOM     17  C   UNL d   1      44.314  31.806  62.839  0.00  0.00     0.003 C 
ATOM     18  C   UNL d   1      44.679  29.698  62.323  0.00  0.00     0.041 A 
ATOM     19  O   UNL d   1      44.473  30.334  63.602  0.00  0.00    -0.287 OA
ATOM     20  C   UNL d   1      44.744  29.738  61.497  0.00  0.00     0.025 A 
ATOM     21  C   UNL d   1      44.758  28.966  62.706  0.00  0.00     0.003 C 
ENDBRANCH  12  13
ENDBRANCH   1  12
TORSDOF 5
ENDMDL
MODEL 9
REMARK VINA RESULT:      -5.6      9.075      9.854
REMARK  5 active torsions:
REMARK  status: ('A' for Active; 'I' for Inactive)
REMARK    1  A    between atoms: N_8  and  C_6 
REMARK    2  A    between atoms: C_7  and  O_9 
REMARK    3  A    between atoms: C_10  and  C_7 
REMARK    4  A    between atoms: O_9  and  N_8 
REMARK    5  A    between atoms: O_20  and  C_15 
ROOT
ATOM      1  O   UNL d   1      45.807  26.980  56.664  0.00  0.00    -0.169 OA
ENDROOT
BRANCH   1   2
ATOM      2  C   UNL d   1      44.967  26.106  56.612  0.00  0.00     0.319 C 
ATOM      3  O   UNL d   1      44.429  26.158  57.216  0.00  0.00    -0.257 OA
BRANCH   2   4
ATOM      4  C   UNL d   1      44.805  25.549  56.197  0.00  0.00     0.065 A 
ATOM      5  C   UNL d   1      44.976  24.897  56.404  0.00  0.00     0.007 A 
ATOM      6  C   UNL d   1      44.816  24.345  55.993  0.00  0.00     0.024 A 
ATOM      7  C   UNL d   1      44.483  24.456  55.374  0.00  0.00     0.094 A 
ATOM      8  C   UNL d   1      44.314  25.112  55.171  0.00  0.00     0.024 A 
ATOM      9  C   UNL d   1      44.473  25.658  55.578  0.00  0.00     0.007 A 
BRANCH   7  10
ATOM     10  O   UNL d   1      44.321  23.898  54.958  0.00  0.00    -0.328 OA
ATOM     11  C   UNL d   1      44.536  23.562  54.086  0.00  0.00     0.181 C 
ENDBRANCH   7  10
ENDBRANCH   2   4
ENDBRANCH   1   2
BRANCH   1  12
ATOM     12  N   UNL d   1      44.884  27.711  57.220  0.00  0.00    -0.123 NA
BRANCH  12  13
ATOM     13  C   UNL d   1      44.893  28.530  57.354  0.00  0.00     0.108 A 
ATOM     14  C   UNL d   1      44.726  29.041  56.727  0.00  0.00     0.025 A 
ATOM     15  C   UNL d   1      44.732  29.862  56.847  0.00  0.00     0.041 A 
ATOM     16  C   UNL d   1      44.907  30.172  57.607  0.00  0.00     0.196 A 
ATOM     17  C   UNL d   1      44.566  30.387  56.223  0.00  0.00     0.003 C 
ATOM     18  C   UNL d   1      45.074  29.648  58.231  0.00  0.00     0.041 A 
ATOM     19  O   UNL d   1      44.915  30.993  57.734  0.00  0.00    -0.287 OA
ATOM     20  C   UNL d   1      45.068  28.826  58.112  0.00  0.00     0.025 A 
ATOM     21  C   UNL d   1      45.247  29.951  58.984  0.00  0.00     0.003 C 
ENDBRANCH  12  13
ENDBRANCH   1  12
TORSDOF 5
ENDMDL
