MODEL 1
REMARK VINA RESULT:      -9.4      0.000      0.000
REMARK  5 active torsions:
REMARK  status: ('A' for Active; 'I' for Inactive)
REMARK    1  A    between atoms: N_5  and  S_1 
REMARK    2  A    between atoms: C_9  and  S_1 
REMARK    3  A    between atoms: C_2  and  N_4 
REMARK    4  A    between atoms: C_7  and  C_3 
REMARK       I    between atoms: N_4  and  C_6 
REMARK    5  A    between atoms: C_6  and  C_14 
ROOT
ATOM      1  C   UNL d   1      51.607  33.596  52.999  0.00  0.00     0.104 A 
ATOM      2  C   UNL d   1      50.186  34.278  52.508  0.00  0.00     0.058 A 
ATOM      3  C   UNL d   1      51.604  34.161  52.395  0.00  0.00     0.013 A 
ATOM      4  C   UNL d   1      50.900  33.376  53.353  0.00  0.00     0.013 A 
ATOM      5  C   UNL d   1      50.894  34.498  52.154  0.00  0.00     0.005 A 
ATOM      6  C   UNL d   1      50.190  33.712  53.112  0.00  0.00     0.005 A 
ENDROOT
BRANCH   2   7
ATOM      7  C   UNL d   1      49.471  34.619  52.263  0.00  0.00     0.280 C 
ATOM      8  N   UNL d   1      49.088  35.166  52.746  0.00  0.00    -0.201 NA
ATOM      9  O   UNL d   1      49.158  34.406  51.544  0.00  0.00    -0.265 OA
BRANCH   8  10
ATOM     10  C   UNL d   1      48.380  35.501  52.498  0.00  0.00     0.119 A 
ATOM     11  C   UNL d   1      47.884  35.980  52.955  0.00  0.00     0.084 A 
ATOM     12  C   UNL d   1      47.232  36.194  52.485  0.00  0.00     0.014 A 
ATOM     13  C   UNL d   1      47.332  35.846  51.744  0.00  0.00     0.037 A 
ATOM     14  S   UNL d   1      48.038  35.422  51.757  0.00  0.00    -0.067 SA
BRANCH  11  15
ATOM     15  C   UNL d   1      48.006  36.208  53.737  0.00  0.00     0.299 C 
ATOM     16  O   UNL d   1      48.640  36.708  53.920  0.00  0.00    -0.264 OA
ATOM     17  N   UNL d   1      47.501  35.942  54.333  0.00  0.00    -0.102 N 
ENDBRANCH  11  15
ENDBRANCH   8  10
ENDBRANCH   2   7
BRANCH   1  18
ATOM     18  S   UNL d   1      52.317  33.259  53.240  0.00  0.00     0.271 S 
ATOM     19  O   UNL d   1      52.291  33.702  53.940  0.00  0.00    -0.200 OA
ATOM     20  O   UNL d   1      52.344  32.820  52.547  0.00  0.00    -0.200 OA
BRANCH  18  21
ATOM     21  N   UNL d   1      53.029  32.920  53.481  0.00  0.00    -0.229 N 
ATOM     22  C   UNL d   1      53.159  32.113  53.380  0.00  0.00     0.092 A 
ATOM     23  C   UNL d   1      53.876  31.774  53.623  0.00  0.00     0.020 A 
ATOM     24  C   UNL d   1      54.454  32.244  53.963  0.00  0.00     0.003 A 
ATOM     25  C   UNL d   1      54.328  33.054  54.067  0.00  0.00     0.020 A 
ATOM     26  C   UNL d   1      53.619  33.392  53.828  0.00  0.00     0.092 A 
ENDBRANCH  18  21
ENDBRANCH   1  18
TORSDOF 5
ENDMDL
MODEL 2
REMARK VINA RESULT:      -8.8      0.987      5.393
REMARK  5 active torsions:
REMARK  status: ('A' for Active; 'I' for Inactive)
REMARK    1  A    between atoms: N_5  and  S_1 
REMARK    2  A    between atoms: C_9  and  S_1 
REMARK    3  A    between atoms: C_2  and  N_4 
REMARK    4  A    between atoms: C_7  and  C_3 
REMARK       I    between atoms: N_4  and  C_6 
REMARK    5  A    between atoms: C_6  and  C_14 
ROOT
ATOM      1  C   UNL d   1      50.085  34.415  52.508  0.00  0.00     0.104 A 
ATOM      2  C   UNL d   1      51.515  33.661  52.842  0.00  0.00     0.058 A 
ATOM      3  C   UNL d   1      50.134  33.874  53.132  0.00  0.00     0.013 A 
ATOM      4  C   UNL d   1      50.751  34.575  52.056  0.00  0.00     0.013 A 
ATOM      5  C   UNL d   1      50.849  33.501  53.294  0.00  0.00     0.005 A 
ATOM      6  C   UNL d   1      51.465  34.203  52.218  0.00  0.00     0.005 A 
ENDROOT
BRANCH   2   7
ATOM      7  C   UNL d   1      52.235  33.284  53.008  0.00  0.00     0.280 C 
ATOM      8  N   UNL d   1      52.715  33.561  53.618  0.00  0.00    -0.201 NA
ATOM      9  O   UNL d   1      52.456  32.642  52.562  0.00  0.00    -0.265 OA
BRANCH   8  10
ATOM     10  C   UNL d   1      53.427  33.183  53.778  0.00  0.00     0.119 A 
ATOM     11  C   UNL d   1      53.983  33.416  54.344  0.00  0.00     0.084 A 
ATOM     12  C   UNL d   1      54.617  32.877  54.317  0.00  0.00     0.014 A 
ATOM     13  C   UNL d   1      54.444  32.318  53.735  0.00  0.00     0.037 A 
ATOM     14  S   UNL d   1      53.714  32.510  53.408  0.00  0.00    -0.067 SA
BRANCH  11  15
ATOM     15  C   UNL d   1      53.928  34.064  54.849  0.00  0.00     0.299 C 
ATOM     16  O   UNL d   1      54.187  34.806  54.588  0.00  0.00    -0.264 OA
ATOM     17  N   UNL d   1      53.617  33.976  55.608  0.00  0.00    -0.102 N 
ENDBRANCH  11  15
ENDBRANCH   8  10
ENDBRANCH   2   7
BRANCH   1  18
ATOM     18  S   UNL d   1      49.371  34.787  52.345  0.00  0.00     0.271 S 
ATOM     19  O   UNL d   1      49.369  34.455  51.586  0.00  0.00    -0.200 OA
ATOM     20  O   UNL d   1      49.371  35.117  53.097  0.00  0.00    -0.200 OA
BRANCH  18  21
ATOM     21  N   UNL d   1      48.654  35.161  52.183  0.00  0.00    -0.229 N 
ATOM     22  C   UNL d   1      48.242  34.985  51.492  0.00  0.00     0.092 A 
ATOM     23  C   UNL d   1      47.521  35.362  51.330  0.00  0.00     0.020 A 
ATOM     24  C   UNL d   1      47.220  35.910  51.859  0.00  0.00     0.003 A 
ATOM     25  C   UNL d   1      47.630  36.090  52.554  0.00  0.00     0.020 A 
ATOM     26  C   UNL d   1      48.344  35.718  52.717  0.00  0.00     0.092 A 
ENDBRANCH  18  21
ENDBRANCH   1  18
TORSDOF 5
ENDMDL
MODEL 3
REMARK VINA RESULT:      -6.5      1.308      1.820
REMARK  5 active torsions:
REMARK  status: ('A' for Active; 'I' for Inactive)
REMARK    1  A    between atoms: N_5  and  S_1 
REMARK    2  A    between atoms: C_9  and  S_1 
REMARK    3  A    between atoms: C_2  and  N_4 
REMARK    4  A    between atoms: C_7  and  C_3 
REMARK       I    between atoms: N_4  and  C_6 
REMARK    5  A    between atoms: C_6  and  C_14 
ROOT
ATOM      1  C   UNL d   1      50.261  34.415  52.686  0.00  0.00     0.104 A 
ATOM      2  C   UNL d   1      48.794  35.091  52.345  0.00  0.00     0.058 A 
ATOM      3  C   UNL d   1      49.912  34.943  53.219  0.00  0.00     0.013 A 
ATOM      4  C   UNL d   1      49.874  34.229  51.987  0.00  0.00     0.013 A 
ATOM      5  C   UNL d   1      49.181  35.277  53.044  0.00  0.00     0.005 A 
ATOM      6  C   UNL d   1      49.144  34.562  51.812  0.00  0.00     0.005 A 
ENDROOT
BRANCH   2   7
ATOM      7  C   UNL d   1      48.057  35.429  52.171  0.00  0.00     0.280 C 
ATOM      8  N   UNL d   1      47.520  35.581  52.777  0.00  0.00    -0.201 NA
ATOM      9  O   UNL d   1      47.876  35.606  51.399  0.00  0.00    -0.265 OA
BRANCH   8  10
ATOM     10  C   UNL d   1      46.790  35.916  52.599  0.00  0.00     0.119 A 
ATOM     11  C   UNL d   1      46.215  36.145  53.147  0.00  0.00     0.084 A 
ATOM     12  C   UNL d   1      45.569  36.456  52.725  0.00  0.00     0.014 A 
ATOM     13  C   UNL d   1      45.753  36.414  51.921  0.00  0.00     0.037 A 
ATOM     14  S   UNL d   1      46.502  36.083  51.850  0.00  0.00    -0.067 SA
BRANCH  11  15
ATOM     15  C   UNL d   1      46.265  36.081  53.966  0.00  0.00     0.299 C 
ATOM     16  O   UNL d   1      46.586  36.707  54.404  0.00  0.00    -0.264 OA
ATOM     17  N   UNL d   1      45.998  35.401  54.349  0.00  0.00    -0.102 N 
ENDBRANCH  11  15
ENDBRANCH   8  10
ENDBRANCH   2   7
BRANCH   1  18
ATOM     18  S   UNL d   1      50.992  34.082  52.860  0.00  0.00     0.271 S 
ATOM     19  O   UNL d   1      50.684  33.772  53.565  0.00  0.00    -0.200 OA
ATOM     20  O   UNL d   1      51.298  34.387  52.163  0.00  0.00    -0.200 OA
BRANCH  18  21
ATOM     21  N   UNL d   1      51.725  33.747  53.034  0.00  0.00    -0.229 N 
ATOM     22  C   UNL d   1      52.375  34.231  53.187  0.00  0.00     0.092 A 
ATOM     23  C   UNL d   1      53.112  33.893  53.362  0.00  0.00     0.020 A 
ATOM     24  C   UNL d   1      53.192  33.078  53.383  0.00  0.00     0.003 A 
ATOM     25  C   UNL d   1      52.543  32.589  53.230  0.00  0.00     0.020 A 
ATOM     26  C   UNL d   1      51.812  32.921  53.057  0.00  0.00     0.092 A 
ENDBRANCH  18  21
ENDBRANCH   1  18
TORSDOF 5
ENDMDL
