MODEL 1
REMARK VINA RESULT:      25.9      0.000      0.000
REMARK  2 active torsions:
REMARK  status: ('A' for Active; 'I' for Inactive)
REMARK    1  A    between atoms: N_3  and  C_1 
REMARK    2  A    between atoms: C_13  and  N_6 
ROOT
ATOM      1  C   UNL d   1      45.311 -14.033  44.123  0.00  0.00     0.143 A 
ATOM      2  C   UNL d   1      45.773 -14.714  43.987  0.00  0.00     0.297 A 
ATOM      3  C   UNL d   1      44.627 -14.257  44.493  0.00  0.00     0.102 A 
ATOM      4  N   UNL d   1      44.647 -15.082  44.596  0.00  0.00    -0.238 N 
ATOM      5  N   UNL d   1      45.353 -15.359  44.284  0.00  0.00    -0.209 N 
ATOM      6  O   UNL d   1      46.508 -14.746  43.627  0.00  0.00    -0.264 OA
ATOM      7  C   UNL d   1      44.048 -15.533  44.955  0.00  0.00     0.120 C 
ATOM      8  C   UNL d   1      44.011 -13.754  44.729  0.00  0.00     0.022 C 
ENDROOT
BRANCH   1   9
ATOM      9  N   UNL d   1      45.531 -13.262  43.908  0.00  0.00    -0.254 N 
ATOM     10  C   UNL d   1      45.205 -12.832  43.277  0.00  0.00     0.153 A 
ATOM     11  S   UNL d   1      45.581 -12.095  43.261  0.00  0.00    -0.053 SA
ATOM     12  S   UNL d   1      44.620 -13.097  42.769  0.00  0.00    -0.052 SA
ATOM     13  C   UNL d   1      46.129 -12.081  43.877  0.00  0.00     0.099 A 
ATOM     14  C   UNL d   1      46.095 -12.798  44.271  0.00  0.00     0.273 A 
ATOM     15  O   UNL d   1      46.558 -13.010  44.927  0.00  0.00    -0.266 OA
ENDBRANCH   1   9
BRANCH   5  16
ATOM     16  C   UNL d   1      45.619 -16.139  44.259  0.00  0.00     0.085 A 
ATOM     17  C   UNL d   1      45.904 -16.505  44.941  0.00  0.00     0.019 A 
ATOM     18  C   UNL d   1      46.166 -17.284  44.905  0.00  0.00     0.002 A 
ATOM     19  C   UNL d   1      46.148 -17.699  44.205  0.00  0.00     0.000 A 
ATOM     20  C   UNL d   1      45.867 -17.343  43.526  0.00  0.00     0.002 A 
ATOM     21  C   UNL d   1      45.600 -16.558  43.549  0.00  0.00     0.019 A 
ENDBRANCH   5  16
TORSDOF 2
ENDMDL
