MODEL 1
REMARK VINA RESULT:      -2.3      0.000      0.000
REMARK  5 active torsions:
REMARK  status: ('A' for Active; 'I' for Inactive)
REMARK    1  A    between atoms: C_6  and  N_1 
REMARK    2  A    between atoms: C_13  and  C_6 
REMARK    3  A    between atoms: O_11  and  C_7 
REMARK    4  A    between atoms: O_19  and  C_8 
REMARK    5  A    between atoms: C_20  and  O_11 
ROOT
ATOM      1  C   UNL d   1      33.111  20.392 -22.416  0.00  0.00     0.122 A 
ATOM      2  C   UNL d   1      33.169  20.523 -23.226  0.00  0.00     0.117 A 
ATOM      3  C   UNL d   1      33.156  19.887 -23.752  0.00  0.00     0.028 A 
ATOM      4  C   UNL d   1      33.084  19.122 -23.457  0.00  0.00     0.020 A 
ATOM      5  C   UNL d   1      33.039  19.621 -22.130  0.00  0.00     0.027 A 
ATOM      6  C   UNL d   1      33.027  18.993 -22.652  0.00  0.00     0.004 A 
ENDROOT
BRANCH   4   7
ATOM      7  C   UNL d   1      33.072  18.489 -23.985  0.00  0.00     0.085 C 
BRANCH   7   8
ATOM      8  N   UNL d   1      32.387  18.037 -24.066  0.00  0.00    -0.251 N 
ATOM      9  C   UNL d   1      31.646  18.260 -24.379  0.00  0.00     0.378 A 
ATOM     10  O   UNL d   1      31.141  17.605 -24.337  0.00  0.00    -0.258 OA
ATOM     11  O   UNL d   1      31.458  19.004 -24.677  0.00  0.00    -0.237 OA
ATOM     12  C   UNL d   1      31.566  16.979 -23.999  0.00  0.00     0.121 A 
ATOM     13  C   UNL d   1      32.335  17.245 -23.832  0.00  0.00     0.092 A 
ATOM     14  C   UNL d   1      31.360  16.197 -23.819  0.00  0.00     0.026 A 
ATOM     15  C   UNL d   1      32.887  16.740 -23.491  0.00  0.00     0.020 A 
ATOM     16  C   UNL d   1      32.672  15.964 -23.316  0.00  0.00     0.002 A 
ATOM     17  C   UNL d   1      31.912  15.694 -23.479  0.00  0.00     0.002 A 
ATOM     18  C   UNL d   1      33.231  15.460 -22.973  0.00  0.00     0.000 C 
ENDBRANCH   7   8
ENDBRANCH   4   7
BRANCH   2  19
ATOM     19  O   UNL d   1      33.241  21.283 -23.519  0.00  0.00    -0.326 OA
ATOM     20  C   UNL d   1      32.954  21.455 -24.275  0.00  0.00     0.181 C 
ENDBRANCH   2  19
BRANCH   1  21
ATOM     21  O   UNL d   1      33.124  21.023 -21.890  0.00  0.00    -0.305 OA
BRANCH  21  22
ATOM     22  C   UNL d   1      32.836  20.926 -21.129  0.00  0.00     0.100 C 
ATOM     23  C   UNL d   1      33.216  20.423 -20.607  0.00  0.00     0.027 C 
ATOM     24  C   UNL d   1      32.161  21.336 -20.889  0.00  0.00     0.027 C 
ENDBRANCH  21  22
ENDBRANCH   1  21
TORSDOF 5
ENDMDL
MODEL 2
REMARK VINA RESULT:      -0.4      1.208      1.818
REMARK  5 active torsions:
REMARK  status: ('A' for Active; 'I' for Inactive)
REMARK    1  A    between atoms: C_6  and  N_1 
REMARK    2  A    between atoms: C_13  and  C_6 
REMARK    3  A    between atoms: O_11  and  C_7 
REMARK    4  A    between atoms: O_19  and  C_8 
REMARK    5  A    between atoms: C_20  and  O_11 
ROOT
ATOM      1  C   UNL d   1      32.880  19.618 -22.940  0.00  0.00     0.122 A 
ATOM      2  C   UNL d   1      32.916  19.712 -23.757  0.00  0.00     0.117 A 
ATOM      3  C   UNL d   1      32.623  19.122 -24.256  0.00  0.00     0.028 A 
ATOM      4  C   UNL d   1      32.296  18.443 -23.927  0.00  0.00     0.020 A 
ATOM      5  C   UNL d   1      32.550  18.933 -22.621  0.00  0.00     0.027 A 
ATOM      6  C   UNL d   1      32.261  18.351 -23.117  0.00  0.00     0.004 A 
ENDROOT
BRANCH   4   7
ATOM      7  C   UNL d   1      32.005  17.857 -24.429  0.00  0.00     0.085 C 
BRANCH   7   8
ATOM      8  N   UNL d   1      31.867  17.098 -24.136  0.00  0.00    -0.251 N 
ATOM      9  C   UNL d   1      32.420  16.509 -23.926  0.00  0.00     0.378 A 
ATOM     10  O   UNL d   1      32.002  15.846 -23.662  0.00  0.00    -0.258 OA
ATOM     11  O   UNL d   1      33.238  16.583 -23.977  0.00  0.00    -0.237 OA
ATOM     12  C   UNL d   1      31.193  16.021 -23.706  0.00  0.00     0.121 A 
ATOM     13  C   UNL d   1      31.109  16.794 -23.999  0.00  0.00     0.092 A 
ATOM     14  C   UNL d   1      30.515  15.583 -23.521  0.00  0.00     0.026 A 
ATOM     15  C   UNL d   1      30.364  17.123 -24.104  0.00  0.00     0.020 A 
ATOM     16  C   UNL d   1      29.695  16.678 -23.916  0.00  0.00     0.002 A 
ATOM     17  C   UNL d   1      29.771  15.912 -23.626  0.00  0.00     0.002 A 
ATOM     18  C   UNL d   1      28.946  17.014 -24.024  0.00  0.00     0.000 C 
ENDBRANCH   7   8
ENDBRANCH   4   7
BRANCH   2  19
ATOM     19  O   UNL d   1      33.241  20.387 -24.083  0.00  0.00    -0.326 OA
ATOM     20  C   UNL d   1      32.811  20.811 -24.648  0.00  0.00     0.181 C 
ENDBRANCH   2  19
BRANCH   1  21
ATOM     21  O   UNL d   1      33.170  20.203 -22.441  0.00  0.00    -0.305 OA
BRANCH  21  22
ATOM     22  C   UNL d   1      32.720  20.457 -21.806  0.00  0.00     0.100 C 
ATOM     23  C   UNL d   1      32.739  20.048 -21.098  0.00  0.00     0.027 C 
ATOM     24  C   UNL d   1      32.245  21.129 -21.881  0.00  0.00     0.027 C 
ENDBRANCH  21  22
ENDBRANCH   1  21
TORSDOF 5
ENDMDL
