MODEL 1
REMARK VINA RESULT:      -2.3      0.000      0.000
REMARK  6 active torsions:
REMARK  status: ('A' for Active; 'I' for Inactive)
REMARK    1  A    between atoms: N_2  and  S_1 
REMARK    2  A    between atoms: C_6  and  S_1 
REMARK    3  A    between atoms: S_7  and  C_3 
REMARK    4  A    between atoms: N_4  and  C_10 
REMARK    5  A    between atoms: C_21  and  S_7 
REMARK    6  A    between atoms: C_20  and  C_21 
ROOT
ATOM      1  N   UNL d   1      32.866  18.550 -23.415  0.00  0.00    -0.208 N 
ATOM      2  C   UNL d   1      32.989  18.929 -22.685  0.00  0.00     0.189 A 
ATOM      3  N   UNL d   1      33.212  18.356 -22.131  0.00  0.00    -0.219 NA
ATOM      4  C   UNL d   1      33.014  17.738 -23.309  0.00  0.00     0.114 A 
ATOM      5  C   UNL d   1      33.226  17.624 -22.519  0.00  0.00     0.121 A 
ENDROOT
BRANCH   1   6
ATOM      6  S   UNL d   1      32.635  18.920 -24.121  0.00  0.00     0.273 S 
ATOM      7  O   UNL d   1      33.191  19.499 -23.957  0.00  0.00    -0.200 OA
ATOM      8  O   UNL d   1      32.583  19.454 -24.751  0.00  0.00    -0.200 OA
BRANCH   6   9
ATOM      9  C   UNL d   1      32.070  18.346 -24.303  0.00  0.00     0.104 A 
ATOM     10  C   UNL d   1      32.243  17.774 -24.867  0.00  0.00     0.015 A 
ATOM     11  C   UNL d   1      31.680  17.197 -25.053  0.00  0.00     0.024 A 
ATOM     12  C   UNL d   1      30.950  17.208 -24.666  0.00  0.00     0.127 A 
ATOM     13  C   UNL d   1      30.783  17.784 -24.102  0.00  0.00     0.024 A 
ATOM     14  C   UNL d   1      31.344  18.359 -23.916  0.00  0.00     0.015 A 
BRANCH  12  15
ATOM     15  N   UNL d   1      30.380  16.626 -24.852  0.00  0.00    -0.114 N 
ATOM     16  O   UNL d   1      30.578  15.825 -24.788  0.00  0.00    -0.532 OA
ATOM     17  O   UNL d   1      29.626  16.851 -25.097  0.00  0.00    -0.532 OA
ENDBRANCH  12  15
ENDBRANCH   6   9
ENDBRANCH   1   6
BRANCH   2  18
ATOM     18  S   UNL d   1      32.903  19.745 -22.539  0.00  0.00    -0.049 SA
BRANCH  18  19
ATOM     19  C   UNL d   1      32.896  20.023 -21.762  0.00  0.00     0.040 C 
BRANCH  19  20
ATOM     20  C   UNL d   1      32.745  20.819 -21.612  0.00  0.00     0.026 A 
ATOM     21  C   UNL d   1      33.186  21.412 -22.011  0.00  0.00     0.099 A 
ATOM     22  N   UNL d   1      33.047  22.210 -21.873  0.00  0.00    -0.242 NA
ATOM     23  C   UNL d   1      32.461  22.420 -21.330  0.00  0.00     0.099 A 
ATOM     24  C   UNL d   1      32.026  21.842 -20.936  0.00  0.00     0.021 A 
ATOM     25  C   UNL d   1      32.169  21.042 -21.078  0.00  0.00     0.004 A 
ENDBRANCH  19  20
ENDBRANCH  18  19
ENDBRANCH   2  18
TORSDOF 6
ENDMDL
MODEL 2
REMARK VINA RESULT:      -1.0      1.991      4.606
REMARK  6 active torsions:
REMARK  status: ('A' for Active; 'I' for Inactive)
REMARK    1  A    between atoms: N_2  and  S_1 
REMARK    2  A    between atoms: C_6  and  S_1 
REMARK    3  A    between atoms: S_7  and  C_3 
REMARK    4  A    between atoms: N_4  and  C_10 
REMARK    5  A    between atoms: C_21  and  S_7 
REMARK    6  A    between atoms: C_20  and  C_21 
ROOT
ATOM      1  N   UNL d   1      32.404  16.777 -23.939  0.00  0.00    -0.208 N 
ATOM      2  C   UNL d   1      31.798  16.216 -23.838  0.00  0.00     0.189 A 
ATOM      3  N   UNL d   1      32.063  15.645 -23.300  0.00  0.00    -0.219 NA
ATOM      4  C   UNL d   1      33.045  16.550 -23.460  0.00  0.00     0.114 A 
ATOM      5  C   UNL d   1      32.831  15.855 -23.069  0.00  0.00     0.121 A 
ENDROOT
BRANCH   1   6
ATOM      6  S   UNL d   1      32.369  17.444 -24.432  0.00  0.00     0.273 S 
ATOM      7  O   UNL d   1      32.213  16.933 -25.052  0.00  0.00    -0.200 OA
ATOM      8  O   UNL d   1      32.288  17.931 -25.097  0.00  0.00    -0.200 OA
BRANCH   6   9
ATOM      9  C   UNL d   1      32.527  17.975 -23.819  0.00  0.00     0.104 A 
ATOM     10  C   UNL d   1      33.080  17.776 -23.245  0.00  0.00     0.015 A 
ATOM     11  C   UNL d   1      33.241  18.305 -22.628  0.00  0.00     0.024 A 
ATOM     12  C   UNL d   1      32.840  19.026 -22.603  0.00  0.00     0.127 A 
ATOM     13  C   UNL d   1      32.287  19.219 -23.182  0.00  0.00     0.024 A 
ATOM     14  C   UNL d   1      32.126  18.693 -23.795  0.00  0.00     0.015 A 
BRANCH  12  15
ATOM     15  N   UNL d   1      33.001  19.561 -21.982  0.00  0.00    -0.114 N 
ATOM     16  O   UNL d   1      33.189  19.270 -21.230  0.00  0.00    -0.532 OA
ATOM     17  O   UNL d   1      32.971  20.373 -22.119  0.00  0.00    -0.532 OA
ENDBRANCH  12  15
ENDBRANCH   6   9
ENDBRANCH   1   6
BRANCH   2  18
ATOM     18  S   UNL d   1      31.055  16.228 -24.214  0.00  0.00    -0.049 SA
BRANCH  18  19
ATOM     19  C   UNL d   1      30.509  15.629 -24.060  0.00  0.00     0.040 C 
BRANCH  19  20
ATOM     20  C   UNL d   1      29.703  15.798 -24.064  0.00  0.00     0.026 A 
ATOM     21  C   UNL d   1      29.235  15.595 -24.732  0.00  0.00     0.099 A 
ATOM     22  N   UNL d   1      28.430  15.757 -24.752  0.00  0.00    -0.242 NA
ATOM     23  C   UNL d   1      28.085  16.125 -24.098  0.00  0.00     0.099 A 
ATOM     24  C   UNL d   1      28.540  16.326 -23.440  0.00  0.00     0.021 A 
ATOM     25  C   UNL d   1      29.348  16.162 -23.425  0.00  0.00     0.004 A 
ENDBRANCH  19  20
ENDBRANCH  18  19
ENDBRANCH   2  18
TORSDOF 6
ENDMDL
MODEL 3
REMARK VINA RESULT:      -0.8      1.584      4.616
REMARK  6 active torsions:
REMARK  status: ('A' for Active; 'I' for Inactive)
REMARK    1  A    between atoms: N_2  and  S_1 
REMARK    2  A    between atoms: C_6  and  S_1 
REMARK    3  A    between atoms: S_7  and  C_3 
REMARK    4  A    between atoms: N_4  and  C_10 
REMARK    5  A    between atoms: C_21  and  S_7 
REMARK    6  A    between atoms: C_20  and  C_21 
ROOT
ATOM      1  N   UNL d   1      32.874  18.954 -23.580  0.00  0.00    -0.208 N 
ATOM      2  C   UNL d   1      32.308  18.648 -24.107  0.00  0.00     0.189 A 
ATOM      3  N   UNL d   1      32.323  19.106 -24.796  0.00  0.00    -0.219 NA
ATOM      4  C   UNL d   1      33.241  19.605 -23.948  0.00  0.00     0.114 A 
ATOM      5  C   UNL d   1      32.899  19.694 -24.695  0.00  0.00     0.121 A 
ENDROOT
BRANCH   1   6
ATOM      6  S   UNL d   1      33.041  18.659 -22.823  0.00  0.00     0.273 S 
ATOM      7  O   UNL d   1      33.163  17.929 -23.173  0.00  0.00    -0.200 OA
ATOM      8  O   UNL d   1      33.240  18.151 -22.200  0.00  0.00    -0.200 OA
BRANCH   6   9
ATOM      9  C   UNL d   1      32.922  19.388 -22.451  0.00  0.00     0.104 A 
ATOM     10  C   UNL d   1      32.490  19.418 -21.753  0.00  0.00     0.015 A 
ATOM     11  C   UNL d   1      32.368  20.146 -21.378  0.00  0.00     0.024 A 
ATOM     12  C   UNL d   1      32.685  20.830 -21.715  0.00  0.00     0.127 A 
ATOM     13  C   UNL d   1      33.117  20.792 -22.415  0.00  0.00     0.024 A 
ATOM     14  C   UNL d   1      33.239  20.068 -22.789  0.00  0.00     0.015 A 
BRANCH  12  15
ATOM     15  N   UNL d   1      32.563  21.566 -21.338  0.00  0.00    -0.114 N 
ATOM     16  O   UNL d   1      32.043  22.115 -21.674  0.00  0.00    -0.532 OA
ATOM     17  O   UNL d   1      32.959  21.741 -20.637  0.00  0.00    -0.532 OA
ENDBRANCH  12  15
ENDBRANCH   6   9
ENDBRANCH   1   6
BRANCH   2  18
ATOM     18  S   UNL d   1      31.812  17.994 -23.964  0.00  0.00    -0.049 SA
BRANCH  18  19
ATOM     19  C   UNL d   1      31.222  17.801 -24.507  0.00  0.00     0.040 C 
BRANCH  19  20
ATOM     20  C   UNL d   1      30.640  17.255 -24.304  0.00  0.00     0.026 A 
ATOM     21  C   UNL d   1      30.856  16.471 -24.092  0.00  0.00     0.099 A 
ATOM     22  N   UNL d   1      30.287  15.915 -23.887  0.00  0.00    -0.242 NA
ATOM     23  C   UNL d   1      29.493  16.141 -23.893  0.00  0.00     0.099 A 
ATOM     24  C   UNL d   1      29.276  16.909 -24.100  0.00  0.00     0.021 A 
ATOM     25  C   UNL d   1      29.851  17.464 -24.306  0.00  0.00     0.004 A 
ENDBRANCH  19  20
ENDBRANCH  18  19
ENDBRANCH   2  18
TORSDOF 6
ENDMDL
