MODEL 1
REMARK VINA RESULT:      -7.0      0.000      0.000
REMARK  3 active torsions:
REMARK  status: ('A' for Active; 'I' for Inactive)
REMARK    1  A    between atoms: N_6  and  C_2 
REMARK    2  A    between atoms: C_8  and  C_5 
REMARK    3  A    between atoms: C_9  and  N_7 
ROOT
ATOM      1  N   UNL d   1     -47.901  13.367  22.979  0.00  0.00    -0.281 N 
ATOM      2  N   UNL d   1     -46.657  12.311  23.140  0.00  0.00    -0.301 N 
ATOM      3  C   UNL d   1     -47.130  13.654  23.053  0.00  0.00     0.101 A 
ATOM      4  C   UNL d   1     -48.047  12.549  22.987  0.00  0.00     0.101 A 
ATOM      5  C   UNL d   1     -47.422  12.034  23.068  0.00  0.00     0.100 A 
ATOM      6  C   UNL d   1     -46.515  13.126  23.132  0.00  0.00     0.100 A 
ENDROOT
BRANCH   1   7
ATOM      7  C   UNL d   1     -48.527  13.901  22.898  0.00  0.00     0.183 A 
ATOM      8  N   UNL d   1     -48.467  14.705  22.752  0.00  0.00    -0.183 NA
ATOM      9  C   UNL d   1     -49.231  15.021  22.713  0.00  0.00     0.287 A 
ATOM     10  C   UNL d   1     -49.762  14.399  22.839  0.00  0.00     0.090 A 
ATOM     11  O   UNL d   1     -49.423  15.803  22.577  0.00  0.00    -0.265 OA
ATOM     12  S   UNL d   1     -49.334  13.708  22.954  0.00  0.00    -0.045 SA
BRANCH  10  13
ATOM     13  C   UNL d   1     -50.584  14.469  22.847  0.00  0.00     0.011 C 
ATOM     14  C   UNL d   1     -51.008  14.543  22.141  0.00  0.00     0.001 C 
ATOM     15  C   UNL d   1     -50.989  14.466  23.566  0.00  0.00     0.001 C 
ENDBRANCH  10  13
ENDBRANCH   1   7
BRANCH   2  16
ATOM     16  C   UNL d   1     -46.027  11.779  23.222  0.00  0.00     0.064 A 
ATOM     17  C   UNL d   1     -45.291  11.971  22.904  0.00  0.00     0.018 A 
ATOM     18  C   UNL d   1     -44.663  11.437  22.987  0.00  0.00     0.002 A 
ATOM     19  C   UNL d   1     -44.772  10.723  23.381  0.00  0.00     0.000 A 
ATOM     20  C   UNL d   1     -45.516  10.540  23.698  0.00  0.00     0.002 A 
ATOM     21  C   UNL d   1     -44.146  10.192  23.463  0.00  0.00     0.000 C 
ATOM     22  C   UNL d   1     -46.146  11.071  23.617  0.00  0.00     0.018 A 
ENDBRANCH   2  16
TORSDOF 3
ENDMDL
MODEL 2
REMARK VINA RESULT:      -6.4      1.829      5.139
REMARK  3 active torsions:
REMARK  status: ('A' for Active; 'I' for Inactive)
REMARK    1  A    between atoms: N_6  and  C_2 
REMARK    2  A    between atoms: C_8  and  C_5 
REMARK    3  A    between atoms: C_9  and  N_7 
ROOT
ATOM      1  N   UNL d   1     -46.545  12.870  22.901  0.00  0.00    -0.281 N 
ATOM      2  N   UNL d   1     -47.913  13.774  22.923  0.00  0.00    -0.301 N 
ATOM      3  C   UNL d   1     -46.494  13.682  23.039  0.00  0.00     0.101 A 
ATOM      4  C   UNL d   1     -47.283  12.511  22.774  0.00  0.00     0.101 A 
ATOM      5  C   UNL d   1     -47.956  12.969  22.787  0.00  0.00     0.100 A 
ATOM      6  C   UNL d   1     -47.175  14.128  23.049  0.00  0.00     0.100 A 
ENDROOT
BRANCH   1   7
ATOM      7  C   UNL d   1     -45.854  12.416  22.889  0.00  0.00     0.183 A 
ATOM      8  N   UNL d   1     -45.157  12.596  22.496  0.00  0.00    -0.183 NA
ATOM      9  C   UNL d   1     -44.614  11.988  22.637  0.00  0.00     0.287 A 
ATOM     10  C   UNL d   1     -44.986  11.431  23.124  0.00  0.00     0.090 A 
ATOM     11  O   UNL d   1     -43.851  11.948  22.349  0.00  0.00    -0.265 OA
ATOM     12  S   UNL d   1     -45.749  11.690  23.281  0.00  0.00    -0.045 SA
BRANCH  10  13
ATOM     13  C   UNL d   1     -44.642  10.734  23.400  0.00  0.00     0.011 C 
ATOM     14  C   UNL d   1     -43.821  10.634  23.383  0.00  0.00     0.001 C 
ATOM     15  C   UNL d   1     -45.119  10.130  23.696  0.00  0.00     0.001 C 
ENDBRANCH  10  13
ENDBRANCH   1   7
BRANCH   2  16
ATOM     16  C   UNL d   1     -48.603  14.232  22.935  0.00  0.00     0.064 A 
ATOM     17  C   UNL d   1     -49.268  13.953  23.335  0.00  0.00     0.018 A 
ATOM     18  C   UNL d   1     -49.956  14.413  23.345  0.00  0.00     0.002 A 
ATOM     19  C   UNL d   1     -49.977  15.141  22.961  0.00  0.00     0.000 A 
ATOM     20  C   UNL d   1     -49.303  15.413  22.562  0.00  0.00     0.002 A 
ATOM     21  C   UNL d   1     -50.663  15.598  22.972  0.00  0.00     0.000 C 
ATOM     22  C   UNL d   1     -48.613  14.956  22.550  0.00  0.00     0.018 A 
ENDBRANCH   2  16
TORSDOF 3
ENDMDL
MODEL 3
REMARK VINA RESULT:      -5.6      8.522      9.702
REMARK  3 active torsions:
REMARK  status: ('A' for Active; 'I' for Inactive)
REMARK    1  A    between atoms: N_6  and  C_2 
REMARK    2  A    between atoms: C_8  and  C_5 
REMARK    3  A    between atoms: C_9  and  N_7 
ROOT
ATOM      1  N   UNL d   1     -39.587  14.933  20.516  0.00  0.00    -0.281 N 
ATOM      2  N   UNL d   1     -40.173  15.260  19.020  0.00  0.00    -0.301 N 
ATOM      3  C   UNL d   1     -39.174  15.447  20.020  0.00  0.00     0.101 A 
ATOM      4  C   UNL d   1     -40.296  14.582  20.261  0.00  0.00     0.101 A 
ATOM      5  C   UNL d   1     -40.577  14.752  19.516  0.00  0.00     0.100 A 
ATOM      6  C   UNL d   1     -39.467  15.607  19.278  0.00  0.00     0.100 A 
ENDROOT
BRANCH   1   7
ATOM      7  C   UNL d   1     -39.290  14.769  21.271  0.00  0.00     0.183 A 
ATOM      8  N   UNL d   1     -39.098  15.317  21.850  0.00  0.00    -0.183 NA
ATOM      9  C   UNL d   1     -38.823  14.909  22.514  0.00  0.00     0.287 A 
ATOM     10  C   UNL d   1     -38.848  14.100  22.335  0.00  0.00     0.090 A 
ATOM     11  O   UNL d   1     -38.573  15.243  23.216  0.00  0.00    -0.265 OA
ATOM     12  S   UNL d   1     -39.135  14.009  21.572  0.00  0.00    -0.045 SA
BRANCH  10  13
ATOM     13  C   UNL d   1     -38.621  13.493  22.846  0.00  0.00     0.011 C 
ATOM     14  C   UNL d   1     -39.070  13.317  23.517  0.00  0.00     0.001 C 
ATOM     15  C   UNL d   1     -37.940  13.057  22.685  0.00  0.00     0.001 C 
ENDBRANCH  10  13
ENDBRANCH   1   7
BRANCH   2  16
ATOM     16  C   UNL d   1     -40.467  15.426  18.264  0.00  0.00     0.064 A 
ATOM     17  C   UNL d   1     -40.004  15.257  17.602  0.00  0.00     0.018 A 
ATOM     18  C   UNL d   1     -40.301  15.425  16.848  0.00  0.00     0.002 A 
ATOM     19  C   UNL d   1     -41.049  15.756  16.758  0.00  0.00     0.000 A 
ATOM     20  C   UNL d   1     -41.507  15.922  17.429  0.00  0.00     0.002 A 
ATOM     21  C   UNL d   1     -41.344  15.922  16.005  0.00  0.00     0.000 C 
ATOM     22  C   UNL d   1     -41.213  15.756  18.185  0.00  0.00     0.018 A 
ENDBRANCH   2  16
TORSDOF 3
ENDMDL
MODEL 4
REMARK VINA RESULT:      -5.4      9.281     10.290
REMARK  3 active torsions:
REMARK  status: ('A' for Active; 'I' for Inactive)
REMARK    1  A    between atoms: N_6  and  C_2 
REMARK    2  A    between atoms: C_8  and  C_5 
REMARK    3  A    between atoms: C_9  and  N_7 
ROOT
ATOM      1  N   UNL d   1     -38.889  14.738  18.810  0.00  0.00    -0.281 N 
ATOM      2  N   UNL d   1     -38.807  14.350  20.401  0.00  0.00    -0.301 N 
ATOM      3  C   UNL d   1     -38.325  15.103  19.290  0.00  0.00     0.101 A 
ATOM      4  C   UNL d   1     -39.413  14.178  19.129  0.00  0.00     0.101 A 
ATOM      5  C   UNL d   1     -39.363  13.993  19.921  0.00  0.00     0.100 A 
ATOM      6  C   UNL d   1     -38.288  14.908  20.080  0.00  0.00     0.100 A 
ENDROOT
BRANCH   1   7
ATOM      7  C   UNL d   1     -38.929  14.936  18.008  0.00  0.00     0.183 A 
ATOM      8  N   UNL d   1     -39.465  15.446  17.656  0.00  0.00    -0.183 NA
ATOM      9  C   UNL d   1     -39.301  15.479  16.846  0.00  0.00     0.287 A 
ATOM     10  C   UNL d   1     -38.655  14.980  16.704  0.00  0.00     0.090 A 
ATOM     11  O   UNL d   1     -39.704  15.922  16.291  0.00  0.00    -0.265 OA
ATOM     12  S   UNL d   1     -38.423  14.644  17.416  0.00  0.00    -0.045 SA
BRANCH  10  13
ATOM     13  C   UNL d   1     -38.309  14.849  15.967  0.00  0.00     0.011 C 
ATOM     14  C   UNL d   1     -38.328  14.099  15.620  0.00  0.00     0.001 C 
ATOM     15  C   UNL d   1     -37.940  15.471  15.571  0.00  0.00     0.001 C 
ENDBRANCH  10  13
ENDBRANCH   1   7
BRANCH   2  16
ATOM     16  C   UNL d   1     -38.765  14.155  21.205  0.00  0.00     0.064 A 
ATOM     17  C   UNL d   1     -39.148  14.631  21.759  0.00  0.00     0.018 A 
ATOM     18  C   UNL d   1     -39.103  14.434  22.562  0.00  0.00     0.002 A 
ATOM     19  C   UNL d   1     -38.682  13.770  22.805  0.00  0.00     0.000 A 
ATOM     20  C   UNL d   1     -38.301  13.297  22.241  0.00  0.00     0.002 A 
ATOM     21  C   UNL d   1     -38.639  13.575  23.606  0.00  0.00     0.000 C 
ATOM     22  C   UNL d   1     -38.343  13.491  21.437  0.00  0.00     0.018 A 
ENDBRANCH   2  16
TORSDOF 3
ENDMDL
MODEL 5
REMARK VINA RESULT:      -5.4      8.567     10.247
REMARK  3 active torsions:
REMARK  status: ('A' for Active; 'I' for Inactive)
REMARK    1  A    between atoms: N_6  and  C_2 
REMARK    2  A    between atoms: C_8  and  C_5 
REMARK    3  A    between atoms: C_9  and  N_7 
ROOT
ATOM      1  N   UNL d   1     -39.283  14.718  19.173  0.00  0.00    -0.281 N 
ATOM      2  N   UNL d   1     -38.835  14.311  17.649  0.00  0.00    -0.301 N 
ATOM      3  C   UNL d   1     -39.862  14.539  18.612  0.00  0.00     0.101 A 
ATOM      4  C   UNL d   1     -38.478  14.693  18.968  0.00  0.00     0.101 A 
ATOM      5  C   UNL d   1     -38.267  14.489  18.209  0.00  0.00     0.100 A 
ATOM      6  C   UNL d   1     -39.636  14.338  17.857  0.00  0.00     0.100 A 
ENDROOT
BRANCH   1   7
ATOM      7  C   UNL d   1     -39.511  14.923  19.941  0.00  0.00     0.183 A 
ATOM      8  N   UNL d   1     -40.245  15.204  20.174  0.00  0.00    -0.183 NA
ATOM      9  C   UNL d   1     -40.227  15.336  20.990  0.00  0.00     0.287 A 
ATOM     10  C   UNL d   1     -39.469  15.133  21.257  0.00  0.00     0.090 A 
ATOM     11  O   UNL d   1     -40.843  15.616  21.448  0.00  0.00    -0.265 OA
ATOM     12  S   UNL d   1     -39.025  14.878  20.615  0.00  0.00    -0.045 SA
BRANCH  10  13
ATOM     13  C   UNL d   1     -39.211  15.181  22.039  0.00  0.00     0.011 C 
ATOM     14  C   UNL d   1     -39.189  15.907  22.432  0.00  0.00     0.001 C 
ATOM     15  C   UNL d   1     -38.972  14.497  22.434  0.00  0.00     0.001 C 
ENDBRANCH  10  13
ENDBRANCH   1   7
BRANCH   2  16
ATOM     16  C   UNL d   1     -38.611  14.105  16.879  0.00  0.00     0.064 A 
ATOM     17  C   UNL d   1     -38.165  13.423  16.755  0.00  0.00     0.018 A 
ATOM     18  C   UNL d   1     -37.942  13.219  15.984  0.00  0.00     0.002 A 
ATOM     19  C   UNL d   1     -38.162  13.693  15.348  0.00  0.00     0.000 A 
ATOM     20  C   UNL d   1     -38.610  14.377  15.482  0.00  0.00     0.002 A 
ATOM     21  C   UNL d   1     -37.940  13.489  14.580  0.00  0.00     0.000 C 
ATOM     22  C   UNL d   1     -38.835  14.584  16.252  0.00  0.00     0.018 A 
ENDBRANCH   2  16
TORSDOF 3
ENDMDL
