MODEL 1
REMARK VINA RESULT:      13.8      0.000      0.000
REMARK  5 active torsions:
REMARK  status: ('A' for Active; 'I' for Inactive)
REMARK    1  A    between atoms: C_9  and  N_2 
REMARK    2  A    between atoms: C_7  and  O_10 
REMARK    3  A    between atoms: O_11  and  C_8 
REMARK    4  A    between atoms: C_12  and  C_9 
REMARK    5  A    between atoms: O_10  and  C_12 
ROOT
ATOM      1  C   UNL d   1      45.713 -15.802  43.566  0.00  0.00     0.110 C 
ENDROOT
BRANCH   1   2
ATOM      2  N   UNL d   1      45.425 -15.214  44.068  0.00  0.00    -0.266 N 
ATOM      3  C   UNL d   1      44.754 -15.268  44.540  0.00  0.00     0.296 A 
ATOM      4  S   UNL d   1      44.675 -14.544  44.953  0.00  0.00    -0.025 SA
ATOM      5  O   UNL d   1      44.249 -15.913  44.600  0.00  0.00    -0.259 OA
ATOM      6  C   UNL d   1      45.303 -14.054  44.726  0.00  0.00     0.050 A 
ATOM      7  C   UNL d   1      45.506 -13.283  44.953  0.00  0.00     0.008 A 
ATOM      8  C   UNL d   1      45.762 -14.465  44.184  0.00  0.00     0.074 A 
ATOM      9  C   UNL d   1      46.181 -12.934  44.622  0.00  0.00     0.001 A 
ATOM     10  C   UNL d   1      46.641 -13.344  44.079  0.00  0.00     0.002 A 
ATOM     11  C   UNL d   1      46.435 -14.114  43.855  0.00  0.00     0.018 A 
ENDBRANCH   1   2
BRANCH   1  12
ATOM     12  C   UNL d   1      45.957 -16.527  43.869  0.00  0.00     0.142 C 
BRANCH  12  13
ATOM     13  O   UNL d   1      46.353 -17.076  43.395  0.00  0.00    -0.302 OA
BRANCH  13  14
ATOM     14  C   UNL d   1      46.418 -17.864  43.636  0.00  0.00     0.122 A 
ATOM     15  C   UNL d   1      46.557 -18.454  43.076  0.00  0.00     0.117 A 
ATOM     16  C   UNL d   1      46.622 -19.236  43.316  0.00  0.00     0.026 A 
ATOM     17  C   UNL d   1      46.548 -19.427  44.115  0.00  0.00     0.002 A 
ATOM     18  C   UNL d   1      46.408 -18.831  44.674  0.00  0.00     0.002 A 
ATOM     19  C   UNL d   1      46.344 -18.051  44.425  0.00  0.00     0.027 A 
BRANCH  15  20
ATOM     20  O   UNL d   1      46.637 -18.293  42.266  0.00  0.00    -0.326 OA
ATOM     21  C   UNL d   1      46.645 -18.918  41.725  0.00  0.00     0.181 C 
ENDBRANCH  15  20
ENDBRANCH  13  14
ENDBRANCH  12  13
ENDBRANCH   1  12
TORSDOF 5
ENDMDL
