MODEL 1
REMARK VINA RESULT:      -2.2      0.000      0.000
REMARK  9 active torsions:
REMARK  status: ('A' for Active; 'I' for Inactive)
REMARK    1  A    between atoms: C_17  and  N_4 
REMARK    2  A    between atoms: S_16  and  C_7 
REMARK    3  A    between atoms: S_15  and  C_8 
REMARK    4  A    between atoms: C_10  and  C_19 
REMARK    5  A    between atoms: C_22  and  S_15 
REMARK    6  A    between atoms: C_19  and  S_16 
REMARK    7  A    between atoms: C_20  and  C_22 
REMARK    8  A    between atoms: O_24  and  C_20 
REMARK    9  A    between atoms: C_28  and  O_24 
ROOT
ATOM      1  N   UNL d   1      31.862  17.555 -24.146  0.00  0.00    -0.269 N 
ATOM      2  C   UNL d   1      31.128  17.478 -24.489  0.00  0.00     0.201 A 
ATOM      3  C   UNL d   1      32.077  18.363 -24.081  0.00  0.00     0.177 A 
ATOM      4  N   UNL d   1      30.856  18.236 -24.650  0.00  0.00    -0.121 NA
ATOM      5  N   UNL d   1      31.430  18.786 -24.404  0.00  0.00    -0.127 NA
ENDROOT
BRANCH   3   6
ATOM      6  C   UNL d   1      32.787  18.605 -23.757  0.00  0.00     0.078 C 
BRANCH   6   7
ATOM      7  S   UNL d   1      33.068  19.361 -23.909  0.00  0.00    -0.045 SA
BRANCH   7   8
ATOM      8  C   UNL d   1      33.099  19.925 -23.298  0.00  0.00     0.198 A 
ATOM      9  N   UNL d   1      33.151  19.695 -22.469  0.00  0.00    -0.183 NA
ATOM     10  C   UNL d   1      33.181  20.259 -21.866  0.00  0.00     0.283 A 
ATOM     11  C   UNL d   1      33.161  21.078 -22.065  0.00  0.00     0.082 A 
ATOM     12  O   UNL d   1      33.232  20.030 -21.069  0.00  0.00    -0.265 OA
ATOM     13  C   UNL d   1      33.111  21.305 -22.872  0.00  0.00     0.117 A 
ATOM     14  C   UNL d   1      33.183  21.761 -21.592  0.00  0.00     0.013 A 
ATOM     15  N   UNL d   1      33.080  20.738 -23.478  0.00  0.00    -0.214 NA
ATOM     16  S   UNL d   1      33.102  22.138 -22.877  0.00  0.00    -0.068 SA
ATOM     17  C   UNL d   1      33.147  22.412 -22.082  0.00  0.00     0.031 A 
ATOM     18  C   UNL d   1      33.155  23.190 -21.807  0.00  0.00     0.006 A 
ATOM     19  C   UNL d   1      33.204  23.312 -20.974  0.00  0.00     0.001 A 
ATOM     20  C   UNL d   1      33.241  22.645 -20.471  0.00  0.00     0.000 A 
ATOM     21  C   UNL d   1      33.230  21.870 -20.780  0.00  0.00     0.001 A 
ENDBRANCH   7   8
ENDBRANCH   6   7
ENDBRANCH   3   6
BRANCH   1  22
ATOM     22  C   UNL d   1      32.326  16.908 -23.900  0.00  0.00     0.067 A 
ATOM     23  C   UNL d   1      32.333  16.684 -23.103  0.00  0.00     0.018 A 
ATOM     24  C   UNL d   1      32.785  16.050 -22.858  0.00  0.00     0.002 A 
ATOM     25  C   UNL d   1      33.238  15.627 -23.399  0.00  0.00     0.000 A 
ATOM     26  C   UNL d   1      33.240  15.836 -24.182  0.00  0.00     0.002 A 
ATOM     27  C   UNL d   1      32.782  16.479 -24.435  0.00  0.00     0.018 A 
ENDBRANCH   1  22
BRANCH   2  28
ATOM     28  S   UNL d   1      30.719  16.777 -24.651  0.00  0.00    -0.042 SA
BRANCH  28  29
ATOM     29  C   UNL d   1      29.945  16.800 -24.867  0.00  0.00     0.107 C 
BRANCH  29  30
ATOM     30  C   UNL d   1      29.414  16.239 -24.586  0.00  0.00     0.307 C 
ATOM     31  O   UNL d   1      29.319  15.529 -24.996  0.00  0.00    -0.258 OA
BRANCH  30  32
ATOM     32  O   UNL d   1      28.973  16.361 -23.909  0.00  0.00    -0.271 OA
BRANCH  32  33
ATOM     33  C   UNL d   1      28.216  16.079 -23.819  0.00  0.00     0.126 C 
ATOM     34  C   UNL d   1      27.720  16.329 -23.252  0.00  0.00     0.029 C 
ENDBRANCH  32  33
ENDBRANCH  30  32
ENDBRANCH  29  30
ENDBRANCH  28  29
ENDBRANCH   2  28
TORSDOF 9
ENDMDL
MODEL 2
REMARK VINA RESULT:      -0.5      2.168      6.654
REMARK  9 active torsions:
REMARK  status: ('A' for Active; 'I' for Inactive)
REMARK    1  A    between atoms: C_17  and  N_4 
REMARK    2  A    between atoms: S_16  and  C_7 
REMARK    3  A    between atoms: S_15  and  C_8 
REMARK    4  A    between atoms: C_10  and  C_19 
REMARK    5  A    between atoms: C_22  and  S_15 
REMARK    6  A    between atoms: C_19  and  S_16 
REMARK    7  A    between atoms: C_20  and  C_22 
REMARK    8  A    between atoms: O_24  and  C_20 
REMARK    9  A    between atoms: C_28  and  O_24 
ROOT
ATOM      1  N   UNL d   1      32.913  22.013 -20.785  0.00  0.00    -0.269 N 
ATOM      2  C   UNL d   1      33.027  22.250 -20.015  0.00  0.00     0.201 A 
ATOM      3  C   UNL d   1      33.022  21.185 -20.861  0.00  0.00     0.177 A 
ATOM      4  N   UNL d   1      33.211  21.578 -19.581  0.00  0.00    -0.121 NA
ATOM      5  N   UNL d   1      33.211  20.919 -20.090  0.00  0.00    -0.127 NA
ENDROOT
BRANCH   3   6
ATOM      6  C   UNL d   1      32.941  20.795 -21.575  0.00  0.00     0.078 C 
BRANCH   6   7
ATOM      7  S   UNL d   1      33.241  20.035 -21.660  0.00  0.00    -0.045 SA
BRANCH   7   8
ATOM      8  C   UNL d   1      32.960  19.542 -22.267  0.00  0.00     0.198 A 
ATOM      9  N   UNL d   1      32.840  19.832 -23.071  0.00  0.00    -0.183 NA
ATOM     10  C   UNL d   1      32.561  19.338 -23.671  0.00  0.00     0.283 A 
ATOM     11  C   UNL d   1      32.388  18.532 -23.495  0.00  0.00     0.082 A 
ATOM     12  O   UNL d   1      32.448  19.625 -24.442  0.00  0.00    -0.265 OA
ATOM     13  C   UNL d   1      32.504  18.246 -22.713  0.00  0.00     0.117 A 
ATOM     14  C   UNL d   1      32.106  17.912 -23.971  0.00  0.00     0.013 A 
ATOM     15  N   UNL d   1      32.785  18.743 -22.110  0.00  0.00    -0.214 NA
ATOM     16  S   UNL d   1      32.285  17.443 -22.728  0.00  0.00    -0.068 SA
ATOM     17  C   UNL d   1      32.041  17.243 -23.508  0.00  0.00     0.031 A 
ATOM     18  C   UNL d   1      31.776  16.516 -23.794  0.00  0.00     0.006 A 
ATOM     19  C   UNL d   1      31.563  16.467 -24.608  0.00  0.00     0.001 A 
ATOM     20  C   UNL d   1      31.629  17.151 -25.083  0.00  0.00     0.000 A 
ATOM     21  C   UNL d   1      31.901  17.874 -24.765  0.00  0.00     0.001 A 
ENDBRANCH   7   8
ENDBRANCH   6   7
ENDBRANCH   3   6
BRANCH   1  22
ATOM     22  C   UNL d   1      32.715  22.537 -21.403  0.00  0.00     0.067 A 
ATOM     23  C   UNL d   1      32.041  23.013 -21.342  0.00  0.00     0.018 A 
ATOM     24  C   UNL d   1      31.844  23.527 -21.945  0.00  0.00     0.002 A 
ATOM     25  C   UNL d   1      32.312  23.578 -22.618  0.00  0.00     0.000 A 
ATOM     26  C   UNL d   1      32.975  23.117 -22.691  0.00  0.00     0.002 A 
ATOM     27  C   UNL d   1      33.179  22.594 -22.081  0.00  0.00     0.018 A 
ENDBRANCH   1  22
BRANCH   2  28
ATOM     28  S   UNL d   1      32.971  23.018 -19.710  0.00  0.00    -0.042 SA
BRANCH  28  29
ATOM     29  C   UNL d   1      33.231  23.179 -18.967  0.00  0.00     0.107 C 
BRANCH  29  30
ATOM     30  C   UNL d   1      32.698  23.325 -18.359  0.00  0.00     0.307 C 
ATOM     31  O   UNL d   1      31.893  23.397 -18.533  0.00  0.00    -0.258 OA
BRANCH  30  32
ATOM     32  O   UNL d   1      32.937  23.404 -17.582  0.00  0.00    -0.271 OA
BRANCH  32  33
ATOM     33  C   UNL d   1      32.415  23.425 -16.959  0.00  0.00     0.126 C 
ATOM     34  C   UNL d   1      32.476  22.957 -16.321  0.00  0.00     0.029 C 
ENDBRANCH  32  33
ENDBRANCH  30  32
ENDBRANCH  29  30
ENDBRANCH  28  29
ENDBRANCH   2  28
TORSDOF 9
ENDMDL
