MODEL 1
REMARK VINA RESULT:      -6.3      0.000      0.000
REMARK  6 active torsions:
REMARK  status: ('A' for Active; 'I' for Inactive)
REMARK    1  A    between atoms: C_7  and  C_3 
REMARK    2  A    between atoms: C_6  and  O_14 
REMARK    3  A    between atoms: S_8  and  C_7 
REMARK    4  A    between atoms: C_17  and  S_8 
REMARK    5  A    between atoms: O_14  and  C_18 
REMARK    6  A    between atoms: C_18  and  C_17 
ROOT
ATOM      1  S   UNL d   1     -46.918  13.180  22.989  0.00  0.00    -0.081 SA
ENDROOT
BRANCH   1   2
ATOM      2  C   UNL d   1     -46.145  12.913  22.900  0.00  0.00     0.074 C 
BRANCH   2   3
ATOM      3  C   UNL d   1     -45.944  12.153  23.141  0.00  0.00     0.169 A 
ATOM      4  N   UNL d   1     -46.088  11.393  23.460  0.00  0.00    -0.225 NA
ATOM      5  C   UNL d   1     -45.365  10.969  23.456  0.00  0.00     0.101 A 
ATOM      6  C   UNL d   1     -44.784  11.472  23.134  0.00  0.00     0.101 A 
ATOM      7  C   UNL d   1     -45.150  10.204  23.696  0.00  0.00     0.021 A 
ATOM      8  N   UNL d   1     -45.133  12.204  22.937  0.00  0.00    -0.225 NA
ATOM      9  C   UNL d   1     -44.000  11.200  23.058  0.00  0.00     0.021 A 
ATOM     10  C   UNL d   1     -43.804  10.445  23.298  0.00  0.00     0.002 A 
ATOM     11  C   UNL d   1     -44.379   9.947  23.617  0.00  0.00     0.002 A 
ENDBRANCH   2   3
ENDBRANCH   1   2
BRANCH   1  12
ATOM     12  C   UNL d   1     -47.092  13.978  22.884  0.00  0.00     0.062 C 
BRANCH  12  13
ATOM     13  C   UNL d   1     -47.874  14.222  22.801  0.00  0.00     0.130 C 
BRANCH  13  14
ATOM     14  O   UNL d   1     -48.151  14.451  22.059  0.00  0.00    -0.305 OA
BRANCH  14  15
ATOM     15  C   UNL d   1     -48.869  14.663  22.406  0.00  0.00     0.100 A 
ATOM     16  C   UNL d   1     -48.902  15.292  22.925  0.00  0.00     0.025 A 
ATOM     17  C   UNL d   1     -49.618  15.507  23.275  0.00  0.00     0.002 A 
ATOM     18  C   UNL d   1     -50.300  15.086  23.099  0.00  0.00     0.000 A 
ATOM     19  C   UNL d   1     -50.264  14.448  22.572  0.00  0.00     0.002 A 
ATOM     20  C   UNL d   1     -51.018  15.297  23.446  0.00  0.00     0.000 C 
ATOM     21  C   UNL d   1     -49.544  14.240  22.227  0.00  0.00     0.025 A 
ENDBRANCH  14  15
ENDBRANCH  13  14
ENDBRANCH  12  13
ENDBRANCH   1  12
TORSDOF 6
ENDMDL
MODEL 2
REMARK VINA RESULT:      -6.2      1.616      1.924
REMARK  6 active torsions:
REMARK  status: ('A' for Active; 'I' for Inactive)
REMARK    1  A    between atoms: C_7  and  C_3 
REMARK    2  A    between atoms: C_6  and  O_14 
REMARK    3  A    between atoms: S_8  and  C_7 
REMARK    4  A    between atoms: C_17  and  S_8 
REMARK    5  A    between atoms: O_14  and  C_18 
REMARK    6  A    between atoms: C_18  and  C_17 
ROOT
ATOM      1  S   UNL d   1     -47.442  11.968  23.379  0.00  0.00    -0.081 SA
ENDROOT
BRANCH   1   2
ATOM      2  C   UNL d   1     -46.851  11.490  23.694  0.00  0.00     0.074 C 
BRANCH   2   3
ATOM      3  C   UNL d   1     -46.078  11.560  23.420  0.00  0.00     0.169 A 
ATOM      4  N   UNL d   1     -45.438  11.939  23.037  0.00  0.00    -0.225 NA
ATOM      5  C   UNL d   1     -44.774  11.429  23.077  0.00  0.00     0.101 A 
ATOM      6  C   UNL d   1     -45.012  10.742  23.483  0.00  0.00     0.101 A 
ATOM      7  C   UNL d   1     -43.991  11.488  22.806  0.00  0.00     0.021 A 
ATOM      8  N   UNL d   1     -45.816  10.814  23.698  0.00  0.00    -0.225 NA
ATOM      9  C   UNL d   1     -44.464  10.127  23.610  0.00  0.00     0.021 A 
ATOM     10  C   UNL d   1     -43.698  10.200  23.337  0.00  0.00     0.002 A 
ATOM     11  C   UNL d   1     -43.462  10.880  22.935  0.00  0.00     0.002 A 
ENDBRANCH   2   3
ENDBRANCH   1   2
BRANCH   1  12
ATOM     12  C   UNL d   1     -48.203  11.939  23.692  0.00  0.00     0.062 C 
BRANCH  12  13
ATOM     13  C   UNL d   1     -48.844  12.184  23.236  0.00  0.00     0.130 C 
BRANCH  13  14
ATOM     14  O   UNL d   1     -49.490  11.679  23.142  0.00  0.00    -0.305 OA
BRANCH  14  15
ATOM     15  C   UNL d   1     -49.882  12.279  22.732  0.00  0.00     0.100 A 
ATOM     16  C   UNL d   1     -50.284  12.859  23.141  0.00  0.00     0.025 A 
ATOM     17  C   UNL d   1     -50.677  13.460  22.735  0.00  0.00     0.002 A 
ATOM     18  C   UNL d   1     -50.664  13.474  21.915  0.00  0.00     0.000 A 
ATOM     19  C   UNL d   1     -50.255  12.885  21.502  0.00  0.00     0.002 A 
ATOM     20  C   UNL d   1     -51.056  14.073  21.505  0.00  0.00     0.000 C 
ATOM     21  C   UNL d   1     -49.865  12.287  21.916  0.00  0.00     0.025 A 
ENDBRANCH  14  15
ENDBRANCH  13  14
ENDBRANCH  12  13
ENDBRANCH   1  12
TORSDOF 6
ENDMDL
MODEL 3
REMARK VINA RESULT:      -5.5      1.859      2.364
REMARK  6 active torsions:
REMARK  status: ('A' for Active; 'I' for Inactive)
REMARK    1  A    between atoms: C_7  and  C_3 
REMARK    2  A    between atoms: C_6  and  O_14 
REMARK    3  A    between atoms: S_8  and  C_7 
REMARK    4  A    between atoms: C_17  and  S_8 
REMARK    5  A    between atoms: O_14  and  C_18 
REMARK    6  A    between atoms: C_18  and  C_17 
ROOT
ATOM      1  S   UNL d   1     -47.027  12.484  23.387  0.00  0.00    -0.081 SA
ENDROOT
BRANCH   1   2
ATOM      2  C   UNL d   1     -46.254  12.204  23.352  0.00  0.00     0.074 C 
BRANCH   2   3
ATOM      3  C   UNL d   1     -45.715  12.550  22.836  0.00  0.00     0.169 A 
ATOM      4  N   UNL d   1     -45.446  13.125  22.290  0.00  0.00    -0.225 NA
ATOM      5  C   UNL d   1     -44.669  12.916  22.057  0.00  0.00     0.101 A 
ATOM      6  C   UNL d   1     -44.468  12.216  22.461  0.00  0.00     0.101 A 
ATOM      7  C   UNL d   1     -44.117  13.257  21.538  0.00  0.00     0.021 A 
ATOM      8  N   UNL d   1     -45.108  11.984  22.944  0.00  0.00    -0.225 NA
ATOM      9  C   UNL d   1     -43.719  11.870  22.340  0.00  0.00     0.021 A 
ATOM     10  C   UNL d   1     -43.187  12.217  21.828  0.00  0.00     0.002 A 
ATOM     11  C   UNL d   1     -43.386  12.910  21.427  0.00  0.00     0.002 A 
ENDBRANCH   2   3
ENDBRANCH   1   2
BRANCH   1  12
ATOM     12  C   UNL d   1     -47.644  11.968  23.562  0.00  0.00     0.062 C 
BRANCH  12  13
ATOM     13  C   UNL d   1     -48.412  12.152  23.330  0.00  0.00     0.130 C 
BRANCH  13  14
ATOM     14  O   UNL d   1     -49.002  11.578  23.391  0.00  0.00    -0.305 OA
BRANCH  14  15
ATOM     15  C   UNL d   1     -49.518  12.086  22.995  0.00  0.00     0.100 A 
ATOM     16  C   UNL d   1     -49.601  12.036  22.185  0.00  0.00     0.025 A 
ATOM     17  C   UNL d   1     -50.116  12.542  21.785  0.00  0.00     0.002 A 
ATOM     18  C   UNL d   1     -50.548  13.099  22.205  0.00  0.00     0.000 A 
ATOM     19  C   UNL d   1     -50.463  13.147  23.028  0.00  0.00     0.002 A 
ATOM     20  C   UNL d   1     -51.064  13.606  21.811  0.00  0.00     0.000 C 
ATOM     21  C   UNL d   1     -49.946  12.638  23.419  0.00  0.00     0.025 A 
ENDBRANCH  14  15
ENDBRANCH  13  14
ENDBRANCH  12  13
ENDBRANCH   1  12
TORSDOF 6
ENDMDL
MODEL 4
REMARK VINA RESULT:      -5.3      8.011      9.236
REMARK  6 active torsions:
REMARK  status: ('A' for Active; 'I' for Inactive)
REMARK    1  A    between atoms: C_7  and  C_3 
REMARK    2  A    between atoms: C_6  and  O_14 
REMARK    3  A    between atoms: S_8  and  C_7 
REMARK    4  A    between atoms: C_17  and  S_8 
REMARK    5  A    between atoms: O_14  and  C_18 
REMARK    6  A    between atoms: C_18  and  C_17 
ROOT
ATOM      1  S   UNL d   1     -40.294  14.772  20.072  0.00  0.00    -0.081 SA
ENDROOT
BRANCH   1   2
ATOM      2  C   UNL d   1     -40.111  14.448  20.806  0.00  0.00     0.074 C 
BRANCH   2   3
ATOM      3  C   UNL d   1     -39.759  14.916  21.384  0.00  0.00     0.169 A 
ATOM      4  N   UNL d   1     -39.546  15.635  21.756  0.00  0.00    -0.225 NA
ATOM      5  C   UNL d   1     -39.105  15.450  22.444  0.00  0.00     0.101 A 
ATOM      6  C   UNL d   1     -39.051  14.620  22.489  0.00  0.00     0.101 A 
ATOM      7  C   UNL d   1     -38.746  15.912  23.034  0.00  0.00     0.021 A 
ATOM      8  N   UNL d   1     -39.452  14.283  21.839  0.00  0.00    -0.225 NA
ATOM      9  C   UNL d   1     -38.640  14.267  23.123  0.00  0.00     0.021 A 
ATOM     10  C   UNL d   1     -38.292  14.734  23.694  0.00  0.00     0.002 A 
ATOM     11  C   UNL d   1     -38.346  15.556  23.650  0.00  0.00     0.002 A 
ENDBRANCH   2   3
ENDBRANCH   1   2
BRANCH   1  12
ATOM     12  C   UNL d   1     -40.617  14.297  19.482  0.00  0.00     0.062 C 
BRANCH  12  13
ATOM     13  C   UNL d   1     -40.376  14.392  18.701  0.00  0.00     0.130 C 
BRANCH  13  14
ATOM     14  O   UNL d   1     -40.800  14.019  18.099  0.00  0.00    -0.305 OA
BRANCH  14  15
ATOM     15  C   UNL d   1     -40.220  14.256  17.562  0.00  0.00     0.100 A 
ATOM     16  C   UNL d   1     -40.281  14.978  17.185  0.00  0.00     0.025 A 
ATOM     17  C   UNL d   1     -39.703  15.218  16.648  0.00  0.00     0.002 A 
ATOM     18  C   UNL d   1     -39.063  14.729  16.491  0.00  0.00     0.000 A 
ATOM     19  C   UNL d   1     -39.003  13.997  16.874  0.00  0.00     0.002 A 
ATOM     20  C   UNL d   1     -38.483  14.965  15.954  0.00  0.00     0.000 C 
ATOM     21  C   UNL d   1     -39.585  13.765  17.410  0.00  0.00     0.025 A 
ENDBRANCH  14  15
ENDBRANCH  13  14
ENDBRANCH  12  13
ENDBRANCH   1  12
TORSDOF 6
ENDMDL
MODEL 5
REMARK VINA RESULT:      -5.0      8.087      9.745
REMARK  6 active torsions:
REMARK  status: ('A' for Active; 'I' for Inactive)
REMARK    1  A    between atoms: C_7  and  C_3 
REMARK    2  A    between atoms: C_6  and  O_14 
REMARK    3  A    between atoms: S_8  and  C_7 
REMARK    4  A    between atoms: C_17  and  S_8 
REMARK    5  A    between atoms: O_14  and  C_18 
REMARK    6  A    between atoms: C_18  and  C_17 
ROOT
ATOM      1  S   UNL d   1     -40.013  14.843  18.704  0.00  0.00    -0.081 SA
ENDROOT
BRANCH   1   2
ATOM      2  C   UNL d   1     -39.953  14.434  17.993  0.00  0.00     0.074 C 
BRANCH   2   3
ATOM      3  C   UNL d   1     -39.520  14.754  17.371  0.00  0.00     0.169 A 
ATOM      4  N   UNL d   1     -39.202  15.372  16.904  0.00  0.00    -0.225 NA
ATOM      5  C   UNL d   1     -38.758  15.024  16.284  0.00  0.00     0.101 A 
ATOM      6  C   UNL d   1     -38.808  14.198  16.376  0.00  0.00     0.101 A 
ATOM      7  C   UNL d   1     -38.319  15.336  15.652  0.00  0.00     0.021 A 
ATOM      8  N   UNL d   1     -39.276  14.023  17.044  0.00  0.00    -0.225 NA
ATOM      9  C   UNL d   1     -38.416  13.699  15.834  0.00  0.00     0.021 A 
ATOM     10  C   UNL d   1     -37.988  14.020  15.219  0.00  0.00     0.002 A 
ATOM     11  C   UNL d   1     -37.940  14.839  15.127  0.00  0.00     0.002 A 
ENDBRANCH   2   3
ENDBRANCH   1   2
BRANCH   1  12
ATOM     12  C   UNL d   1     -40.465  14.534  19.319  0.00  0.00     0.062 C 
BRANCH  12  13
ATOM     13  C   UNL d   1     -40.295  14.740  20.098  0.00  0.00     0.130 C 
BRANCH  13  14
ATOM     14  O   UNL d   1     -40.852  14.588  20.688  0.00  0.00    -0.305 OA
BRANCH  14  15
ATOM     15  C   UNL d   1     -40.310  14.854  21.250  0.00  0.00     0.100 A 
ATOM     16  C   UNL d   1     -39.808  14.326  21.617  0.00  0.00     0.025 A 
ATOM     17  C   UNL d   1     -39.264  14.588  22.180  0.00  0.00     0.002 A 
ATOM     18  C   UNL d   1     -39.229  15.385  22.372  0.00  0.00     0.000 A 
ATOM     19  C   UNL d   1     -39.739  15.919  21.998  0.00  0.00     0.002 A 
ATOM     20  C   UNL d   1     -38.687  15.652  22.934  0.00  0.00     0.000 C 
ATOM     21  C   UNL d   1     -40.280  15.648  21.437  0.00  0.00     0.025 A 
ENDBRANCH  14  15
ENDBRANCH  13  14
ENDBRANCH  12  13
ENDBRANCH   1  12
TORSDOF 6
ENDMDL
MODEL 6
REMARK VINA RESULT:      -4.8      3.772      6.240
REMARK  6 active torsions:
REMARK  status: ('A' for Active; 'I' for Inactive)
REMARK    1  A    between atoms: C_7  and  C_3 
REMARK    2  A    between atoms: C_6  and  O_14 
REMARK    3  A    between atoms: S_8  and  C_7 
REMARK    4  A    between atoms: C_17  and  S_8 
REMARK    5  A    between atoms: O_14  and  C_18 
REMARK    6  A    between atoms: C_18  and  C_17 
ROOT
ATOM      1  S   UNL d   1     -43.585  13.277  21.441  0.00  0.00    -0.081 SA
ENDROOT
BRANCH   1   2
ATOM      2  C   UNL d   1     -44.101  12.787  21.855  0.00  0.00     0.074 C 
BRANCH   2   3
ATOM      3  C   UNL d   1     -44.830  13.076  22.102  0.00  0.00     0.169 A 
ATOM      4  N   UNL d   1     -45.439  13.646  22.171  0.00  0.00    -0.225 NA
ATOM      5  C   UNL d   1     -46.059  13.310  22.624  0.00  0.00     0.101 A 
ATOM      6  C   UNL d   1     -45.825  12.537  22.829  0.00  0.00     0.101 A 
ATOM      7  C   UNL d   1     -46.798  13.590  22.879  0.00  0.00     0.021 A 
ATOM      8  N   UNL d   1     -45.068  12.385  22.511  0.00  0.00    -0.225 NA
ATOM      9  C   UNL d   1     -46.334  12.060  23.286  0.00  0.00     0.021 A 
ATOM     10  C   UNL d   1     -47.057  12.350  23.529  0.00  0.00     0.002 A 
ATOM     11  C   UNL d   1     -47.288  13.115  23.326  0.00  0.00     0.002 A 
ENDBRANCH   2   3
ENDBRANCH   1   2
BRANCH   1  12
ATOM     12  C   UNL d   1     -42.808  13.038  21.311  0.00  0.00     0.062 C 
BRANCH  12  13
ATOM     13  C   UNL d   1     -42.235  13.595  21.112  0.00  0.00     0.130 C 
BRANCH  13  14
ATOM     14  O   UNL d   1     -41.730  13.447  20.477  0.00  0.00    -0.305 OA
BRANCH  14  15
ATOM     15  C   UNL d   1     -41.248  14.066  20.732  0.00  0.00     0.100 A 
ATOM     16  C   UNL d   1     -41.410  14.832  20.501  0.00  0.00     0.025 A 
ATOM     17  C   UNL d   1     -40.931  15.455  20.754  0.00  0.00     0.002 A 
ATOM     18  C   UNL d   1     -40.288  15.303  21.240  0.00  0.00     0.000 A 
ATOM     19  C   UNL d   1     -40.126  14.525  21.474  0.00  0.00     0.002 A 
ATOM     20  C   UNL d   1     -39.806  15.922  21.496  0.00  0.00     0.000 C 
ATOM     21  C   UNL d   1     -40.610  13.909  21.216  0.00  0.00     0.025 A 
ENDBRANCH  14  15
ENDBRANCH  13  14
ENDBRANCH  12  13
ENDBRANCH   1  12
TORSDOF 6
ENDMDL
MODEL 7
REMARK VINA RESULT:      -4.2      1.545      5.623
REMARK  6 active torsions:
REMARK  status: ('A' for Active; 'I' for Inactive)
REMARK    1  A    between atoms: C_7  and  C_3 
REMARK    2  A    between atoms: C_6  and  O_14 
REMARK    3  A    between atoms: S_8  and  C_7 
REMARK    4  A    between atoms: C_17  and  S_8 
REMARK    5  A    between atoms: O_14  and  C_18 
REMARK    6  A    between atoms: C_18  and  C_17 
ROOT
ATOM      1  S   UNL d   1     -47.072  13.418  22.650  0.00  0.00    -0.081 SA
ENDROOT
BRANCH   1   2
ATOM      2  C   UNL d   1     -47.535  14.038  22.929  0.00  0.00     0.074 C 
BRANCH   2   3
ATOM      3  C   UNL d   1     -48.353  14.005  22.854  0.00  0.00     0.169 A 
ATOM      4  N   UNL d   1     -49.086  13.647  22.666  0.00  0.00    -0.225 NA
ATOM      5  C   UNL d   1     -49.694  14.203  22.823  0.00  0.00     0.101 A 
ATOM      6  C   UNL d   1     -49.329  14.896  23.106  0.00  0.00     0.101 A 
ATOM      7  C   UNL d   1     -50.521  14.181  22.751  0.00  0.00     0.021 A 
ATOM      8  N   UNL d   1     -48.502  14.782  23.128  0.00  0.00    -0.225 NA
ATOM      9  C   UNL d   1     -49.798  15.554  23.311  0.00  0.00     0.021 A 
ATOM     10  C   UNL d   1     -50.609  15.518  23.235  0.00  0.00     0.002 A 
ATOM     11  C   UNL d   1     -50.970  14.831  22.955  0.00  0.00     0.002 A 
ENDBRANCH   2   3
ENDBRANCH   1   2
BRANCH   1  12
ATOM     12  C   UNL d   1     -46.251  13.484  22.655  0.00  0.00     0.062 C 
BRANCH  12  13
ATOM     13  C   UNL d   1     -45.784  12.806  22.629  0.00  0.00     0.130 C 
BRANCH  13  14
ATOM     14  O   UNL d   1     -45.035  12.843  22.286  0.00  0.00    -0.305 OA
BRANCH  14  15
ATOM     15  C   UNL d   1     -44.851  12.121  22.640  0.00  0.00     0.100 A 
ATOM     16  C   UNL d   1     -44.092  11.824  22.595  0.00  0.00     0.025 A 
ATOM     17  C   UNL d   1     -43.905  11.102  22.947  0.00  0.00     0.002 A 
ATOM     18  C   UNL d   1     -44.486  10.679  23.344  0.00  0.00     0.000 A 
ATOM     19  C   UNL d   1     -45.255  10.982  23.388  0.00  0.00     0.002 A 
ATOM     20  C   UNL d   1     -44.303   9.956  23.698  0.00  0.00     0.000 C 
ATOM     21  C   UNL d   1     -45.434  11.705  23.033  0.00  0.00     0.025 A 
ENDBRANCH  14  15
ENDBRANCH  13  14
ENDBRANCH  12  13
ENDBRANCH   1  12
TORSDOF 6
ENDMDL
