MODEL 1
REMARK VINA RESULT:      34.5      0.000      0.000
REMARK  5 active torsions:
REMARK  status: ('A' for Active; 'I' for Inactive)
REMARK    1  A    between atoms: N_6  and  C_1 
REMARK    2  A    between atoms: S_10  and  C_4 
REMARK       I    between atoms: C_7  and  N_6 
REMARK       I    between atoms: N_8  and  C_7 
REMARK    3  A    between atoms: C_11  and  N_8 
REMARK    4  A    between atoms: C_17  and  S_10 
REMARK    5  A    between atoms: C_19  and  C_17 
ROOT
ATOM      1  N   UNL d   1      13.287  12.606  -3.613  0.00  0.00    -0.321 NA
ATOM      2  C   UNL d   1      13.243  12.240  -3.009  0.00  0.00     0.422 C 
ATOM      3  N   UNL d   1      13.166  11.779  -2.269  0.00  0.00    -0.180 NA
ATOM      4  O   UNL d   1      13.863  12.484  -2.794  0.00  0.00    -0.228 OA
ENDROOT
BRANCH   1   5
ATOM      5  C   UNL d   1      13.185  12.984  -4.391  0.00  0.00     0.271 A 
ATOM      6  S   UNL d   1      13.290  13.624  -4.671  0.00  0.00    -0.006 SA
ATOM      7  C   UNL d   1      13.135  13.730  -5.359  0.00  0.00     0.166 A 
ATOM      8  N   UNL d   1      12.881  13.200  -5.754  0.00  0.00    -0.132 NA
ATOM      9  N   UNL d   1      12.930  12.454  -4.786  0.00  0.00    -0.107 NA
BRANCH   7  10
ATOM     10  S   UNL d   1      13.195  14.327  -5.763  0.00  0.00    -0.059 SA
BRANCH  10  11
ATOM     11  C   UNL d   1      13.744  14.906  -5.563  0.00  0.00     0.037 C 
BRANCH  11  12
ATOM     12  C   UNL d   1      13.985  15.452  -6.126  0.00  0.00     0.007 C 
ATOM     13  C   UNL d   1      14.516  16.045  -5.929  0.00  0.00     0.001 C 
ENDBRANCH  11  12
ENDBRANCH  10  11
ENDBRANCH   7  10
ENDBRANCH   1   5
BRANCH   3  14
ATOM     14  C   UNL d   1      13.770  11.815  -1.700  0.00  0.00     0.087 A 
ATOM     15  C   UNL d   1      14.559  11.835  -1.945  0.00  0.00     0.019 A 
ATOM     16  C   UNL d   1      15.162  11.870  -1.383  0.00  0.00     0.002 A 
ATOM     17  C   UNL d   1      14.965  11.885  -0.576  0.00  0.00     0.000 A 
ATOM     18  C   UNL d   1      14.175  11.865  -0.337  0.00  0.00     0.002 A 
ATOM     19  C   UNL d   1      15.568  11.920  -0.014  0.00  0.00     0.000 C 
ATOM     20  C   UNL d   1      13.570  11.829  -0.906  0.00  0.00     0.019 A 
ENDBRANCH   3  14
TORSDOF 5
ENDMDL
MODEL 2
REMARK VINA RESULT:      35.6      3.593      4.926
REMARK  5 active torsions:
REMARK  status: ('A' for Active; 'I' for Inactive)
REMARK    1  A    between atoms: N_6  and  C_1 
REMARK    2  A    between atoms: S_10  and  C_4 
REMARK       I    between atoms: C_7  and  N_6 
REMARK       I    between atoms: N_8  and  C_7 
REMARK    3  A    between atoms: C_11  and  N_8 
REMARK    4  A    between atoms: C_17  and  S_10 
REMARK    5  A    between atoms: C_19  and  C_17 
ROOT
ATOM      1  N   UNL d   1      14.897  14.177  -0.563  0.00  0.00    -0.321 NA
ATOM      2  C   UNL d   1      15.100  14.813  -0.328  0.00  0.00     0.422 C 
ATOM      3  N   UNL d   1      15.355  15.589  -0.014  0.00  0.00    -0.180 NA
ATOM      4  O   UNL d   1      14.985  15.102  -0.955  0.00  0.00    -0.228 OA
ENDROOT
BRANCH   1   5
ATOM      5  C   UNL d   1      14.683  13.342  -0.688  0.00  0.00     0.271 A 
ATOM      6  S   UNL d   1      14.292  12.974  -1.148  0.00  0.00    -0.006 SA
ATOM      7  C   UNL d   1      14.244  12.267  -1.071  0.00  0.00     0.166 A 
ATOM      8  N   UNL d   1      14.583  11.940  -0.543  0.00  0.00    -0.132 NA
ATOM      9  N   UNL d   1      15.022  13.016  -0.160  0.00  0.00    -0.107 NA
BRANCH   7  10
ATOM     10  S   UNL d   1      13.883  11.779  -1.466  0.00  0.00    -0.059 SA
BRANCH  10  11
ATOM     11  C   UNL d   1      13.399  12.027  -2.083  0.00  0.00     0.037 C 
BRANCH  11  12
ATOM     12  C   UNL d   1      13.585  11.823  -2.856  0.00  0.00     0.007 C 
ATOM     13  C   UNL d   1      13.032  11.913  -3.455  0.00  0.00     0.001 C 
ENDBRANCH  11  12
ENDBRANCH  10  11
ENDBRANCH   7  10
ENDBRANCH   1   5
BRANCH   3  14
ATOM     14  C   UNL d   1      15.356  16.252  -0.515  0.00  0.00     0.087 A 
ATOM     15  C   UNL d   1      15.773  16.930  -0.292  0.00  0.00     0.019 A 
ATOM     16  C   UNL d   1      15.776  17.589  -0.787  0.00  0.00     0.002 A 
ATOM     17  C   UNL d   1      15.358  17.562  -1.505  0.00  0.00     0.000 A 
ATOM     18  C   UNL d   1      14.943  16.882  -1.722  0.00  0.00     0.002 A 
ATOM     19  C   UNL d   1      15.362  18.222  -1.999  0.00  0.00     0.000 C 
ATOM     20  C   UNL d   1      14.942  16.219  -1.220  0.00  0.00     0.019 A 
ENDBRANCH   3  14
TORSDOF 5
ENDMDL
