MODEL 1
REMARK VINA RESULT:      64.3      0.000      0.000
REMARK  5 active torsions:
REMARK  status: ('A' for Active; 'I' for Inactive)
REMARK    1  A    between atoms: C_6  and  N_1 
REMARK    2  A    between atoms: C_7  and  C_3 
REMARK    3  A    between atoms: C_10  and  C_7 
REMARK    4  A    between atoms: C_16  and  C_8 
REMARK    5  A    between atoms: C_14  and  C_18 
ROOT
ATOM      1  N   UNL d   1     -50.744  25.966  33.307  0.00  0.00    -0.252 N 
ATOM      2  C   UNL d   1     -51.087  26.711  33.307  0.00  0.00     0.203 A 
ATOM      3  C   UNL d   1     -49.768  26.867  33.306  0.00  0.00     0.091 A 
ATOM      4  C   UNL d   1     -49.927  26.058  33.306  0.00  0.00     0.272 A 
ATOM      5  S   UNL d   1     -50.488  27.269  33.307  0.00  0.00    -0.043 SA
ATOM      6  N   UNL d   1     -51.902  26.871  33.308  0.00  0.00    -0.121 N 
ATOM      7  O   UNL d   1     -49.368  25.457  33.306  0.00  0.00    -0.266 OA
ENDROOT
BRANCH   3   8
ATOM      8  C   UNL d   1     -49.021  27.218  33.306  0.00  0.00     0.036 C 
BRANCH   8   9
ATOM      9  C   UNL d   1     -48.909  27.979  33.618  0.00  0.00     0.101 A 
ATOM     10  O   UNL d   1     -48.449  28.157  34.280  0.00  0.00    -0.307 OA
ATOM     11  C   UNL d   1     -48.482  28.977  34.405  0.00  0.00     0.100 A 
ATOM     12  C   UNL d   1     -48.968  29.298  33.812  0.00  0.00     0.027 A 
ATOM     13  C   UNL d   1     -49.226  28.677  33.332  0.00  0.00     0.027 A 
BRANCH  11  14
ATOM     14  C   UNL d   1     -48.107  29.391  35.001  0.00  0.00     0.023 A 
ATOM     15  C   UNL d   1     -48.028  30.206  34.957  0.00  0.00     0.008 A 
ATOM     16  C   UNL d   1     -47.646  30.618  35.567  0.00  0.00     0.065 A 
ATOM     17  C   UNL d   1     -47.349  30.222  36.207  0.00  0.00     0.006 A 
ATOM     18  C   UNL d   1     -47.419  29.405  36.267  0.00  0.00     0.000 A 
ATOM     19  C   UNL d   1     -47.803  28.995  35.654  0.00  0.00     0.002 A 
BRANCH  16  20
ATOM     20  C   UNL d   1     -47.569  31.457  35.513  0.00  0.00     0.211 C 
ATOM     21  O   UNL d   1     -48.236  31.933  35.549  0.00  0.00    -0.644 OA
ATOM     22  O   UNL d   1     -46.833  31.796  35.424  0.00  0.00    -0.644 OA
ENDBRANCH  16  20
ENDBRANCH  11  14
ENDBRANCH   8   9
ENDBRANCH   3   8
BRANCH   1  23
ATOM     23  C   UNL d   1     -51.154  25.245  33.307  0.00  0.00     0.071 A 
ATOM     24  C   UNL d   1     -51.984  25.244  33.308  0.00  0.00     0.044 A 
ATOM     25  C   UNL d   1     -52.404  24.521  33.308  0.00  0.00     0.121 A 
ATOM     26  O   UNL d   1     -53.217  24.360  33.310  0.00  0.00    -0.299 OA
ATOM     27  C   UNL d   1     -51.990  23.814  33.307  0.00  0.00     0.119 A 
ATOM     28  C   UNL d   1     -53.301  23.540  33.309  0.00  0.00     0.304 A 
ATOM     29  O   UNL d   1     -52.543  23.195  33.308  0.00  0.00    -0.300 OA
ATOM     30  C   UNL d   1     -51.170  23.807  33.306  0.00  0.00     0.028 A 
ATOM     31  C   UNL d   1     -50.749  24.526  33.306  0.00  0.00     0.020 A 
ENDBRANCH   1  23
TORSDOF 5
ENDMDL
MODEL 2
REMARK VINA RESULT:      65.9      0.889      1.343
REMARK  5 active torsions:
REMARK  status: ('A' for Active; 'I' for Inactive)
REMARK    1  A    between atoms: C_6  and  N_1 
REMARK    2  A    between atoms: C_7  and  C_3 
REMARK    3  A    between atoms: C_10  and  C_7 
REMARK    4  A    between atoms: C_16  and  C_8 
REMARK    5  A    between atoms: C_14  and  C_18 
ROOT
ATOM      1  N   UNL d   1     -50.464  26.556  33.637  0.00  0.00    -0.252 N 
ATOM      2  C   UNL d   1     -50.686  27.338  33.524  0.00  0.00     0.203 A 
ATOM      3  C   UNL d   1     -49.402  27.322  33.863  0.00  0.00     0.091 A 
ATOM      4  C   UNL d   1     -49.670  26.542  33.848  0.00  0.00     0.272 A 
ATOM      5  S   UNL d   1     -50.034  27.812  33.662  0.00  0.00    -0.043 SA
ATOM      6  N   UNL d   1     -51.443  27.601  33.305  0.00  0.00    -0.121 N 
ATOM      7  O   UNL d   1     -49.220  25.876  34.014  0.00  0.00    -0.266 OA
ENDROOT
BRANCH   3   8
ATOM      8  C   UNL d   1     -48.638  27.573  34.047  0.00  0.00     0.036 C 
BRANCH   8   9
ATOM      9  C   UNL d   1     -48.512  28.200  34.577  0.00  0.00     0.101 A 
ATOM     10  O   UNL d   1     -48.082  28.885  34.409  0.00  0.00    -0.307 OA
ATOM     11  C   UNL d   1     -48.089  29.367  35.084  0.00  0.00     0.100 A 
ATOM     12  C   UNL d   1     -48.529  28.970  35.667  0.00  0.00     0.027 A 
ATOM     13  C   UNL d   1     -48.785  28.253  35.346  0.00  0.00     0.027 A 
BRANCH  11  14
ATOM     14  C   UNL d   1     -47.731  30.097  35.160  0.00  0.00     0.023 A 
ATOM     15  C   UNL d   1     -48.012  30.745  34.744  0.00  0.00     0.008 A 
ATOM     16  C   UNL d   1     -47.642  31.483  34.827  0.00  0.00     0.065 A 
ATOM     17  C   UNL d   1     -47.004  31.569  35.319  0.00  0.00     0.006 A 
ATOM     18  C   UNL d   1     -46.710  30.929  35.743  0.00  0.00     0.000 A 
ATOM     19  C   UNL d   1     -47.083  30.192  35.657  0.00  0.00     0.002 A 
BRANCH  16  20
ATOM     20  C   UNL d   1     -47.938  32.144  34.395  0.00  0.00     0.211 C 
ATOM     21  O   UNL d   1     -47.663  32.900  34.560  0.00  0.00    -0.644 OA
ATOM     22  O   UNL d   1     -48.498  32.035  33.812  0.00  0.00    -0.644 OA
ENDBRANCH  16  20
ENDBRANCH  11  14
ENDBRANCH   8   9
ENDBRANCH   3   8
BRANCH   1  23
ATOM     23  C   UNL d   1     -50.959  25.896  33.553  0.00  0.00     0.071 A 
ATOM     24  C   UNL d   1     -50.628  25.136  33.521  0.00  0.00     0.044 A 
ATOM     25  C   UNL d   1     -51.119  24.465  33.437  0.00  0.00     0.121 A 
ATOM     26  O   UNL d   1     -50.942  23.657  33.391  0.00  0.00    -0.299 OA
ATOM     27  C   UNL d   1     -51.931  24.565  33.386  0.00  0.00     0.119 A 
ATOM     28  C   UNL d   1     -51.657  23.256  33.310  0.00  0.00     0.304 A 
ATOM     29  O   UNL d   1     -52.276  23.814  33.306  0.00  0.00    -0.300 OA
ATOM     30  C   UNL d   1     -52.266  25.313  33.417  0.00  0.00     0.028 A 
ATOM     31  C   UNL d   1     -51.778  25.983  33.501  0.00  0.00     0.020 A 
ENDBRANCH   1  23
TORSDOF 5
ENDMDL
