MODEL 1
REMARK VINA RESULT:      51.6      0.000      0.000
REMARK  3 active torsions:
REMARK  status: ('A' for Active; 'I' for Inactive)
REMARK    1  A    between atoms: C_6  and  N_2 
REMARK    2  A    between atoms: C_7  and  C_6 
REMARK       I    between atoms: N_11  and  C_7 
REMARK    3  A    between atoms: C_14  and  N_11 
ROOT
ATOM      1  S   UNL d   1      58.468  49.702  49.859  0.00  0.00     0.274 S 
ATOM      2  N   UNL d   1      58.727  49.704  50.632  0.00  0.00    -0.192 N 
ATOM      3  C   UNL d   1      58.066  49.705  51.131  0.00  0.00     0.275 A 
ATOM      4  C   UNL d   1      57.405  49.704  50.649  0.00  0.00     0.069 A 
ATOM      5  C   UNL d   1      57.650  49.702  49.872  0.00  0.00     0.109 A 
ATOM      6  O   UNL d   1      59.283  49.703  49.994  0.00  0.00    -0.200 OA
ATOM      7  O   UNL d   1      58.460  49.701  49.027  0.00  0.00    -0.200 OA
ATOM      8  O   UNL d   1      58.066  49.707  51.948  0.00  0.00    -0.266 OA
ATOM      9  C   UNL d   1      56.600  49.704  50.831  0.00  0.00     0.005 A 
ATOM     10  C   UNL d   1      57.096  49.701  49.261  0.00  0.00     0.013 A 
ATOM     11  C   UNL d   1      56.043  49.703  50.219  0.00  0.00     0.000 A 
ATOM     12  C   UNL d   1      56.289  49.701  49.441  0.00  0.00     0.001 A 
ENDROOT
BRANCH   2  13
ATOM     13  C   UNL d   1      59.519  49.705  50.882  0.00  0.00     0.157 C 
BRANCH  13  14
ATOM     14  C   UNL d   1      59.906  48.994  50.994  0.00  0.00     0.298 C 
ATOM     15  N   UNL d   1      60.518  48.776  50.477  0.00  0.00    -0.207 NA
ATOM     16  O   UNL d   1      59.700  48.492  51.607  0.00  0.00    -0.264 OA
BRANCH  15  17
ATOM     17  C   UNL d   1      60.914  48.060  50.582  0.00  0.00     0.085 A 
ATOM     18  C   UNL d   1      60.842  47.667  51.290  0.00  0.00     0.019 A 
ATOM     19  C   UNL d   1      61.238  46.950  51.395  0.00  0.00     0.002 A 
ATOM     20  C   UNL d   1      61.697  46.643  50.793  0.00  0.00     0.000 A 
ATOM     21  C   UNL d   1      61.767  47.048  50.076  0.00  0.00     0.002 A 
ATOM     22  C   UNL d   1      61.380  47.748  49.971  0.00  0.00     0.019 A 
ENDBRANCH  15  17
ENDBRANCH  13  14
ENDBRANCH   2  13
TORSDOF 3
ENDMDL
MODEL 2
REMARK VINA RESULT:      51.7      0.688      1.322
REMARK  3 active torsions:
REMARK  status: ('A' for Active; 'I' for Inactive)
REMARK    1  A    between atoms: C_6  and  N_2 
REMARK    2  A    between atoms: C_7  and  C_6 
REMARK       I    between atoms: N_11  and  C_7 
REMARK    3  A    between atoms: C_14  and  N_11 
ROOT
ATOM      1  S   UNL d   1      58.340  49.706  51.086  0.00  0.00     0.274 S 
ATOM      2  N   UNL d   1      59.032  49.707  50.656  0.00  0.00    -0.192 N 
ATOM      3  C   UNL d   1      58.842  49.707  49.850  0.00  0.00     0.275 A 
ATOM      4  C   UNL d   1      58.025  49.707  49.799  0.00  0.00     0.069 A 
ATOM      5  C   UNL d   1      57.718  49.706  50.554  0.00  0.00     0.109 A 
ATOM      6  O   UNL d   1      59.052  49.706  51.502  0.00  0.00    -0.200 OA
ATOM      7  O   UNL d   1      57.802  49.706  51.721  0.00  0.00    -0.200 OA
ATOM      8  O   UNL d   1      59.363  49.708  49.221  0.00  0.00    -0.266 OA
ATOM      9  C   UNL d   1      57.521  49.707  49.145  0.00  0.00     0.005 A 
ATOM     10  C   UNL d   1      56.901  49.706  50.670  0.00  0.00     0.013 A 
ATOM     11  C   UNL d   1      56.702  49.707  49.261  0.00  0.00     0.000 A 
ATOM     12  C   UNL d   1      56.395  49.706  50.016  0.00  0.00     0.001 A 
ENDROOT
BRANCH   2  13
ATOM     13  C   UNL d   1      59.801  49.707  50.969  0.00  0.00     0.157 C 
BRANCH  13  14
ATOM     14  C   UNL d   1      60.338  49.145  50.716  0.00  0.00     0.298 C 
ATOM     15  N   UNL d   1      60.278  48.367  50.997  0.00  0.00    -0.207 NA
ATOM     16  O   UNL d   1      60.935  49.338  50.189  0.00  0.00    -0.264 OA
BRANCH  15  17
ATOM     17  C   UNL d   1      60.816  47.793  50.746  0.00  0.00     0.085 A 
ATOM     18  C   UNL d   1      61.127  47.277  51.292  0.00  0.00     0.019 A 
ATOM     19  C   UNL d   1      61.665  46.702  51.042  0.00  0.00     0.002 A 
ATOM     20  C   UNL d   1      61.880  46.657  50.255  0.00  0.00     0.000 A 
ATOM     21  C   UNL d   1      61.561  47.184  49.706  0.00  0.00     0.002 A 
ATOM     22  C   UNL d   1      61.035  47.746  49.948  0.00  0.00     0.019 A 
ENDBRANCH  15  17
ENDBRANCH  13  14
ENDBRANCH   2  13
TORSDOF 3
ENDMDL
