MODEL 1
REMARK VINA RESULT:      -4.2      0.000      0.000
REMARK  2 active torsions:
REMARK  status: ('A' for Active; 'I' for Inactive)
REMARK    1  A    between atoms: C_10  and  N_3 
REMARK    2  A    between atoms: C_11  and  C_4 
ROOT
ATOM      1  C   UNL d   1      58.280   0.288  31.458  0.00  0.00     0.152 A 
ATOM      2  C   UNL d   1      57.755   0.285  32.086  0.00  0.00     0.065 A 
ATOM      3  N   UNL d   1      57.866   0.072  30.776  0.00  0.00    -0.290 N 
ATOM      4  C   UNL d   1      57.011   0.067  31.798  0.00  0.00     0.023 A 
ATOM      5  C   UNL d   1      57.083  -0.063  30.993  0.00  0.00     0.082 A 
ATOM      6  N   UNL d   1      59.072   0.486  31.578  0.00  0.00    -0.206 NA
ATOM      7  C   UNL d   1      58.012   0.481  32.846  0.00  0.00     0.143 A 
ATOM      8  N   UNL d   1      58.804   0.679  32.966  0.00  0.00    -0.212 NA
ATOM      9  C   UNL d   1      59.330   0.682  32.338  0.00  0.00     0.201 A 
ATOM     10 CL   UNL d   1      57.486   0.478  33.474  0.00  0.00    -0.061 Cl
ENDROOT
BRANCH   3  11
ATOM     11  C   UNL d   1      58.140  -0.006  30.012  0.00  0.00     0.065 A 
ATOM     12  C   UNL d   1      58.532  -0.694  29.782  0.00  0.00     0.018 A 
ATOM     13  C   UNL d   1      58.810  -0.774  29.009  0.00  0.00     0.002 A 
ATOM     14  C   UNL d   1      58.695  -0.158  28.456  0.00  0.00     0.000 A 
ATOM     15  C   UNL d   1      58.301   0.527  28.696  0.00  0.00     0.002 A 
ATOM     16  C   UNL d   1      58.025   0.603  29.469  0.00  0.00     0.018 A 
ENDBRANCH   3  11
BRANCH   4  17
ATOM     17  C   UNL d   1      56.392   0.028  32.343  0.00  0.00     0.002 A 
ATOM     18  C   UNL d   1      56.269  -0.660  32.783  0.00  0.00     0.000 A 
ATOM     19  C   UNL d   1      55.650  -0.699  33.328  0.00  0.00     0.000 A 
ATOM     20  C   UNL d   1      55.154  -0.051  33.431  0.00  0.00     0.000 A 
ATOM     21  C   UNL d   1      55.277   0.638  32.990  0.00  0.00     0.000 A 
ATOM     22  C   UNL d   1      55.893   0.677  32.449  0.00  0.00     0.000 A 
ENDBRANCH   4  17
TORSDOF 2
ENDMDL
MODEL 2
REMARK VINA RESULT:      -4.0      0.863      3.636
REMARK  2 active torsions:
REMARK  status: ('A' for Active; 'I' for Inactive)
REMARK    1  A    between atoms: C_10  and  N_3 
REMARK    2  A    between atoms: C_11  and  C_4 
ROOT
ATOM      1  C   UNL d   1      57.839   0.291  32.083  0.00  0.00     0.152 A 
ATOM      2  C   UNL d   1      58.252   0.291  31.376  0.00  0.00     0.065 A 
ATOM      3  N   UNL d   1      57.057   0.075  31.925  0.00  0.00    -0.290 N 
ATOM      4  C   UNL d   1      57.728   0.076  30.773  0.00  0.00     0.023 A 
ATOM      5  C   UNL d   1      56.995  -0.056  31.115  0.00  0.00     0.082 A 
ATOM      6  N   UNL d   1      58.221   0.486  32.788  0.00  0.00    -0.206 NA
ATOM      7  C   UNL d   1      59.053   0.486  31.360  0.00  0.00     0.143 A 
ATOM      8  N   UNL d   1      59.436   0.682  32.065  0.00  0.00    -0.212 NA
ATOM      9  C   UNL d   1      59.024   0.682  32.773  0.00  0.00     0.201 A 
ATOM     10 CL   UNL d   1      59.465   0.487  30.652  0.00  0.00    -0.061 Cl
ENDROOT
BRANCH   3  11
ATOM     11  C   UNL d   1      56.432  -0.004  32.442  0.00  0.00     0.065 A 
ATOM     12  C   UNL d   1      55.980   0.653  32.648  0.00  0.00     0.018 A 
ATOM     13  C   UNL d   1      55.347   0.574  33.172  0.00  0.00     0.002 A 
ATOM     14  C   UNL d   1      55.161  -0.174  33.495  0.00  0.00     0.000 A 
ATOM     15  C   UNL d   1      55.620  -0.827  33.282  0.00  0.00     0.002 A 
ATOM     16  C   UNL d   1      56.251  -0.743  32.759  0.00  0.00     0.018 A 
ENDBRANCH   3  11
BRANCH   4  17
ATOM     17  C   UNL d   1      58.029   0.040  30.005  0.00  0.00     0.002 A 
ATOM     18  C   UNL d   1      58.424  -0.638  29.746  0.00  0.00     0.000 A 
ATOM     19  C   UNL d   1      58.725  -0.674  28.978  0.00  0.00     0.000 A 
ATOM     20  C   UNL d   1      58.632  -0.033  28.471  0.00  0.00     0.000 A 
ATOM     21  C   UNL d   1      58.236   0.646  28.732  0.00  0.00     0.000 A 
ATOM     22  C   UNL d   1      57.937   0.682  29.495  0.00  0.00     0.000 A 
ENDBRANCH   4  17
TORSDOF 2
ENDMDL
MODEL 3
REMARK VINA RESULT:      -2.7      1.785      4.244
REMARK  2 active torsions:
REMARK  status: ('A' for Active; 'I' for Inactive)
REMARK    1  A    between atoms: C_10  and  N_3 
REMARK    2  A    between atoms: C_11  and  C_4 
ROOT
ATOM      1  C   UNL d   1      57.837  -0.391  30.176  0.00  0.00     0.152 A 
ATOM      2  C   UNL d   1      58.297  -0.848  29.677  0.00  0.00     0.065 A 
ATOM      3  N   UNL d   1      57.664  -0.840  30.849  0.00  0.00    -0.290 N 
ATOM      4  C   UNL d   1      58.414  -1.584  30.036  0.00  0.00     0.023 A 
ATOM      5  C   UNL d   1      58.024  -1.574  30.757  0.00  0.00     0.082 A 
ATOM      6  N   UNL d   1      57.627   0.378  29.962  0.00  0.00    -0.206 NA
ATOM      7  C   UNL d   1      58.557  -0.545  28.954  0.00  0.00     0.143 A 
ATOM      8  N   UNL d   1      58.347   0.225  28.740  0.00  0.00    -0.212 NA
ATOM      9  C   UNL d   1      57.886   0.682  29.240  0.00  0.00     0.201 A 
ATOM     10 CL   UNL d   1      59.018  -1.002  28.455  0.00  0.00    -0.061 Cl
ENDROOT
BRANCH   3  11
ATOM     11  C   UNL d   1      57.226  -0.634  31.504  0.00  0.00     0.065 A 
ATOM     12  C   UNL d   1      57.384   0.071  31.903  0.00  0.00     0.018 A 
ATOM     13  C   UNL d   1      56.940   0.280  32.567  0.00  0.00     0.002 A 
ATOM     14  C   UNL d   1      56.330  -0.221  32.838  0.00  0.00     0.000 A 
ATOM     15  C   UNL d   1      56.179  -0.925  32.432  0.00  0.00     0.002 A 
ATOM     16  C   UNL d   1      56.624  -1.130  31.770  0.00  0.00     0.018 A 
ENDBRANCH   3  11
BRANCH   4  17
ATOM     17  C   UNL d   1      58.868  -2.137  29.625  0.00  0.00     0.002 A 
ATOM     18  C   UNL d   1      59.693  -2.113  29.671  0.00  0.00     0.000 A 
ATOM     19  C   UNL d   1      60.147  -2.667  29.260  0.00  0.00     0.000 A 
ATOM     20  C   UNL d   1      59.776  -3.243  28.805  0.00  0.00     0.000 A 
ATOM     21  C   UNL d   1      58.951  -3.267  28.760  0.00  0.00     0.000 A 
ATOM     22  C   UNL d   1      58.499  -2.717  29.168  0.00  0.00     0.000 A 
ENDBRANCH   4  17
TORSDOF 2
ENDMDL
MODEL 4
REMARK VINA RESULT:      -2.5      1.667      4.328
REMARK  2 active torsions:
REMARK  status: ('A' for Active; 'I' for Inactive)
REMARK    1  A    between atoms: C_10  and  N_3 
REMARK    2  A    between atoms: C_11  and  C_4 
ROOT
ATOM      1  C   UNL d   1      56.032  -0.703  32.950  0.00  0.00     0.152 A 
ATOM      2  C   UNL d   1      56.561  -0.640  32.329  0.00  0.00     0.065 A 
ATOM      3  N   UNL d   1      56.024   0.017  33.356  0.00  0.00    -0.290 N 
ATOM      4  C   UNL d   1      56.886   0.121  32.345  0.00  0.00     0.023 A 
ATOM      5  C   UNL d   1      56.554   0.521  32.977  0.00  0.00     0.082 A 
ATOM      6  N   UNL d   1      55.619  -1.406  33.076  0.00  0.00    -0.206 NA
ATOM      7  C   UNL d   1      56.687  -1.278  31.821  0.00  0.00     0.143 A 
ATOM      8  N   UNL d   1      56.274  -1.982  31.946  0.00  0.00    -0.212 NA
ATOM      9  C   UNL d   1      55.744  -2.046  32.568  0.00  0.00     0.201 A 
ATOM     10 CL   UNL d   1      57.217  -1.214  31.200  0.00  0.00    -0.061 Cl
ENDROOT
BRANCH   3  11
ATOM     11  C   UNL d   1      55.591   0.232  34.012  0.00  0.00     0.065 A 
ATOM     12  C   UNL d   1      54.783   0.380  33.942  0.00  0.00     0.018 A 
ATOM     13  C   UNL d   1      54.343   0.598  34.606  0.00  0.00     0.002 A 
ATOM     14  C   UNL d   1      54.715   0.670  35.351  0.00  0.00     0.000 A 
ATOM     15  C   UNL d   1      55.525   0.519  35.410  0.00  0.00     0.002 A 
ATOM     16  C   UNL d   1      55.960   0.302  34.745  0.00  0.00     0.018 A 
ENDBRANCH   3  11
BRANCH   4  17
ATOM     17  C   UNL d   1      57.440   0.307  31.761  0.00  0.00     0.002 A 
ATOM     18  C   UNL d   1      57.189   0.492  30.996  0.00  0.00     0.000 A 
ATOM     19  C   UNL d   1      57.742   0.679  30.412  0.00  0.00     0.000 A 
ATOM     20  C   UNL d   1      58.545   0.681  30.595  0.00  0.00     0.000 A 
ATOM     21  C   UNL d   1      58.795   0.495  31.361  0.00  0.00     0.000 A 
ATOM     22  C   UNL d   1      58.245   0.310  31.941  0.00  0.00     0.000 A 
ENDBRANCH   4  17
TORSDOF 2
ENDMDL
MODEL 5
REMARK VINA RESULT:      -1.7      0.945      1.521
REMARK  2 active torsions:
REMARK  status: ('A' for Active; 'I' for Inactive)
REMARK    1  A    between atoms: C_10  and  N_3 
REMARK    2  A    between atoms: C_11  and  C_4 
ROOT
ATOM      1  C   UNL d   1      57.458   0.210  32.633  0.00  0.00     0.152 A 
ATOM      2  C   UNL d   1      56.864   0.248  33.196  0.00  0.00     0.065 A 
ATOM      3  N   UNL d   1      57.121  -0.040  31.920  0.00  0.00    -0.290 N 
ATOM      4  C   UNL d   1      56.155   0.021  32.837  0.00  0.00     0.023 A 
ATOM      5  C   UNL d   1      56.316  -0.155  32.053  0.00  0.00     0.082 A 
ATOM      6  N   UNL d   1      58.234   0.407  32.831  0.00  0.00    -0.206 NA
ATOM      7  C   UNL d   1      57.036   0.483  33.968  0.00  0.00     0.143 A 
ATOM      8  N   UNL d   1      57.813   0.680  34.167  0.00  0.00    -0.212 NA
ATOM      9  C   UNL d   1      58.407   0.643  33.604  0.00  0.00     0.201 A 
ATOM     10 CL   UNL d   1      56.443   0.521  34.531  0.00  0.00    -0.061 Cl
ENDROOT
BRANCH   3  11
ATOM     11  C   UNL d   1      57.478  -0.163  31.199  0.00  0.00     0.065 A 
ATOM     12  C   UNL d   1      57.634   0.475  30.701  0.00  0.00     0.018 A 
ATOM     13  C   UNL d   1      57.997   0.351  29.969  0.00  0.00     0.002 A 
ATOM     14  C   UNL d   1      58.207  -0.421  29.731  0.00  0.00     0.000 A 
ATOM     15  C   UNL d   1      58.047  -1.054  30.236  0.00  0.00     0.002 A 
ATOM     16  C   UNL d   1      57.685  -0.926  30.966  0.00  0.00     0.018 A 
ENDBRANCH   3  11
BRANCH   4  17
ATOM     17  C   UNL d   1      55.477   0.019  33.308  0.00  0.00     0.002 A 
ATOM     18  C   UNL d   1      55.288  -0.647  33.760  0.00  0.00     0.000 A 
ATOM     19  C   UNL d   1      54.611  -0.649  34.231  0.00  0.00     0.000 A 
ATOM     20  C   UNL d   1      54.122   0.013  34.250  0.00  0.00     0.000 A 
ATOM     21  C   UNL d   1      54.312   0.679  33.797  0.00  0.00     0.000 A 
ATOM     22  C   UNL d   1      54.985   0.682  33.329  0.00  0.00     0.000 A 
ENDBRANCH   4  17
TORSDOF 2
ENDMDL
MODEL 6
REMARK VINA RESULT:      -1.5      1.649      4.192
REMARK  2 active torsions:
REMARK  status: ('A' for Active; 'I' for Inactive)
REMARK    1  A    between atoms: C_10  and  N_3 
REMARK    2  A    between atoms: C_11  and  C_4 
ROOT
ATOM      1  C   UNL d   1      57.813  -0.788  30.680  0.00  0.00     0.152 A 
ATOM      2  C   UNL d   1      58.415  -0.726  30.128  0.00  0.00     0.065 A 
ATOM      3  N   UNL d   1      57.792  -0.086  31.117  0.00  0.00    -0.290 N 
ATOM      4  C   UNL d   1      58.771   0.015  30.218  0.00  0.00     0.023 A 
ATOM      5  C   UNL d   1      58.386   0.405  30.827  0.00  0.00     0.082 A 
ATOM      6  N   UNL d   1      57.355  -1.473  30.723  0.00  0.00    -0.206 NA
ATOM      7  C   UNL d   1      58.569  -1.348  29.608  0.00  0.00     0.143 A 
ATOM      8  N   UNL d   1      58.111  -2.034  29.650  0.00  0.00    -0.212 NA
ATOM      9  C   UNL d   1      57.509  -2.096  30.202  0.00  0.00     0.201 A 
ATOM     10 CL   UNL d   1      59.171  -1.286  29.055  0.00  0.00    -0.061 Cl
ENDROOT
BRANCH   3  11
ATOM     11  C   UNL d   1      57.296   0.123  31.728  0.00  0.00     0.065 A 
ATOM     12  C   UNL d   1      56.565   0.469  31.566  0.00  0.00     0.018 A 
ATOM     13  C   UNL d   1      56.061   0.682  32.185  0.00  0.00     0.002 A 
ATOM     14  C   UNL d   1      56.289   0.547  32.976  0.00  0.00     0.000 A 
ATOM     15  C   UNL d   1      57.023   0.200  33.129  0.00  0.00     0.002 A 
ATOM     16  C   UNL d   1      57.523  -0.011  32.509  0.00  0.00     0.018 A 
ENDBRANCH   3  11
BRANCH   4  17
ATOM     17  C   UNL d   1      59.398   0.197  29.712  0.00  0.00     0.002 A 
ATOM     18  C   UNL d   1      60.178   0.076  29.958  0.00  0.00     0.000 A 
ATOM     19  C   UNL d   1      60.804   0.258  29.452  0.00  0.00     0.000 A 
ATOM     20  C   UNL d   1      60.651   0.560  28.702  0.00  0.00     0.000 A 
ATOM     21  C   UNL d   1      59.870   0.680  28.457  0.00  0.00     0.000 A 
ATOM     22  C   UNL d   1      59.247   0.500  28.960  0.00  0.00     0.000 A 
ENDBRANCH   4  17
TORSDOF 2
ENDMDL
