MODEL 1
REMARK VINA RESULT:      -3.9      0.000      0.000
REMARK  4 active torsions:
REMARK  status: ('A' for Active; 'I' for Inactive)
REMARK    1  A    between atoms: C_5  and  N_1 
REMARK    2  A    between atoms: C_9  and  C_3 
REMARK    3  A    between atoms: C_7  and  C_4 
REMARK    4  A    between atoms: N_10  and  C_5 
ROOT
ATOM      1  N   UNL d   1      58.426  -0.542  29.827  0.00  0.00    -0.203 N 
ATOM      2  N   UNL d   1      57.937  -0.147  30.366  0.00  0.00    -0.163 NA
ATOM      3  C   UNL d   1      57.585  -0.679  30.860  0.00  0.00     0.103 A 
ATOM      4  C   UNL d   1      58.383  -1.360  29.987  0.00  0.00     0.087 A 
ATOM      5  C   UNL d   1      57.864  -1.452  30.625  0.00  0.00     0.040 A 
ENDROOT
BRANCH   4   6
ATOM      6  C   UNL d   1      58.768  -1.983  29.604  0.00  0.00     0.018 A 
ATOM      7  C   UNL d   1      59.504  -2.244  29.856  0.00  0.00     0.002 A 
ATOM      8  C   UNL d   1      59.886  -2.865  29.474  0.00  0.00     0.007 A 
ATOM      9  C   UNL d   1      59.526  -3.229  28.831  0.00  0.00     0.035 A 
ATOM     10  C   UNL d   1      58.806  -2.984  28.575  0.00  0.00     0.007 A 
ATOM     11 BR   UNL d   1      59.933  -3.861  28.456  0.00  0.00    -0.049 Br
ATOM     12  C   UNL d   1      58.421  -2.360  28.958  0.00  0.00     0.002 A 
ENDBRANCH   4   6
BRANCH   1  13
ATOM     13  C   UNL d   1      58.891  -0.187  29.220  0.00  0.00     0.222 C 
ATOM     14  S   UNL d   1      58.548  -0.071  28.455  0.00  0.00    -0.037 SA
BRANCH  13  15
ATOM     15  N   UNL d   1      59.691   0.054  29.359  0.00  0.00    -0.214 NA
ATOM     16  C   UNL d   1      60.042   0.628  28.871  0.00  0.00     0.122 C 
ENDBRANCH  13  15
ENDBRANCH   1  13
BRANCH   3  17
ATOM     17  C   UNL d   1      57.055  -0.488  31.474  0.00  0.00     0.019 A 
ATOM     18  C   UNL d   1      56.684  -1.078  31.912  0.00  0.00     0.002 A 
ATOM     19  C   UNL d   1      56.156  -0.865  32.523  0.00  0.00     0.000 A 
ATOM     20  C   UNL d   1      56.010  -0.076  32.684  0.00  0.00     0.000 A 
ATOM     21  C   UNL d   1      56.391   0.502  32.235  0.00  0.00     0.000 A 
ATOM     22  C   UNL d   1      56.904   0.302  31.641  0.00  0.00     0.002 A 
ENDBRANCH   3  17
TORSDOF 4
ENDMDL
MODEL 2
REMARK VINA RESULT:      -1.6      1.371      2.239
REMARK  4 active torsions:
REMARK  status: ('A' for Active; 'I' for Inactive)
REMARK    1  A    between atoms: C_5  and  N_1 
REMARK    2  A    between atoms: C_9  and  C_3 
REMARK    3  A    between atoms: C_7  and  C_4 
REMARK    4  A    between atoms: N_10  and  C_5 
ROOT
ATOM      1  N   UNL d   1      58.121  -1.085  30.178  0.00  0.00    -0.203 N 
ATOM      2  N   UNL d   1      57.518  -1.082  30.746  0.00  0.00    -0.163 NA
ATOM      3  C   UNL d   1      57.535  -0.390  31.161  0.00  0.00     0.103 A 
ATOM      4  C   UNL d   1      58.537  -0.364  30.235  0.00  0.00     0.087 A 
ATOM      5  C   UNL d   1      58.180   0.071  30.842  0.00  0.00     0.040 A 
ENDROOT
BRANCH   4   6
ATOM      6  C   UNL d   1      59.183  -0.103  29.791  0.00  0.00     0.018 A 
ATOM      7  C   UNL d   1      59.950  -0.303  30.001  0.00  0.00     0.002 A 
ATOM      8  C   UNL d   1      60.592  -0.042  29.557  0.00  0.00     0.007 A 
ATOM      9  C   UNL d   1      60.464   0.426  28.894  0.00  0.00     0.035 A 
ATOM     10  C   UNL d   1      59.718   0.630  28.678  0.00  0.00     0.007 A 
ATOM     11 BR   UNL d   1      61.133   0.682  28.456  0.00  0.00    -0.049 Br
ATOM     12  C   UNL d   1      59.072   0.368  29.123  0.00  0.00     0.002 A 
ENDBRANCH   4   6
BRANCH   1  13
ATOM     13  C   UNL d   1      58.291  -1.705  29.632  0.00  0.00     0.222 C 
ATOM     14  S   UNL d   1      57.882  -1.723  28.891  0.00  0.00    -0.037 SA
BRANCH  13  15
ATOM     15  N   UNL d   1      58.859  -2.307  29.809  0.00  0.00    -0.214 NA
ATOM     16  C   UNL d   1      58.786  -3.061  29.467  0.00  0.00     0.122 C 
ENDBRANCH  13  15
ENDBRANCH   1  13
BRANCH   3  17
ATOM     17  C   UNL d   1      57.013  -0.187  31.778  0.00  0.00     0.019 A 
ATOM     18  C   UNL d   1      57.051  -0.569  32.507  0.00  0.00     0.002 A 
ATOM     19  C   UNL d   1      56.519  -0.350  33.113  0.00  0.00     0.000 A 
ATOM     20  C   UNL d   1      55.965   0.238  32.981  0.00  0.00     0.000 A 
ATOM     21  C   UNL d   1      55.941   0.609  32.245  0.00  0.00     0.000 A 
ATOM     22  C   UNL d   1      56.455   0.402  31.654  0.00  0.00     0.002 A 
ENDBRANCH   3  17
TORSDOF 4
ENDMDL
