MODEL 1
REMARK VINA RESULT:      -2.1      0.000      0.000
REMARK  4 active torsions:
REMARK  status: ('A' for Active; 'I' for Inactive)
REMARK    1  A    between atoms: C_13  and  N_5 
REMARK    2  A    between atoms: C_14  and  C_6 
REMARK    3  A    between atoms: C_21  and  C_13 
REMARK    4  A    between atoms: O_25  and  C_20 
ROOT
ATOM      1  C   UNL d   1      58.628  -0.452  30.237  0.00  0.00     0.080 A 
ATOM      2  C   UNL d   1      57.916  -0.837  30.433  0.00  0.00     0.267 A 
ATOM      3  C   UNL d   1      58.793   0.299  30.535  0.00  0.00     0.108 A 
ATOM      4  C   UNL d   1      59.880  -0.457  29.537  0.00  0.00     0.111 A 
ATOM      5  N   UNL d   1      57.380  -0.448  30.933  0.00  0.00    -0.273 N 
ATOM      6  C   UNL d   1      59.166  -0.833  29.739  0.00  0.00     0.020 A 
ATOM      7  C   UNL d   1      60.042   0.303  29.841  0.00  0.00     0.213 A 
ATOM      8  C   UNL d   1      58.255   0.678  31.030  0.00  0.00     0.043 A 
ATOM      9  O   UNL d   1      59.499   0.673  30.335  0.00  0.00    -0.287 OA
ATOM     10  C   UNL d   1      57.548   0.304  31.230  0.00  0.00     0.069 A 
ATOM     11  C   UNL d   1      60.423  -0.827  29.043  0.00  0.00     0.105 C 
ATOM     12  N   UNL d   1      60.959  -1.212  28.544  0.00  0.00    -0.191 NA
ATOM     13  O   UNL d   1      57.748  -1.588  30.137  0.00  0.00    -0.267 OA
ATOM     14  N   UNL d   1      60.749   0.680  29.643  0.00  0.00    -0.120 N 
ATOM     15  C   UNL d   1      57.003   0.682  31.730  0.00  0.00     0.019 C 
ENDROOT
BRANCH   6  16
ATOM     16  C   UNL d   1      59.004  -1.586  29.439  0.00  0.00     0.001 A 
ATOM     17  C   UNL d   1      59.312  -2.253  29.805  0.00  0.00     0.002 A 
ATOM     18  C   UNL d   1      59.149  -3.003  29.502  0.00  0.00     0.024 A 
ATOM     19  C   UNL d   1      58.676  -3.079  28.832  0.00  0.00     0.094 A 
ATOM     20  C   UNL d   1      58.363  -2.402  28.458  0.00  0.00     0.024 A 
ATOM     21  C   UNL d   1      58.533  -1.658  28.770  0.00  0.00     0.002 A 
BRANCH  19  22
ATOM     22  O   UNL d   1      58.511  -3.827  28.526  0.00  0.00    -0.328 OA
ATOM     23  C   UNL d   1      59.102  -4.400  28.494  0.00  0.00     0.181 C 
ENDBRANCH  19  22
ENDBRANCH   6  16
BRANCH   5  24
ATOM     24  C   UNL d   1      56.666  -0.824  31.136  0.00  0.00     0.083 C 
BRANCH  24  25
ATOM     25  C   UNL d   1      56.410  -0.858  31.924  0.00  0.00     0.021 A 
ATOM     26  C   UNL d   1      55.938  -0.261  32.239  0.00  0.00     0.022 A 
ATOM     27  C   UNL d   1      55.691  -0.306  33.024  0.00  0.00     0.099 A 
ATOM     28  N   UNL d   1      55.913  -0.942  33.493  0.00  0.00    -0.242 NA
ATOM     29  C   UNL d   1      56.388  -1.543  33.176  0.00  0.00     0.099 A 
ATOM     30  C   UNL d   1      56.635  -1.498  32.393  0.00  0.00     0.022 A 
ENDBRANCH  24  25
ENDBRANCH   5  24
TORSDOF 4
ENDMDL
