MODEL 1
REMARK VINA RESULT:      -9.5      0.000      0.000
REMARK  5 active torsions:
REMARK  status: ('A' for Active; 'I' for Inactive)
REMARK    1  A    between atoms: C_11  and  C_1 
REMARK    2  A    between atoms: C_5  and  S_13 
REMARK       I    between atoms: C_12  and  N_14 
REMARK    3  A    between atoms: C_18  and  C_12 
REMARK    4  A    between atoms: S_13  and  C_18 
REMARK    5  A    between atoms: N_14  and  C_19 
ROOT
ATOM      1  C   UNL d   1      51.771  33.843  53.137  0.00  0.00     0.024 A 
ATOM      2  C   UNL d   1      51.072  33.498  53.407  0.00  0.00     0.004 A 
ATOM      3  C   UNL d   1      51.778  34.313  52.472  0.00  0.00     0.004 A 
ATOM      4  C   UNL d   1      50.373  34.114  52.315  0.00  0.00     0.085 A 
ATOM      5  C   UNL d   1      51.076  34.449  52.059  0.00  0.00     0.019 A 
ATOM      6  C   UNL d   1      50.370  33.635  52.994  0.00  0.00     0.019 A 
ENDROOT
BRANCH   4   7
ATOM      7  N   UNL d   1      49.678  34.258  51.894  0.00  0.00    -0.208 NA
ATOM      8  C   UNL d   1      49.133  34.806  52.182  0.00  0.00     0.286 C 
ATOM      9  O   UNL d   1      49.283  35.204  52.885  0.00  0.00    -0.265 OA
BRANCH   8  10
ATOM     10  C   UNL d   1      48.437  34.953  51.765  0.00  0.00     0.100 C 
BRANCH  10  11
ATOM     11  S   UNL d   1      47.909  35.529  52.037  0.00  0.00    -0.054 SA
BRANCH  11  12
ATOM     12  C   UNL d   1      47.144  35.572  51.724  0.00  0.00     0.164 A 
ATOM     13  S   UNL d   1      46.543  36.062  51.992  0.00  0.00    -0.039 SA
ATOM     14  C   UNL d   1      45.875  35.924  51.520  0.00  0.00     0.134 A 
ATOM     15  C   UNL d   1      45.138  36.298  51.595  0.00  0.00     0.030 C 
ATOM     16  N   UNL d   1      46.071  35.346  50.961  0.00  0.00    -0.140 NA
ATOM     17  N   UNL d   1      46.857  35.127  51.086  0.00  0.00    -0.134 NA
ENDBRANCH  11  12
ENDBRANCH  10  11
ENDBRANCH   8  10
ENDBRANCH   4   7
BRANCH   1  18
ATOM     18  C   UNL d   1      52.489  33.709  53.551  0.00  0.00     0.111 A 
ATOM     19  N   UNL d   1      52.742  34.178  54.173  0.00  0.00    -0.239 NA
ATOM     20  C   UNL d   1      53.462  33.881  54.439  0.00  0.00     0.088 A 
ATOM     21  C   UNL d   1      53.971  34.118  55.038  0.00  0.00     0.020 A 
ATOM     22  C   UNL d   1      53.650  33.224  53.976  0.00  0.00     0.049 A 
ATOM     23  C   UNL d   1      54.665  33.709  55.182  0.00  0.00     0.002 A 
ATOM     24  C   UNL d   1      54.859  33.052  54.723  0.00  0.00     0.001 A 
ATOM     25  C   UNL d   1      54.344  32.812  54.117  0.00  0.00     0.008 A 
ATOM     26  S   UNL d   1      53.048  33.120  53.429  0.00  0.00    -0.066 SA
ENDBRANCH   1  18
TORSDOF 5
ENDMDL
MODEL 2
REMARK VINA RESULT:      -8.1      1.344      1.740
REMARK  5 active torsions:
REMARK  status: ('A' for Active; 'I' for Inactive)
REMARK    1  A    between atoms: C_11  and  C_1 
REMARK    2  A    between atoms: C_5  and  S_13 
REMARK       I    between atoms: C_12  and  N_14 
REMARK    3  A    between atoms: C_18  and  C_12 
REMARK    4  A    between atoms: S_13  and  C_18 
REMARK    5  A    between atoms: N_14  and  C_19 
ROOT
ATOM      1  C   UNL d   1      51.496  33.328  52.968  0.00  0.00     0.024 A 
ATOM      2  C   UNL d   1      51.584  33.918  52.399  0.00  0.00     0.004 A 
ATOM      3  C   UNL d   1      50.836  33.299  53.444  0.00  0.00     0.004 A 
ATOM      4  C   UNL d   1      50.316  34.460  52.797  0.00  0.00     0.085 A 
ATOM      5  C   UNL d   1      50.243  33.867  53.358  0.00  0.00     0.019 A 
ATOM      6  C   UNL d   1      50.991  34.487  52.313  0.00  0.00     0.019 A 
ENDROOT
BRANCH   4   7
ATOM      7  N   UNL d   1      49.717  35.022  52.721  0.00  0.00    -0.208 NA
ATOM      8  C   UNL d   1      49.129  34.917  52.151  0.00  0.00     0.286 C 
ATOM      9  O   UNL d   1      49.143  34.256  51.664  0.00  0.00    -0.265 OA
BRANCH   8  10
ATOM     10  C   UNL d   1      48.528  35.477  52.071  0.00  0.00     0.100 C 
BRANCH  10  11
ATOM     11  S   UNL d   1      47.828  35.274  51.679  0.00  0.00    -0.054 SA
BRANCH  11  12
ATOM     12  C   UNL d   1      47.146  35.729  51.786  0.00  0.00     0.164 A 
ATOM     13  S   UNL d   1      46.419  35.595  51.431  0.00  0.00    -0.039 SA
ATOM     14  C   UNL d   1      45.896  36.184  51.694  0.00  0.00     0.134 A 
ATOM     15  C   UNL d   1      45.099  36.263  51.475  0.00  0.00     0.030 C 
ATOM     16  N   UNL d   1      46.308  36.678  52.213  0.00  0.00    -0.140 NA
ATOM     17  N   UNL d   1      47.083  36.398  52.272  0.00  0.00    -0.134 NA
ENDBRANCH  11  12
ENDBRANCH  10  11
ENDBRANCH   8  10
ENDBRANCH   4   7
BRANCH   1  18
ATOM     18  C   UNL d   1      52.094  32.746  53.061  0.00  0.00     0.111 A 
ATOM     19  N   UNL d   1      52.010  31.971  52.808  0.00  0.00    -0.239 NA
ATOM     20  C   UNL d   1      52.703  31.568  52.992  0.00  0.00     0.088 A 
ATOM     21  C   UNL d   1      52.938  30.790  52.874  0.00  0.00     0.020 A 
ATOM     22  C   UNL d   1      53.215  32.100  53.360  0.00  0.00     0.049 A 
ATOM     23  C   UNL d   1      53.677  30.536  53.119  0.00  0.00     0.002 A 
ATOM     24  C   UNL d   1      54.193  31.062  53.488  0.00  0.00     0.001 A 
ATOM     25  C   UNL d   1      53.955  31.849  53.606  0.00  0.00     0.008 A 
ATOM     26  S   UNL d   1      52.837  32.827  53.402  0.00  0.00    -0.066 SA
ENDBRANCH   1  18
TORSDOF 5
ENDMDL
MODEL 3
REMARK VINA RESULT:      -7.5      1.033      6.592
REMARK  5 active torsions:
REMARK  status: ('A' for Active; 'I' for Inactive)
REMARK    1  A    between atoms: C_11  and  C_1 
REMARK    2  A    between atoms: C_5  and  S_13 
REMARK       I    between atoms: C_12  and  N_14 
REMARK    3  A    between atoms: C_18  and  C_12 
REMARK    4  A    between atoms: S_13  and  C_18 
REMARK    5  A    between atoms: N_14  and  C_19 
ROOT
ATOM      1  C   UNL d   1      48.770  35.061  52.122  0.00  0.00     0.024 A 
ATOM      2  C   UNL d   1      49.172  35.206  52.828  0.00  0.00     0.004 A 
ATOM      3  C   UNL d   1      49.121  34.645  51.516  0.00  0.00     0.004 A 
ATOM      4  C   UNL d   1      50.305  34.498  52.300  0.00  0.00     0.085 A 
ATOM      5  C   UNL d   1      49.891  34.362  51.606  0.00  0.00     0.019 A 
ATOM      6  C   UNL d   1      49.944  34.922  52.917  0.00  0.00     0.019 A 
ENDROOT
BRANCH   4   7
ATOM      7  N   UNL d   1      51.074  34.210  52.377  0.00  0.00    -0.208 NA
ATOM      8  C   UNL d   1      51.233  33.614  52.925  0.00  0.00     0.286 C 
ATOM      9  O   UNL d   1      50.627  33.310  53.390  0.00  0.00    -0.265 OA
BRANCH   8  10
ATOM     10  C   UNL d   1      52.001  33.323  53.006  0.00  0.00     0.100 C 
BRANCH  10  11
ATOM     11  S   UNL d   1      52.289  33.126  53.757  0.00  0.00    -0.054 SA
BRANCH  11  12
ATOM     12  C   UNL d   1      53.102  33.049  53.883  0.00  0.00     0.164 A 
ATOM     13  S   UNL d   1      53.534  33.419  54.473  0.00  0.00    -0.039 SA
ATOM     14  C   UNL d   1      54.326  33.185  54.393  0.00  0.00     0.134 A 
ATOM     15  C   UNL d   1      54.958  33.426  54.874  0.00  0.00     0.030 C 
ATOM     16  N   UNL d   1      54.377  32.669  53.748  0.00  0.00    -0.140 NA
ATOM     17  N   UNL d   1      53.619  32.584  53.430  0.00  0.00    -0.134 NA
ENDBRANCH  11  12
ENDBRANCH  10  11
ENDBRANCH   8  10
ENDBRANCH   4   7
BRANCH   1  18
ATOM     18  C   UNL d   1      47.986  35.345  52.024  0.00  0.00     0.111 A 
ATOM     19  N   UNL d   1      47.482  35.077  51.436  0.00  0.00    -0.239 NA
ATOM     20  C   UNL d   1      46.768  35.478  51.512  0.00  0.00     0.088 A 
ATOM     21  C   UNL d   1      46.066  35.444  51.088  0.00  0.00     0.020 A 
ATOM     22  C   UNL d   1      46.836  35.996  52.152  0.00  0.00     0.049 A 
ATOM     23  C   UNL d   1      45.431  35.918  51.292  0.00  0.00     0.002 A 
ATOM     24  C   UNL d   1      45.492  36.437  51.930  0.00  0.00     0.001 A 
ATOM     25  C   UNL d   1      46.202  36.472  52.359  0.00  0.00     0.008 A 
ATOM     26  S   UNL d   1      47.588  35.912  52.466  0.00  0.00    -0.066 SA
ENDBRANCH   1  18
TORSDOF 5
ENDMDL
MODEL 4
REMARK VINA RESULT:      -7.0      1.547      6.596
REMARK  5 active torsions:
REMARK  status: ('A' for Active; 'I' for Inactive)
REMARK    1  A    between atoms: C_11  and  C_1 
REMARK    2  A    between atoms: C_5  and  S_13 
REMARK       I    between atoms: C_12  and  N_14 
REMARK    3  A    between atoms: C_18  and  C_12 
REMARK    4  A    between atoms: S_13  and  C_18 
REMARK    5  A    between atoms: N_14  and  C_19 
ROOT
ATOM      1  C   UNL d   1      48.697  35.158  52.283  0.00  0.00     0.024 A 
ATOM      2  C   UNL d   1      49.053  34.744  51.665  0.00  0.00     0.004 A 
ATOM      3  C   UNL d   1      49.084  35.269  52.991  0.00  0.00     0.004 A 
ATOM      4  C   UNL d   1      50.211  34.550  52.492  0.00  0.00     0.085 A 
ATOM      5  C   UNL d   1      49.844  34.964  53.097  0.00  0.00     0.019 A 
ATOM      6  C   UNL d   1      49.814  34.438  51.770  0.00  0.00     0.019 A 
ENDROOT
BRANCH   4   7
ATOM      7  N   UNL d   1      50.971  34.250  52.609  0.00  0.00    -0.208 NA
ATOM      8  C   UNL d   1      51.070  33.542  53.021  0.00  0.00     0.286 C 
ATOM      9  O   UNL d   1      50.416  33.141  53.312  0.00  0.00    -0.265 OA
BRANCH   8  10
ATOM     10  C   UNL d   1      51.828  33.238  53.140  0.00  0.00     0.100 C 
BRANCH  10  11
ATOM     11  S   UNL d   1      52.017  32.483  52.858  0.00  0.00    -0.054 SA
BRANCH  11  12
ATOM     12  C   UNL d   1      52.689  32.092  53.137  0.00  0.00     0.164 A 
ATOM     13  S   UNL d   1      52.809  31.281  53.133  0.00  0.00    -0.039 SA
ATOM     14  C   UNL d   1      53.556  31.133  53.464  0.00  0.00     0.134 A 
ATOM     15  C   UNL d   1      53.904  30.387  53.570  0.00  0.00     0.030 C 
ATOM     16  N   UNL d   1      53.892  31.859  53.672  0.00  0.00    -0.140 NA
ATOM     17  N   UNL d   1      53.357  32.455  53.470  0.00  0.00    -0.134 NA
ENDBRANCH  11  12
ENDBRANCH  10  11
ENDBRANCH   8  10
ENDBRANCH   4   7
BRANCH   1  18
ATOM     18  C   UNL d   1      47.925  35.471  52.184  0.00  0.00     0.111 A 
ATOM     19  N   UNL d   1      47.403  35.204  51.612  0.00  0.00    -0.239 NA
ATOM     20  C   UNL d   1      46.707  35.637  51.681  0.00  0.00     0.088 A 
ATOM     21  C   UNL d   1      45.999  35.616  51.266  0.00  0.00     0.020 A 
ATOM     22  C   UNL d   1      46.804  36.173  52.301  0.00  0.00     0.049 A 
ATOM     23  C   UNL d   1      45.387  36.124  51.461  0.00  0.00     0.002 A 
ATOM     24  C   UNL d   1      45.476  36.662  52.079  0.00  0.00     0.001 A 
ATOM     25  C   UNL d   1      46.193  36.682  52.499  0.00  0.00     0.008 A 
ATOM     26  S   UNL d   1      47.557  36.069  52.610  0.00  0.00    -0.066 SA
ENDBRANCH   1  18
TORSDOF 5
ENDMDL
