MODEL 1
REMARK VINA RESULT:      -6.8      0.000      0.000
REMARK  4 active torsions:
REMARK  status: ('A' for Active; 'I' for Inactive)
REMARK    1  A    between atoms: S_2  and  N_1 
REMARK    2  A    between atoms: C_6  and  S_2 
REMARK    3  A    between atoms: C_10  and  C_6 
REMARK    4  A    between atoms: C_11  and  C_10 
ROOT
ATOM      1  S   UNL d   1     -48.852  13.981  22.701  0.00  0.00     0.287 S 
ATOM      2  O   UNL d   1     -49.069  13.426  23.274  0.00  0.00    -0.198 OA
ATOM      3  O   UNL d   1     -48.624  14.523  22.130  0.00  0.00    -0.198 OA
ENDROOT
BRANCH   1   4
ATOM      4  N   UNL d   1     -49.546  14.402  22.816  0.00  0.00    -0.152 N 
ATOM      5  N   UNL d   1     -49.638  15.040  23.338  0.00  0.00    -0.155 NA
ATOM      6  C   UNL d   1     -50.424  15.298  23.278  0.00  0.00     0.104 A 
ATOM      7  C   UNL d   1     -50.763  15.922  23.698  0.00  0.00     0.022 C 
ATOM      8  C   UNL d   1     -50.804  14.815  22.722  0.00  0.00     0.041 A 
ATOM      9  C   UNL d   1     -50.263  14.264  22.438  0.00  0.00     0.096 A 
ATOM     10  C   UNL d   1     -50.414  13.682  21.878  0.00  0.00     0.022 C 
ENDBRANCH   1   4
BRANCH   1  11
ATOM     11  C   UNL d   1     -48.146  13.569  22.570  0.00  0.00     0.117 C 
BRANCH  11  12
ATOM     12  C   UNL d   1     -47.456  13.796  22.974  0.00  0.00     0.014 C 
BRANCH  12  13
ATOM     13  C   UNL d   1     -46.752  13.388  22.853  0.00  0.00     0.001 A 
ATOM     14  C   UNL d   1     -46.618  12.686  23.242  0.00  0.00     0.000 A 
ATOM     15  C   UNL d   1     -45.913  12.277  23.122  0.00  0.00     0.000 A 
ATOM     16  C   UNL d   1     -45.343  12.580  22.606  0.00  0.00     0.000 A 
ATOM     17  C   UNL d   1     -45.485  13.292  22.214  0.00  0.00     0.000 A 
ATOM     18  C   UNL d   1     -46.190  13.700  22.335  0.00  0.00     0.000 A 
ENDBRANCH  12  13
ENDBRANCH  11  12
ENDBRANCH   1  11
TORSDOF 4
ENDMDL
MODEL 2
REMARK VINA RESULT:      -6.8      1.338      4.165
REMARK  4 active torsions:
REMARK  status: ('A' for Active; 'I' for Inactive)
REMARK    1  A    between atoms: S_2  and  N_1 
REMARK    2  A    between atoms: C_6  and  S_2 
REMARK    3  A    between atoms: C_10  and  C_6 
REMARK    4  A    between atoms: C_11  and  C_10 
ROOT
ATOM      1  S   UNL d   1     -47.681  13.526  22.842  0.00  0.00     0.287 S 
ATOM      2  O   UNL d   1     -47.425  14.117  23.362  0.00  0.00    -0.198 OA
ATOM      3  O   UNL d   1     -47.949  12.946  22.329  0.00  0.00    -0.198 OA
ENDROOT
BRANCH   1   4
ATOM      4  N   UNL d   1     -46.916  13.244  22.755  0.00  0.00    -0.152 N 
ATOM      5  N   UNL d   1     -46.340  13.566  22.252  0.00  0.00    -0.155 NA
ATOM      6  C   UNL d   1     -45.653  13.110  22.338  0.00  0.00     0.104 A 
ATOM      7  C   UNL d   1     -44.939  13.231  21.942  0.00  0.00     0.022 C 
ATOM      8  C   UNL d   1     -45.815  12.516  22.891  0.00  0.00     0.041 A 
ATOM      9  C   UNL d   1     -46.593  12.598  23.148  0.00  0.00     0.096 A 
ATOM     10  C   UNL d   1     -46.975  12.120  23.696  0.00  0.00     0.022 C 
ENDBRANCH   1   4
BRANCH   1  11
ATOM     11  C   UNL d   1     -48.459  13.798  22.918  0.00  0.00     0.117 C 
BRANCH  11  12
ATOM     12  C   UNL d   1     -48.658  14.558  22.651  0.00  0.00     0.014 C 
BRANCH  12  13
ATOM     13  C   UNL d   1     -49.420  14.851  22.760  0.00  0.00     0.001 A 
ATOM     14  C   UNL d   1     -49.561  15.411  23.334  0.00  0.00     0.000 A 
ATOM     15  C   UNL d   1     -50.322  15.703  23.443  0.00  0.00     0.000 A 
ATOM     16  C   UNL d   1     -50.942  15.429  22.972  0.00  0.00     0.000 A 
ATOM     17  C   UNL d   1     -50.793  14.861  22.392  0.00  0.00     0.000 A 
ATOM     18  C   UNL d   1     -50.031  14.569  22.283  0.00  0.00     0.000 A 
ENDBRANCH  12  13
ENDBRANCH  11  12
ENDBRANCH   1  11
TORSDOF 4
ENDMDL
MODEL 3
REMARK VINA RESULT:      -6.5      1.862      4.115
REMARK  4 active torsions:
REMARK  status: ('A' for Active; 'I' for Inactive)
REMARK    1  A    between atoms: S_2  and  N_1 
REMARK    2  A    between atoms: C_6  and  S_2 
REMARK    3  A    between atoms: C_10  and  C_6 
REMARK    4  A    between atoms: C_11  and  C_10 
ROOT
ATOM      1  S   UNL d   1     -47.448  13.225  22.857  0.00  0.00     0.287 S 
ATOM      2  O   UNL d   1     -47.717  13.554  22.147  0.00  0.00    -0.198 OA
ATOM      3  O   UNL d   1     -47.197  12.897  23.565  0.00  0.00    -0.198 OA
ENDROOT
BRANCH   1   4
ATOM      4  N   UNL d   1     -46.667  13.339  22.637  0.00  0.00    -0.152 N 
ATOM      5  N   UNL d   1     -46.163  12.753  22.336  0.00  0.00    -0.155 NA
ATOM      6  C   UNL d   1     -45.429  13.109  22.190  0.00  0.00     0.104 A 
ATOM      7  C   UNL d   1     -44.759  12.733  21.887  0.00  0.00     0.022 C 
ATOM      8  C   UNL d   1     -45.490  13.907  22.403  0.00  0.00     0.041 A 
ATOM      9  C   UNL d   1     -46.253  14.049  22.678  0.00  0.00     0.096 A 
ATOM     10  C   UNL d   1     -46.545  14.768  22.946  0.00  0.00     0.022 C 
ENDBRANCH   1   4
BRANCH   1  11
ATOM     11  C   UNL d   1     -48.232  13.102  23.096  0.00  0.00     0.117 C 
BRANCH  11  12
ATOM     12  C   UNL d   1     -48.678  12.496  22.746  0.00  0.00     0.014 C 
BRANCH  12  13
ATOM     13  C   UNL d   1     -49.465  12.383  22.960  0.00  0.00     0.001 A 
ATOM     14  C   UNL d   1     -49.663  11.793  23.484  0.00  0.00     0.000 A 
ATOM     15  C   UNL d   1     -50.450  11.680  23.698  0.00  0.00     0.000 A 
ATOM     16  C   UNL d   1     -51.038  12.167  23.382  0.00  0.00     0.000 A 
ATOM     17  C   UNL d   1     -50.831  12.764  22.851  0.00  0.00     0.000 A 
ATOM     18  C   UNL d   1     -50.043  12.876  22.637  0.00  0.00     0.000 A 
ENDBRANCH  12  13
ENDBRANCH  11  12
ENDBRANCH   1  11
TORSDOF 4
ENDMDL
MODEL 4
REMARK VINA RESULT:      -5.5      8.927      9.430
REMARK  4 active torsions:
REMARK  status: ('A' for Active; 'I' for Inactive)
REMARK    1  A    between atoms: S_2  and  N_1 
REMARK    2  A    between atoms: C_6  and  S_2 
REMARK    3  A    between atoms: C_10  and  C_6 
REMARK    4  A    between atoms: C_11  and  C_10 
ROOT
ATOM      1  S   UNL d   1     -40.111  14.922  18.647  0.00  0.00     0.287 S 
ATOM      2  O   UNL d   1     -40.577  14.241  18.707  0.00  0.00    -0.198 OA
ATOM      3  O   UNL d   1     -39.643  15.593  18.601  0.00  0.00    -0.198 OA
ENDROOT
BRANCH   1   4
ATOM      4  N   UNL d   1     -40.402  15.080  17.897  0.00  0.00    -0.152 N 
ATOM      5  N   UNL d   1     -41.095  15.504  17.731  0.00  0.00    -0.155 NA
ATOM      6  C   UNL d   1     -41.179  15.531  16.907  0.00  0.00     0.104 A 
ATOM      7  C   UNL d   1     -41.791  15.898  16.493  0.00  0.00     0.022 C 
ATOM      8  C   UNL d   1     -40.538  15.123  16.577  0.00  0.00     0.041 A 
ATOM      9  C   UNL d   1     -40.059  14.845  17.187  0.00  0.00     0.096 A 
ATOM     10  C   UNL d   1     -39.367  14.413  17.100  0.00  0.00     0.022 C 
ENDBRANCH   1   4
BRANCH   1  11
ATOM     11  C   UNL d   1     -39.805  14.779  19.403  0.00  0.00     0.117 C 
BRANCH  11  12
ATOM     12  C   UNL d   1     -40.255  14.976  20.073  0.00  0.00     0.014 C 
BRANCH  12  13
ATOM     13  C   UNL d   1     -39.923  14.927  20.825  0.00  0.00     0.001 A 
ATOM     14  C   UNL d   1     -39.757  14.199  21.148  0.00  0.00     0.000 A 
ATOM     15  C   UNL d   1     -39.425  14.150  21.900  0.00  0.00     0.000 A 
ATOM     16  C   UNL d   1     -39.261  14.839  22.325  0.00  0.00     0.000 A 
ATOM     17  C   UNL d   1     -39.432  15.574  21.992  0.00  0.00     0.000 A 
ATOM     18  C   UNL d   1     -39.764  15.622  21.239  0.00  0.00     0.000 A 
ENDBRANCH  12  13
ENDBRANCH  11  12
ENDBRANCH   1  11
TORSDOF 4
ENDMDL
MODEL 5
REMARK VINA RESULT:      -5.1      9.059      9.671
REMARK  4 active torsions:
REMARK  status: ('A' for Active; 'I' for Inactive)
REMARK    1  A    between atoms: S_2  and  N_1 
REMARK    2  A    between atoms: C_6  and  S_2 
REMARK    3  A    between atoms: C_10  and  C_6 
REMARK    4  A    between atoms: C_11  and  C_10 
ROOT
ATOM      1  S   UNL d   1     -39.693  14.864  20.429  0.00  0.00     0.287 S 
ATOM      2  O   UNL d   1     -40.471  14.649  20.611  0.00  0.00    -0.198 OA
ATOM      3  O   UNL d   1     -38.927  15.080  20.234  0.00  0.00    -0.198 OA
ENDROOT
BRANCH   1   4
ATOM      4  N   UNL d   1     -39.437  14.649  21.178  0.00  0.00    -0.152 N 
ATOM      5  N   UNL d   1     -39.150  13.900  21.390  0.00  0.00    -0.155 NA
ATOM      6  C   UNL d   1     -38.955  13.929  22.195  0.00  0.00     0.104 A 
ATOM      7  C   UNL d   1     -38.648  13.307  22.643  0.00  0.00     0.022 C 
ATOM      8  C   UNL d   1     -39.125  14.693  22.467  0.00  0.00     0.041 A 
ATOM      9  C   UNL d   1     -39.422  15.136  21.841  0.00  0.00     0.096 A 
ATOM     10  C   UNL d   1     -39.659  15.922  21.872  0.00  0.00     0.022 C 
ENDBRANCH   1   4
BRANCH   1  11
ATOM     11  C   UNL d   1     -39.933  15.085  19.668  0.00  0.00     0.117 C 
BRANCH  11  12
ATOM     12  C   UNL d   1     -40.183  14.504  19.130  0.00  0.00     0.014 C 
BRANCH  12  13
ATOM     13  C   UNL d   1     -40.302  14.696  18.338  0.00  0.00     0.001 A 
ATOM     14  C   UNL d   1     -40.836  15.278  18.138  0.00  0.00     0.000 A 
ATOM     15  C   UNL d   1     -40.955  15.470  17.346  0.00  0.00     0.000 A 
ATOM     16  C   UNL d   1     -40.534  15.073  16.757  0.00  0.00     0.000 A 
ATOM     17  C   UNL d   1     -39.995  14.485  16.966  0.00  0.00     0.000 A 
ATOM     18  C   UNL d   1     -39.876  14.293  17.758  0.00  0.00     0.000 A 
ENDBRANCH  12  13
ENDBRANCH  11  12
ENDBRANCH   1  11
TORSDOF 4
ENDMDL
