MODEL 1
REMARK VINA RESULT:      -7.4      0.000      0.000
REMARK  5 active torsions:
REMARK  status: ('A' for Active; 'I' for Inactive)
REMARK    1  A    between atoms: N_5  and  C_1 
REMARK    2  A    between atoms: C_9  and  C_2 
REMARK       I    between atoms: C_6  and  N_5 
REMARK    3  A    between atoms: C_8  and  C_6 
REMARK    4  A    between atoms: O_14  and  C_9 
REMARK    5  A    between atoms: C_16  and  O_14 
ROOT
ATOM      1  C   UNL d   1      52.457  33.408  53.379  0.00  0.00     0.114 A 
ATOM      2  C   UNL d   1      53.278  32.382  53.633  0.00  0.00     0.094 A 
ATOM      3  S   UNL d   1      52.692  32.650  53.139  0.00  0.00    -0.062 SA
ATOM      4  C   UNL d   1      53.403  33.005  54.197  0.00  0.00     0.013 A 
ATOM      5  C   UNL d   1      52.913  33.602  54.036  0.00  0.00     0.027 A 
ATOM      6  C   UNL d   1      53.953  32.992  54.822  0.00  0.00     0.001 C 
ENDROOT
BRANCH   1   7
ATOM      7  N   UNL d   1      51.850  33.908  53.018  0.00  0.00    -0.201 NA
ATOM      8  C   UNL d   1      51.054  33.712  53.108  0.00  0.00     0.280 C 
ATOM      9  O   UNL d   1      50.829  33.046  53.539  0.00  0.00    -0.265 OA
BRANCH   8  10
ATOM     10  C   UNL d   1      50.478  34.188  52.765  0.00  0.00     0.058 A 
ATOM     11  C   UNL d   1      49.911  34.786  52.795  0.00  0.00     0.005 A 
ATOM     12  C   UNL d   1      49.978  34.468  52.092  0.00  0.00     0.005 A 
ENDBRANCH   8  10
ENDBRANCH   1   7
BRANCH   2  13
ATOM     13  C   UNL d   1      53.680  31.646  53.599  0.00  0.00     0.306 C 
ATOM     14  O   UNL d   1      54.454  31.637  53.323  0.00  0.00    -0.258 OA
BRANCH  13  15
ATOM     15  O   UNL d   1      53.318  30.944  53.833  0.00  0.00    -0.271 OA
BRANCH  15  16
ATOM     16  C   UNL d   1      53.612  30.214  53.578  0.00  0.00     0.126 C 
ATOM     17  C   UNL d   1      53.288  29.516  53.899  0.00  0.00     0.029 C 
ENDBRANCH  15  16
ENDBRANCH  13  15
ENDBRANCH   2  13
TORSDOF 5
ENDMDL
MODEL 2
REMARK VINA RESULT:      -7.2      1.182      3.958
REMARK  5 active torsions:
REMARK  status: ('A' for Active; 'I' for Inactive)
REMARK    1  A    between atoms: N_5  and  C_1 
REMARK    2  A    between atoms: C_9  and  C_2 
REMARK       I    between atoms: C_6  and  N_5 
REMARK    3  A    between atoms: C_8  and  C_6 
REMARK    4  A    between atoms: O_14  and  C_9 
REMARK    5  A    between atoms: C_16  and  O_14 
ROOT
ATOM      1  C   UNL d   1      52.518  32.677  53.393  0.00  0.00     0.114 A 
ATOM      2  C   UNL d   1      51.820  33.704  52.893  0.00  0.00     0.094 A 
ATOM      3  S   UNL d   1      51.811  32.903  53.023  0.00  0.00    -0.062 SA
ATOM      4  C   UNL d   1      52.565  33.976  53.197  0.00  0.00     0.013 A 
ATOM      5  C   UNL d   1      52.965  33.361  53.488  0.00  0.00     0.027 A 
ATOM      6  C   UNL d   1      52.835  34.764  53.191  0.00  0.00     0.001 C 
ENDROOT
BRANCH   1   7
ATOM      7  N   UNL d   1      52.752  31.881  53.637  0.00  0.00    -0.201 NA
ATOM      8  C   UNL d   1      52.870  31.298  53.065  0.00  0.00     0.280 C 
ATOM      9  O   UNL d   1      52.768  31.465  52.263  0.00  0.00    -0.265 OA
BRANCH   8  10
ATOM     10  C   UNL d   1      53.092  30.542  53.296  0.00  0.00     0.058 A 
ATOM     11  C   UNL d   1      52.963  29.730  53.362  0.00  0.00     0.005 A 
ATOM     12  C   UNL d   1      53.640  29.952  53.664  0.00  0.00     0.005 A 
ENDBRANCH   8  10
ENDBRANCH   1   7
BRANCH   2  13
ATOM     13  C   UNL d   1      51.222  34.171  52.534  0.00  0.00     0.306 C 
ATOM     14  O   UNL d   1      51.310  34.374  51.742  0.00  0.00    -0.258 OA
BRANCH  13  15
ATOM     15  O   UNL d   1      50.561  34.426  52.954  0.00  0.00    -0.271 OA
BRANCH  15  16
ATOM     16  C   UNL d   1      49.874  34.660  52.556  0.00  0.00     0.126 C 
ATOM     17  C   UNL d   1      49.275  35.051  52.983  0.00  0.00     0.029 C 
ENDBRANCH  15  16
ENDBRANCH  13  15
ENDBRANCH   2  13
TORSDOF 5
ENDMDL
MODEL 3
REMARK VINA RESULT:      -6.7      2.237      3.207
REMARK  5 active torsions:
REMARK  status: ('A' for Active; 'I' for Inactive)
REMARK    1  A    between atoms: N_5  and  C_1 
REMARK    2  A    between atoms: C_9  and  C_2 
REMARK       I    between atoms: C_6  and  N_5 
REMARK    3  A    between atoms: C_8  and  C_6 
REMARK    4  A    between atoms: O_14  and  C_9 
REMARK    5  A    between atoms: C_16  and  O_14 
ROOT
ATOM      1  C   UNL d   1      53.840  32.203  53.688  0.00  0.00     0.114 A 
ATOM      2  C   UNL d   1      53.313  30.986  53.505  0.00  0.00     0.094 A 
ATOM      3  S   UNL d   1      53.943  31.391  53.820  0.00  0.00    -0.062 SA
ATOM      4  C   UNL d   1      52.807  31.578  53.168  0.00  0.00     0.013 A 
ATOM      5  C   UNL d   1      53.129  32.289  53.282  0.00  0.00     0.027 A 
ATOM      6  C   UNL d   1      52.085  31.436  52.777  0.00  0.00     0.001 C 
ENDROOT
BRANCH   1   7
ATOM      7  N   UNL d   1      54.369  32.844  53.924  0.00  0.00    -0.201 NA
ATOM      8  C   UNL d   1      54.431  33.048  54.721  0.00  0.00     0.280 C 
ATOM      9  O   UNL d   1      53.995  32.647  55.296  0.00  0.00    -0.265 OA
BRANCH   8  10
ATOM     10  C   UNL d   1      54.935  33.658  54.946  0.00  0.00     0.058 A 
ATOM     11  C   UNL d   1      55.097  34.364  55.340  0.00  0.00     0.005 A 
ATOM     12  C   UNL d   1      55.712  34.079  54.966  0.00  0.00     0.005 A 
ENDBRANCH   8  10
ENDBRANCH   1   7
BRANCH   2  13
ATOM     13  C   UNL d   1      53.185  30.156  53.510  0.00  0.00     0.306 C 
ATOM     14  O   UNL d   1      53.058  29.778  52.791  0.00  0.00    -0.258 OA
BRANCH  13  15
ATOM     15  O   UNL d   1      53.183  29.722  54.210  0.00  0.00    -0.271 OA
BRANCH  15  16
ATOM     16  C   UNL d   1      53.296  28.903  54.197  0.00  0.00     0.126 C 
ATOM     17  C   UNL d   1      53.367  28.495  54.921  0.00  0.00     0.029 C 
ENDBRANCH  15  16
ENDBRANCH  13  15
ENDBRANCH   2  13
TORSDOF 5
ENDMDL
MODEL 4
REMARK VINA RESULT:      -6.7      1.396      3.913
REMARK  5 active torsions:
REMARK  status: ('A' for Active; 'I' for Inactive)
REMARK    1  A    between atoms: N_5  and  C_1 
REMARK    2  A    between atoms: C_9  and  C_2 
REMARK       I    between atoms: C_6  and  N_5 
REMARK    3  A    between atoms: C_8  and  C_6 
REMARK    4  A    between atoms: O_14  and  C_9 
REMARK    5  A    between atoms: C_16  and  O_14 
ROOT
ATOM      1  C   UNL d   1      53.626  31.773  54.008  0.00  0.00     0.114 A 
ATOM      2  C   UNL d   1      53.271  33.000  53.608  0.00  0.00     0.094 A 
ATOM      3  S   UNL d   1      52.991  32.295  53.898  0.00  0.00    -0.062 SA
ATOM      4  C   UNL d   1      54.111  32.901  53.541  0.00  0.00     0.013 A 
ATOM      5  C   UNL d   1      54.306  32.175  53.780  0.00  0.00     0.027 A 
ATOM      6  C   UNL d   1      54.649  33.476  53.268  0.00  0.00     0.001 C 
ENDROOT
BRANCH   1   7
ATOM      7  N   UNL d   1      53.592  30.962  54.306  0.00  0.00    -0.201 NA
ATOM      8  C   UNL d   1      53.352  30.354  53.803  0.00  0.00     0.280 C 
ATOM      9  O   UNL d   1      53.143  30.509  53.020  0.00  0.00    -0.265 OA
BRANCH   8  10
ATOM     10  C   UNL d   1      53.320  29.582  54.086  0.00  0.00     0.058 A 
ATOM     11  C   UNL d   1      53.292  28.765  53.979  0.00  0.00     0.005 A 
ATOM     12  C   UNL d   1      53.289  28.972  54.725  0.00  0.00     0.005 A 
ENDBRANCH   8  10
ENDBRANCH   1   7
BRANCH   2  13
ATOM     13  C   UNL d   1      52.827  33.686  53.415  0.00  0.00     0.306 C 
ATOM     14  O   UNL d   1      52.950  34.367  53.859  0.00  0.00    -0.258 OA
BRANCH  13  15
ATOM     15  O   UNL d   1      52.281  33.689  52.798  0.00  0.00    -0.271 OA
BRANCH  15  16
ATOM     16  C   UNL d   1      51.742  34.311  52.717  0.00  0.00     0.126 C 
ATOM     17  C   UNL d   1      51.170  34.272  52.112  0.00  0.00     0.029 C 
ENDBRANCH  15  16
ENDBRANCH  13  15
ENDBRANCH   2  13
TORSDOF 5
ENDMDL
MODEL 5
REMARK VINA RESULT:      -6.2      1.728      4.270
REMARK  5 active torsions:
REMARK  status: ('A' for Active; 'I' for Inactive)
REMARK    1  A    between atoms: N_5  and  C_1 
REMARK    2  A    between atoms: C_9  and  C_2 
REMARK       I    between atoms: C_6  and  N_5 
REMARK    3  A    between atoms: C_8  and  C_6 
REMARK    4  A    between atoms: O_14  and  C_9 
REMARK    5  A    between atoms: C_16  and  O_14 
ROOT
ATOM      1  C   UNL d   1      52.517  34.237  53.529  0.00  0.00     0.114 A 
ATOM      2  C   UNL d   1      51.277  34.270  53.028  0.00  0.00     0.094 A 
ATOM      3  S   UNL d   1      51.709  34.230  53.714  0.00  0.00    -0.062 SA
ATOM      4  C   UNL d   1      51.848  34.302  52.400  0.00  0.00     0.013 A 
ATOM      5  C   UNL d   1      52.573  34.282  52.710  0.00  0.00     0.027 A 
ATOM      6  C   UNL d   1      51.675  34.349  51.587  0.00  0.00     0.001 C 
ENDROOT
BRANCH   1   7
ATOM      7  N   UNL d   1      53.182  34.204  54.082  0.00  0.00    -0.201 NA
ATOM      8  C   UNL d   1      53.527  33.476  54.260  0.00  0.00     0.280 C 
ATOM      9  O   UNL d   1      53.246  32.779  53.919  0.00  0.00    -0.265 OA
BRANCH   8  10
ATOM     10  C   UNL d   1      54.158  33.445  54.785  0.00  0.00     0.058 A 
ATOM     11  C   UNL d   1      54.494  33.254  55.514  0.00  0.00     0.005 A 
ATOM     12  C   UNL d   1      54.999  33.580  55.025  0.00  0.00     0.005 A 
ENDBRANCH   8  10
ENDBRANCH   1   7
BRANCH   2  13
ATOM     13  C   UNL d   1      50.441  34.277  52.949  0.00  0.00     0.306 C 
ATOM     14  O   UNL d   1      50.060  33.569  52.778  0.00  0.00    -0.258 OA
BRANCH  13  15
ATOM     15  O   UNL d   1      50.004  34.970  53.038  0.00  0.00    -0.271 OA
BRANCH  15  16
ATOM     16  C   UNL d   1      49.177  34.951  53.015  0.00  0.00     0.126 C 
ATOM     17  C   UNL d   1      48.754  35.655  53.161  0.00  0.00     0.029 C 
ENDBRANCH  15  16
ENDBRANCH  13  15
ENDBRANCH   2  13
TORSDOF 5
ENDMDL
