MODEL 1
REMARK VINA RESULT:      83.9      0.000      0.000
REMARK  6 active torsions:
REMARK  status: ('A' for Active; 'I' for Inactive)
REMARK    1  A    between atoms: C_9  and  C_2 
REMARK    2  A    between atoms: N_3  and  C_7 
REMARK       I    between atoms: C_8  and  N_14 
REMARK    3  A    between atoms: C_10  and  C_8 
REMARK    4  A    between atoms: C_13  and  C_10 
REMARK    5  A    between atoms: C_19  and  C_13 
REMARK    6  A    between atoms: N_14  and  C_20 
ROOT
ATOM      1  C   UNL d   1     -56.682-100.498 -43.765  0.00  0.00     0.041 A 
ATOM      2  C   UNL d   1     -56.417-100.129 -43.084  0.00  0.00     0.005 A 
ATOM      3  C   UNL d   1     -56.419-101.233 -44.000  0.00  0.00     0.005 A 
ATOM      4  C   UNL d   1     -55.596-101.259 -42.855  0.00  0.00     0.085 A 
ATOM      5  C   UNL d   1     -55.855-100.544 -42.630  0.00  0.00     0.019 A 
ATOM      6  C   UNL d   1     -55.864-101.624 -43.537  0.00  0.00     0.019 A 
ENDROOT
BRANCH   4   7
ATOM      7  N   UNL d   1     -55.040-101.631 -42.373  0.00  0.00    -0.208 NA
ATOM      8  C   UNL d   1     -55.268-102.274 -41.900  0.00  0.00     0.279 C 
ATOM      9  O   UNL d   1     -56.048-102.522 -41.927  0.00  0.00    -0.265 OA
BRANCH   8  10
ATOM     10  C   UNL d   1     -54.714-102.649 -41.416  0.00  0.00     0.062 C 
BRANCH  10  11
ATOM     11  C   UNL d   1     -54.902-102.879 -40.655  0.00  0.00     0.005 C 
BRANCH  11  12
ATOM     12  C   UNL d   1     -54.892-102.333 -40.011  0.00  0.00     0.002 A 
ATOM     13  C   UNL d   1     -55.049-102.598 -39.244  0.00  0.00     0.024 A 
ATOM     14  C   UNL d   1     -55.037-102.046 -38.603  0.00  0.00     0.127 A 
ATOM     15  C   UNL d   1     -54.869-101.250 -38.760  0.00  0.00     0.024 A 
ATOM     16  C   UNL d   1     -54.715-101.007 -39.533  0.00  0.00     0.002 A 
ATOM     17  C   UNL d   1     -54.725-101.543 -40.165  0.00  0.00     0.000 A 
BRANCH  14  18
ATOM     18  N   UNL d   1     -55.191-102.291 -37.836  0.00  0.00    -0.114 N 
ATOM     19  O   UNL d   1     -55.802-102.819 -37.599  0.00  0.00    -0.532 OA
ATOM     20  O   UNL d   1     -54.750-102.042 -37.182  0.00  0.00    -0.532 OA
ENDBRANCH  14  18
ENDBRANCH  11  12
ENDBRANCH  10  11
ENDBRANCH   8  10
ENDBRANCH   4   7
BRANCH   1  21
ATOM     21  C   UNL d   1     -57.243-100.092 -44.225  0.00  0.00     0.182 A 
ATOM     22  N   UNL d   1     -57.276 -99.860 -45.022  0.00  0.00    -0.220 NA
ATOM     23  C   UNL d   1     -57.985 -99.471 -45.146  0.00  0.00     0.106 A 
ATOM     24  C   UNL d   1     -58.390 -99.461 -44.429  0.00  0.00     0.119 A 
ATOM     25  C   UNL d   1     -58.317 -99.122 -45.823  0.00  0.00     0.021 A 
ATOM     26  C   UNL d   1     -59.127 -99.103 -44.386  0.00  0.00     0.026 A 
ATOM     27  O   UNL d   1     -57.941 -99.833 -43.885  0.00  0.00    -0.288 OA
ATOM     28  C   UNL d   1     -59.467 -98.756 -45.036  0.00  0.00     0.002 A 
ATOM     29  C   UNL d   1     -59.066 -98.759 -45.771  0.00  0.00     0.002 A 
ENDBRANCH   1  21
TORSDOF 6
ENDMDL
