MODEL 1
REMARK VINA RESULT:     106.3      0.000      0.000
REMARK  6 active torsions:
REMARK  status: ('A' for Active; 'I' for Inactive)
REMARK    1  A    between atoms: N_3  and  S_1 
REMARK    2  A    between atoms: C_10  and  S_1 
REMARK    3  A    between atoms: N_2  and  C_12 
REMARK    4  A    between atoms: C_4  and  N_3 
REMARK       I    between atoms: C_7  and  N_11 
REMARK    5  A    between atoms: C_15  and  C_7 
REMARK    6  A    between atoms: N_11  and  C_30 
ROOT
ATOM      1  C   UNL d   1      45.563 -18.391  40.638  0.00  0.00     0.106 A 
ATOM      2  C   UNL d   1      44.768 -18.271  40.805  0.00  0.00     0.015 A 
ATOM      3  C   UNL d   1      45.914 -18.058  39.968  0.00  0.00     0.015 A 
ATOM      4  C   UNL d   1      44.648 -17.472  39.625  0.00  0.00     0.085 A 
ATOM      5  C   UNL d   1      45.455 -17.597  39.460  0.00  0.00     0.020 A 
ATOM      6  C   UNL d   1      44.309 -17.811  40.297  0.00  0.00     0.020 A 
ENDROOT
BRANCH   4   7
ATOM      7  N   UNL d   1      44.189 -17.006  39.109  0.00  0.00    -0.208 NA
ATOM      8  C   UNL d   1      43.490 -16.653  39.374  0.00  0.00     0.279 C 
ATOM      9  O   UNL d   1      43.250 -16.766  40.154  0.00  0.00    -0.265 OA
BRANCH   8  10
ATOM     10  C   UNL d   1      43.039 -16.193  38.859  0.00  0.00     0.058 A 
ATOM     11  C   UNL d   1      43.317 -16.026  38.108  0.00  0.00     0.006 A 
ATOM     12  C   UNL d   1      42.870 -15.568  37.593  0.00  0.00     0.018 A 
ATOM     13  C   UNL d   1      42.143 -15.269  37.813  0.00  0.00     0.070 A 
ATOM     14  C   UNL d   1      41.850 -15.435  38.582  0.00  0.00     0.018 A 
ATOM     15  C   UNL d   1      42.296 -15.894  39.100  0.00  0.00     0.006 A 
BRANCH  13  16
ATOM     16  N   UNL d   1      41.695 -14.807  37.291  0.00  0.00    -0.242 N 
ATOM     17  C   UNL d   1      41.142 -15.123  36.755  0.00  0.00     0.267 A 
ATOM     18  C   UNL d   1      40.808 -14.490  36.330  0.00  0.00     0.066 A 
ATOM     19  O   UNL d   1      40.951 -15.944  36.656  0.00  0.00    -0.267 OA
ATOM     20  C   UNL d   1      41.154 -13.800  36.607  0.00  0.00     0.066 A 
ATOM     21  C   UNL d   1      41.699 -13.998  37.197  0.00  0.00     0.267 A 
ATOM     22  O   UNL d   1      42.166 -13.461  37.618  0.00  0.00    -0.267 OA
ENDBRANCH  13  16
ENDBRANCH   8  10
ENDBRANCH   4   7
BRANCH   1  23
ATOM     23  S   UNL d   1      46.022 -18.852  41.146  0.00  0.00     0.300 S 
ATOM     24  O   UNL d   1      45.417 -19.404  41.214  0.00  0.00    -0.198 OA
ATOM     25  O   UNL d   1      46.647 -18.306  41.093  0.00  0.00    -0.198 OA
BRANCH  23  26
ATOM     26  N   UNL d   1      46.485 -19.312  41.656  0.00  0.00     0.034 NA
BRANCH  26  27
ATOM     27  C   UNL d   1      46.457 -19.183  42.471  0.00  0.00     0.760 A 
ATOM     28  N   UNL d   1      46.376 -19.818  42.996  0.00  0.00    -0.059 NA
ATOM     29  C   UNL d   1      46.347 -19.696  43.807  0.00  0.00     0.101 A 
ATOM     30  C   UNL d   1      46.267 -20.328  44.325  0.00  0.00     0.021 C 
ATOM     31  C   UNL d   1      46.400 -18.916  44.111  0.00  0.00     0.040 A 
ATOM     32  C   UNL d   1      46.481 -18.276  43.596  0.00  0.00     0.101 A 
ATOM     33  N   UNL d   1      46.510 -18.403  42.774  0.00  0.00    -0.059 NA
ATOM     34  C   UNL d   1      46.534 -17.507  43.896  0.00  0.00     0.021 C 
ENDBRANCH  26  27
ENDBRANCH  23  26
ENDBRANCH   1  23
TORSDOF 6
ENDMDL
