MODEL 1
REMARK VINA RESULT:     100.6      0.000      0.000
REMARK  6 active torsions:
REMARK  status: ('A' for Active; 'I' for Inactive)
REMARK    1  A    between atoms: C_7  and  C_1 
REMARK    2  A    between atoms: C_9  and  N_2 
REMARK    3  A    between atoms: C_15  and  C_7 
REMARK    4  A    between atoms: C_8  and  C_9 
REMARK       I    between atoms: N_14  and  C_8 
REMARK    5  A    between atoms: C_20  and  N_14 
REMARK    6  A    between atoms: C_34  and  C_33 
ROOT
ATOM      1  C   UNL d   1     -50.261  27.353  34.304  0.00  0.00     0.095 A 
ATOM      2  N   UNL d   1     -49.666  27.388  35.608  0.00  0.00    -0.300 N 
ATOM      3  C   UNL d   1     -49.731  27.975  34.062  0.00  0.00     0.202 A 
ATOM      4  C   UNL d   1     -50.229  27.062  35.069  0.00  0.00     0.087 A 
ATOM      5  C   UNL d   1     -49.182  28.282  34.612  0.00  0.00     0.056 A 
ATOM      6  C   UNL d   1     -49.141  27.999  35.380  0.00  0.00     0.067 A 
ATOM      7  C   UNL d   1     -48.591  28.318  35.906  0.00  0.00     0.018 A 
ATOM      8  C   UNL d   1     -48.655  28.895  34.385  0.00  0.00     0.016 A 
ATOM      9  O   UNL d   1     -49.763  28.263  33.306  0.00  0.00    -0.286 OA
ATOM     10  C   UNL d   1     -48.106  29.209  34.919  0.00  0.00     0.058 A 
ATOM     11  C   UNL d   1     -48.074  28.920  35.680  0.00  0.00     0.013 A 
ATOM     12 CL   UNL d   1     -47.588  29.816  34.685  0.00  0.00    -0.082 Cl
ENDROOT
BRANCH   2  13
ATOM     13  C   UNL d   1     -49.634  27.100  36.368  0.00  0.00     0.144 C 
BRANCH  13  14
ATOM     14  C   UNL d   1     -50.332  26.939  36.778  0.00  0.00     0.297 C 
ATOM     15  N   UNL d   1     -50.331  26.397  37.393  0.00  0.00    -0.207 NA
ATOM     16  O   UNL d   1     -51.025  27.324  36.569  0.00  0.00    -0.264 OA
BRANCH  15  17
ATOM     17  C   UNL d   1     -51.028  26.237  37.803  0.00  0.00     0.087 A 
ATOM     18  C   UNL d   1     -51.690  26.003  37.391  0.00  0.00     0.045 A 
ATOM     19  C   UNL d   1     -52.387  25.842  37.798  0.00  0.00     0.121 A 
ATOM     20  O   UNL d   1     -53.137  25.596  37.522  0.00  0.00    -0.299 OA
ATOM     21  C   UNL d   1     -52.410  25.919  38.621  0.00  0.00     0.119 A 
ATOM     22  C   UNL d   1     -53.637  25.519  38.187  0.00  0.00     0.304 A 
ATOM     23  O   UNL d   1     -53.187  25.718  38.869  0.00  0.00    -0.300 OA
ATOM     24  C   UNL d   1     -51.743  26.154  39.032  0.00  0.00     0.028 A 
ATOM     25  C   UNL d   1     -51.046  26.314  38.622  0.00  0.00     0.021 A 
ENDBRANCH  15  17
ENDBRANCH  13  14
ENDBRANCH   2  13
BRANCH   1  26
ATOM     26  C   UNL d   1     -50.806  27.042  33.772  0.00  0.00     0.200 C 
ATOM     27  O   UNL d   1     -51.298  27.545  33.354  0.00  0.00    -0.286 OA
BRANCH  26  28
ATOM     28  C   UNL d   1     -50.859  26.229  33.657  0.00  0.00     0.039 A 
ATOM     29  C   UNL d   1     -51.597  25.864  33.523  0.00  0.00     0.003 A 
ATOM     30  C   UNL d   1     -51.657  25.040  33.406  0.00  0.00     0.000 A 
ATOM     31  C   UNL d   1     -50.979  24.581  33.422  0.00  0.00     0.000 A 
ATOM     32  C   UNL d   1     -50.241  24.962  33.559  0.00  0.00     0.000 A 
ATOM     33  C   UNL d   1     -50.178  25.783  33.676  0.00  0.00     0.003 A 
BRANCH  31  34
ATOM     34  C   UNL d   1     -51.036  23.762  33.306  0.00  0.00     0.000 C 
ATOM     35  C   UNL d   1     -51.702  23.376  33.571  0.00  0.00     0.000 C 
ENDBRANCH  31  34
ENDBRANCH  26  28
ENDBRANCH   1  26
TORSDOF 6
ENDMDL
