MODEL 1
REMARK VINA RESULT:       8.6      0.000      0.000
REMARK  4 active torsions:
REMARK  status: ('A' for Active; 'I' for Inactive)
REMARK    1  A    between atoms: N_2  and  S_1 
REMARK    2  A    between atoms: C_4  and  S_1 
REMARK       I    between atoms: C_3  and  N_7 
REMARK    3  A    between atoms: C_6  and  C_3 
REMARK    4  A    between atoms: N_7  and  C_12 
ROOT
ATOM      1  N   UNL d   1     -41.393-121.843 -50.776  0.00  0.00    -0.230 N 
ATOM      2  C   UNL d   1     -41.420-122.424 -51.362  0.00  0.00     0.076 A 
ATOM      3  C   UNL d   1     -41.376-122.218 -52.158  0.00  0.00     0.037 A 
ATOM      4  C   UNL d   1     -41.405-122.814 -52.738  0.00  0.00     0.086 A 
ATOM      5  C   UNL d   1     -41.492-123.225 -51.147  0.00  0.00     0.017 A 
ATOM      6  C   UNL d   1     -41.520-123.816 -51.727  0.00  0.00     0.003 A 
ATOM      7  C   UNL d   1     -41.437-122.058 -49.978  0.00  0.00     0.092 A 
ATOM      8  C   UNL d   1     -41.476-123.602 -52.520  0.00  0.00     0.019 A 
ATOM      9  C   UNL d   1     -41.508-122.850 -49.761  0.00  0.00     0.020 A 
ATOM     10  C   UNL d   1     -41.536-123.433 -50.343  0.00  0.00     0.003 A 
ENDROOT
BRANCH   4  11
ATOM     11  N   UNL d   1     -41.361-122.608 -53.538  0.00  0.00    -0.208 NA
ATOM     12  C   UNL d   1     -42.046-122.566 -53.991  0.00  0.00     0.282 C 
ATOM     13  O   UNL d   1     -42.785-122.729 -53.656  0.00  0.00    -0.265 OA
BRANCH  12  14
ATOM     14  C   UNL d   1     -42.016-122.364 -54.780  0.00  0.00     0.096 A 
ATOM     15  C   UNL d   1     -41.606-122.856 -55.316  0.00  0.00     0.065 A 
ATOM     16 CL   UNL d   1     -41.237-123.539 -55.040  0.00  0.00    -0.082 Cl
ATOM     17  C   UNL d   1     -41.573-122.655 -56.114  0.00  0.00     0.012 A 
ATOM     18  C   UNL d   1     -41.947-121.965 -56.383  0.00  0.00     0.003 A 
ATOM     19  C   UNL d   1     -42.352-121.479 -55.852  0.00  0.00     0.030 A 
ATOM     20  C   UNL d   1     -42.382-121.683 -55.055  0.00  0.00     0.146 A 
ATOM     21  F   UNL d   1     -42.784-121.199 -54.534  0.00  0.00    -0.204 F 
ENDBRANCH  12  14
ENDBRANCH   4  11
BRANCH   1  22
ATOM     22  S   UNL d   1     -41.321-121.049 -51.001  0.00  0.00     0.277 S 
ATOM     23  O   UNL d   1     -41.521-120.830 -50.227  0.00  0.00    -0.199 OA
ATOM     24  O   UNL d   1     -41.123-121.269 -51.762  0.00  0.00    -0.199 OA
BRANCH  22  25
ATOM     25  C   UNL d   1     -41.253-120.258 -51.211  0.00  0.00     0.133 A 
ATOM     26  S   UNL d   1     -41.252-119.957 -51.978  0.00  0.00    -0.074 SA
ATOM     27  C   UNL d   1     -41.173-119.143 -51.937  0.00  0.00     0.036 A 
ATOM     28  C   UNL d   1     -41.123-118.928 -51.141  0.00  0.00     0.008 A 
ATOM     29  C   UNL d   1     -41.173-119.624 -50.692  0.00  0.00     0.020 A 
ENDBRANCH  22  25
ENDBRANCH   1  22
TORSDOF 4
ENDMDL
MODEL 2
REMARK VINA RESULT:      10.7      1.305      2.586
REMARK  4 active torsions:
REMARK  status: ('A' for Active; 'I' for Inactive)
REMARK    1  A    between atoms: N_2  and  S_1 
REMARK    2  A    between atoms: C_4  and  S_1 
REMARK       I    between atoms: C_3  and  N_7 
REMARK    3  A    between atoms: C_6  and  C_3 
REMARK    4  A    between atoms: N_7  and  C_12 
ROOT
ATOM      1  N   UNL d   1     -41.731-121.082 -50.755  0.00  0.00    -0.230 N 
ATOM      2  C   UNL d   1     -41.570-120.931 -51.550  0.00  0.00     0.076 A 
ATOM      3  C   UNL d   1     -41.679-121.517 -52.118  0.00  0.00     0.037 A 
ATOM      4  C   UNL d   1     -41.512-121.351 -52.916  0.00  0.00     0.086 A 
ATOM      5  C   UNL d   1     -41.294-120.180 -51.780  0.00  0.00     0.017 A 
ATOM      6  C   UNL d   1     -41.129-120.018 -52.576  0.00  0.00     0.003 A 
ATOM      7  C   UNL d   1     -41.619-120.488 -50.189  0.00  0.00     0.092 A 
ATOM      8  C   UNL d   1     -41.241-120.609 -53.138  0.00  0.00     0.019 A 
ATOM      9  C   UNL d   1     -41.346-119.743 -50.414  0.00  0.00     0.020 A 
ATOM     10  C   UNL d   1     -41.184-119.589 -51.206  0.00  0.00     0.003 A 
ENDROOT
BRANCH   4  11
ATOM     11  N   UNL d   1     -41.622-121.939 -53.487  0.00  0.00    -0.208 NA
ATOM     12  C   UNL d   1     -42.186-121.840 -54.077  0.00  0.00     0.282 C 
ATOM     13  O   UNL d   1     -42.650-121.155 -54.110  0.00  0.00    -0.265 OA
BRANCH  12  14
ATOM     14  C   UNL d   1     -42.303-122.413 -54.646  0.00  0.00     0.096 A 
ATOM     15  C   UNL d   1     -42.318-122.196 -55.452  0.00  0.00     0.065 A 
ATOM     16 CL   UNL d   1     -42.213-121.406 -55.663  0.00  0.00    -0.082 Cl
ATOM     17  C   UNL d   1     -42.436-122.771 -56.029  0.00  0.00     0.012 A 
ATOM     18  C   UNL d   1     -42.541-123.564 -55.809  0.00  0.00     0.003 A 
ATOM     19  C   UNL d   1     -42.526-123.777 -55.011  0.00  0.00     0.030 A 
ATOM     20  C   UNL d   1     -42.407-123.199 -54.437  0.00  0.00     0.146 A 
ATOM     21  F   UNL d   1     -42.394-123.416 -53.649  0.00  0.00    -0.204 F 
ENDBRANCH  12  14
ENDBRANCH   4  11
BRANCH   1  22
ATOM     22  S   UNL d   1     -42.005-121.834 -50.536  0.00  0.00     0.277 S 
ATOM     23  O   UNL d   1     -41.234-122.123 -50.632  0.00  0.00    -0.199 OA
ATOM     24  O   UNL d   1     -42.763-121.544 -50.444  0.00  0.00    -0.199 OA
BRANCH  22  25
ATOM     25  C   UNL d   1     -42.263-122.583 -50.322  0.00  0.00     0.133 A 
ATOM     26  S   UNL d   1     -42.976-122.933 -50.543  0.00  0.00    -0.074 SA
ATOM     27  C   UNL d   1     -43.011-123.680 -50.209  0.00  0.00     0.036 A 
ATOM     28  C   UNL d   1     -42.320-123.802 -49.775  0.00  0.00     0.008 A 
ATOM     29  C   UNL d   1     -41.856-123.118 -49.847  0.00  0.00     0.020 A 
ENDBRANCH  22  25
ENDBRANCH   1  22
TORSDOF 4
ENDMDL
MODEL 3
REMARK VINA RESULT:      11.2      1.871      4.000
REMARK  4 active torsions:
REMARK  status: ('A' for Active; 'I' for Inactive)
REMARK    1  A    between atoms: N_2  and  S_1 
REMARK    2  A    between atoms: C_4  and  S_1 
REMARK       I    between atoms: C_3  and  N_7 
REMARK    3  A    between atoms: C_6  and  C_3 
REMARK    4  A    between atoms: N_7  and  C_12 
ROOT
ATOM      1  N   UNL d   1     -41.543-121.612 -53.854  0.00  0.00    -0.230 N 
ATOM      2  C   UNL d   1     -41.627-122.315 -53.429  0.00  0.00     0.076 A 
ATOM      3  C   UNL d   1     -41.603-122.313 -52.607  0.00  0.00     0.037 A 
ATOM      4  C   UNL d   1     -41.690-123.029 -52.191  0.00  0.00     0.086 A 
ATOM      5  C   UNL d   1     -41.738-123.033 -53.837  0.00  0.00     0.017 A 
ATOM      6  C   UNL d   1     -41.825-123.744 -53.420  0.00  0.00     0.003 A 
ATOM      7  C   UNL d   1     -41.568-121.622 -54.681  0.00  0.00     0.092 A 
ATOM      8  C   UNL d   1     -41.799-123.733 -52.598  0.00  0.00     0.019 A 
ATOM      9  C   UNL d   1     -41.678-122.331 -55.088  0.00  0.00     0.020 A 
ATOM     10  C   UNL d   1     -41.763-123.035 -54.667  0.00  0.00     0.003 A 
ENDROOT
BRANCH   4  11
ATOM     11  N   UNL d   1     -41.665-123.027 -51.365  0.00  0.00    -0.208 NA
ATOM     12  C   UNL d   1     -42.360-123.102 -50.932  0.00  0.00     0.282 C 
ATOM     13  O   UNL d   1     -43.090-123.181 -51.313  0.00  0.00    -0.265 OA
BRANCH  12  14
ATOM     14  C   UNL d   1     -42.349-123.102 -50.117  0.00  0.00     0.096 A 
ATOM     15  C   UNL d   1     -42.971-122.736 -49.696  0.00  0.00     0.065 A 
ATOM     16 CL   UNL d   1     -43.588-122.381 -50.111  0.00  0.00    -0.082 Cl
ATOM     17  C   UNL d   1     -42.964-122.734 -48.873  0.00  0.00     0.012 A 
ATOM     18  C   UNL d   1     -42.339-123.094 -48.463  0.00  0.00     0.003 A 
ATOM     19  C   UNL d   1     -41.724-123.455 -48.880  0.00  0.00     0.030 A 
ATOM     20  C   UNL d   1     -41.735-123.455 -49.703  0.00  0.00     0.146 A 
ATOM     21  F   UNL d   1     -41.124-123.814 -50.110  0.00  0.00    -0.204 F 
ENDBRANCH  12  14
ENDBRANCH   4  11
BRANCH   1  22
ATOM     22  S   UNL d   1     -41.432-120.903 -53.439  0.00  0.00     0.277 S 
ATOM     23  O   UNL d   1     -41.123-121.342 -52.807  0.00  0.00    -0.199 OA
ATOM     24  O   UNL d   1     -41.738-120.476 -54.064  0.00  0.00    -0.199 OA
BRANCH  22  25
ATOM     25  C   UNL d   1     -41.318-120.209 -53.016  0.00  0.00     0.133 A 
ATOM     26  S   UNL d   1     -41.252-119.451 -53.336  0.00  0.00    -0.074 SA
ATOM     27  C   UNL d   1     -41.143-118.921 -52.721  0.00  0.00     0.036 A 
ATOM     28  C   UNL d   1     -41.139-119.343 -52.012  0.00  0.00     0.008 A 
ATOM     29  C   UNL d   1     -41.248-120.144 -52.199  0.00  0.00     0.020 A 
ENDBRANCH  22  25
ENDBRANCH   1  22
TORSDOF 4
ENDMDL
