MODEL 1
REMARK VINA RESULT:      -8.3      0.000      0.000
REMARK  4 active torsions:
REMARK  status: ('A' for Active; 'I' for Inactive)
REMARK    1  A    between atoms: C_2  and  N_1 
REMARK    2  A    between atoms: C_9  and  C_10 
REMARK       I    between atoms: N_11  and  C_9 
REMARK    3  A    between atoms: C_21  and  N_11 
REMARK    4  A    between atoms: C_20  and  C_21 
ROOT
ATOM      1  C   UNL d   1     -49.103  12.312  23.230  0.00  0.00     0.279 C 
ATOM      2  N   UNL d   1     -48.284  12.363  23.274  0.00  0.00    -0.206 NA
ATOM      3  O   UNL d   1     -49.494  11.669  23.563  0.00  0.00    -0.265 OA
ENDROOT
BRANCH   1   4
ATOM      4  C   UNL d   1     -49.536  12.907  22.851  0.00  0.00     0.059 A 
ATOM      5  C   UNL d   1     -49.508  13.683  23.148  0.00  0.00     0.028 A 
ATOM      6  C   UNL d   1     -49.945  14.267  22.761  0.00  0.00     0.127 A 
ATOM      7  C   UNL d   1     -50.403  14.084  22.089  0.00  0.00     0.022 A 
ATOM      8  C   UNL d   1     -50.421  13.311  21.807  0.00  0.00     0.002 A 
ATOM      9  C   UNL d   1     -50.834  14.666  21.708  0.00  0.00     0.002 C 
ATOM     10  C   UNL d   1     -49.989  12.718  22.184  0.00  0.00     0.005 A 
BRANCH   6  11
ATOM     11  N   UNL d   1     -49.927  15.045  23.044  0.00  0.00    -0.114 N 
ATOM     12  O   UNL d   1     -50.550  15.338  23.497  0.00  0.00    -0.532 OA
ATOM     13  O   UNL d   1     -49.285  15.537  22.878  0.00  0.00    -0.532 OA
ENDBRANCH   6  11
ENDBRANCH   1   4
BRANCH   2  14
ATOM     14  C   UNL d   1     -47.853  11.777  23.648  0.00  0.00     0.102 C 
BRANCH  14  15
ATOM     15  C   UNL d   1     -47.038  11.729  23.537  0.00  0.00     0.019 A 
ATOM     16  C   UNL d   1     -46.644  11.022  23.698  0.00  0.00     0.003 A 
ATOM     17  C   UNL d   1     -45.825  10.967  23.588  0.00  0.00     0.019 A 
ATOM     18  C   UNL d   1     -45.294  10.356  23.698  0.00  0.00     0.021 A 
ATOM     19  C   UNL d   1     -45.410  11.625  23.319  0.00  0.00     0.081 A 
ATOM     20  C   UNL d   1     -44.543  10.631  23.496  0.00  0.00     0.082 A 
ATOM     21  C   UNL d   1     -43.844  10.196  23.524  0.00  0.00     0.021 C 
ATOM     22  N   UNL d   1     -44.614  11.417  23.261  0.00  0.00    -0.246 NA
ATOM     23  C   UNL d   1     -45.800  12.330  23.158  0.00  0.00     0.019 A 
ATOM     24  C   UNL d   1     -46.616  12.383  23.268  0.00  0.00     0.003 A 
ENDBRANCH  14  15
ENDBRANCH   2  14
TORSDOF 4
ENDMDL
MODEL 2
REMARK VINA RESULT:      -7.8      1.160      1.486
REMARK  4 active torsions:
REMARK  status: ('A' for Active; 'I' for Inactive)
REMARK    1  A    between atoms: C_2  and  N_1 
REMARK    2  A    between atoms: C_9  and  C_10 
REMARK       I    between atoms: N_11  and  C_9 
REMARK    3  A    between atoms: C_21  and  N_11 
REMARK    4  A    between atoms: C_20  and  C_21 
ROOT
ATOM      1  C   UNL d   1     -47.869  14.086  22.378  0.00  0.00     0.279 C 
ATOM      2  N   UNL d   1     -47.504  13.372  22.555  0.00  0.00    -0.206 NA
ATOM      3  O   UNL d   1     -47.440  14.788  22.406  0.00  0.00    -0.265 OA
ENDROOT
BRANCH   1   4
ATOM      4  C   UNL d   1     -48.671  14.102  22.169  0.00  0.00     0.059 A 
ATOM      5  C   UNL d   1     -49.200  14.556  22.622  0.00  0.00     0.028 A 
ATOM      6  C   UNL d   1     -49.996  14.563  22.404  0.00  0.00     0.127 A 
ATOM      7  C   UNL d   1     -50.263  14.128  21.746  0.00  0.00     0.022 A 
ATOM      8  C   UNL d   1     -49.727  13.683  21.307  0.00  0.00     0.002 A 
ATOM      9  C   UNL d   1     -51.054  14.138  21.532  0.00  0.00     0.002 C 
ATOM     10  C   UNL d   1     -48.929  13.667  21.514  0.00  0.00     0.005 A 
BRANCH   6  11
ATOM     11  N   UNL d   1     -50.536  15.010  22.845  0.00  0.00    -0.114 N 
ATOM     12  O   UNL d   1     -50.721  15.781  22.620  0.00  0.00    -0.532 OA
ATOM     13  O   UNL d   1     -50.895  14.691  23.516  0.00  0.00    -0.532 OA
ENDBRANCH   6  11
ENDBRANCH   1   4
BRANCH   2  14
ATOM     14  C   UNL d   1     -46.713  13.353  22.762  0.00  0.00     0.102 C 
BRANCH  14  15
ATOM     15  C   UNL d   1     -46.366  12.646  23.004  0.00  0.00     0.019 A 
ATOM     16  C   UNL d   1     -45.583  12.484  22.801  0.00  0.00     0.003 A 
ATOM     17  C   UNL d   1     -45.228  11.775  23.042  0.00  0.00     0.019 A 
ATOM     18  C   UNL d   1     -44.481  11.466  22.928  0.00  0.00     0.021 A 
ATOM     19  C   UNL d   1     -45.665  11.236  23.485  0.00  0.00     0.081 A 
ATOM     20  C   UNL d   1     -44.448  10.731  23.301  0.00  0.00     0.082 A 
ATOM     21  C   UNL d   1     -43.796  10.228  23.324  0.00  0.00     0.021 C 
ATOM     22  N   UNL d   1     -45.182  10.588  23.647  0.00  0.00    -0.246 NA
ATOM     23  C   UNL d   1     -46.445  11.397  23.689  0.00  0.00     0.019 A 
ATOM     24  C   UNL d   1     -46.797  12.103  23.448  0.00  0.00     0.003 A 
ENDBRANCH  14  15
ENDBRANCH   2  14
TORSDOF 4
ENDMDL
MODEL 3
REMARK VINA RESULT:      -7.7      1.574      2.368
REMARK  4 active torsions:
REMARK  status: ('A' for Active; 'I' for Inactive)
REMARK    1  A    between atoms: C_2  and  N_1 
REMARK    2  A    between atoms: C_9  and  C_10 
REMARK       I    between atoms: N_11  and  C_9 
REMARK    3  A    between atoms: C_21  and  N_11 
REMARK    4  A    between atoms: C_20  and  C_21 
ROOT
ATOM      1  C   UNL d   1     -48.105  13.790  22.686  0.00  0.00     0.279 C 
ATOM      2  N   UNL d   1     -47.432  13.320  22.653  0.00  0.00    -0.206 NA
ATOM      3  O   UNL d   1     -48.056  14.562  22.969  0.00  0.00    -0.265 OA
ENDROOT
BRANCH   1   4
ATOM      4  C   UNL d   1     -48.835  13.489  22.435  0.00  0.00     0.059 A 
ATOM      5  C   UNL d   1     -49.256  12.975  22.935  0.00  0.00     0.028 A 
ATOM      6  C   UNL d   1     -49.982  12.682  22.674  0.00  0.00     0.127 A 
ATOM      7  C   UNL d   1     -50.286  12.895  21.927  0.00  0.00     0.022 A 
ATOM      8  C   UNL d   1     -49.857  13.405  21.444  0.00  0.00     0.002 A 
ATOM      9  C   UNL d   1     -51.006  12.602  21.672  0.00  0.00     0.002 C 
ATOM     10  C   UNL d   1     -49.130  13.706  21.693  0.00  0.00     0.005 A 
BRANCH   6  11
ATOM     11  N   UNL d   1     -50.414  12.169  23.160  0.00  0.00    -0.114 N 
ATOM     12  O   UNL d   1     -51.064  12.446  23.584  0.00  0.00    -0.532 OA
ATOM     13  O   UNL d   1     -50.199  11.376  23.227  0.00  0.00    -0.532 OA
ENDBRANCH   6  11
ENDBRANCH   1   4
BRANCH   2  14
ATOM     14  C   UNL d   1     -46.710  13.615  22.900  0.00  0.00     0.102 C 
BRANCH  14  15
ATOM     15  C   UNL d   1     -46.015  13.214  22.713  0.00  0.00     0.019 A 
ATOM     16  C   UNL d   1     -45.462  13.565  22.212  0.00  0.00     0.003 A 
ATOM     17  C   UNL d   1     -44.760  13.168  22.021  0.00  0.00     0.019 A 
ATOM     18  C   UNL d   1     -44.123  13.369  21.551  0.00  0.00     0.021 A 
ATOM     19  C   UNL d   1     -44.623  12.420  22.336  0.00  0.00     0.081 A 
ATOM     20  C   UNL d   1     -43.584  12.745  21.571  0.00  0.00     0.082 A 
ATOM     21  C   UNL d   1     -42.862  12.715  21.175  0.00  0.00     0.021 C 
ATOM     22  N   UNL d   1     -43.893  12.156  22.058  0.00  0.00    -0.246 NA
ATOM     23  C   UNL d   1     -45.173  12.068  22.835  0.00  0.00     0.019 A 
ATOM     24  C   UNL d   1     -45.871  12.466  23.025  0.00  0.00     0.003 A 
ENDBRANCH  14  15
ENDBRANCH   2  14
TORSDOF 4
ENDMDL
MODEL 4
REMARK VINA RESULT:      -7.3      8.967     10.299
REMARK  4 active torsions:
REMARK  status: ('A' for Active; 'I' for Inactive)
REMARK    1  A    between atoms: C_2  and  N_1 
REMARK    2  A    between atoms: C_9  and  C_10 
REMARK       I    between atoms: N_11  and  C_9 
REMARK    3  A    between atoms: C_21  and  N_11 
REMARK    4  A    between atoms: C_20  and  C_21 
ROOT
ATOM      1  C   UNL d   1     -40.119  14.196  18.460  0.00  0.00     0.279 C 
ATOM      2  N   UNL d   1     -39.855  14.461  19.192  0.00  0.00    -0.206 NA
ATOM      3  O   UNL d   1     -40.901  13.957  18.365  0.00  0.00    -0.265 OA
ENDROOT
BRANCH   1   4
ATOM      4  C   UNL d   1     -39.598  14.168  17.816  0.00  0.00     0.059 A 
ATOM      5  C   UNL d   1     -39.410  14.871  17.415  0.00  0.00     0.028 A 
ATOM      6  C   UNL d   1     -38.891  14.830  16.775  0.00  0.00     0.127 A 
ATOM      7  C   UNL d   1     -38.563  14.102  16.536  0.00  0.00     0.022 A 
ATOM      8  C   UNL d   1     -38.759  13.414  16.943  0.00  0.00     0.002 A 
ATOM      9  C   UNL d   1     -38.048  14.065  15.900  0.00  0.00     0.002 C 
ATOM     10  C   UNL d   1     -39.277  13.441  17.584  0.00  0.00     0.005 A 
BRANCH   6  11
ATOM     11  N   UNL d   1     -38.693  15.522  16.365  0.00  0.00    -0.114 N 
ATOM     12  O   UNL d   1     -37.985  15.914  16.525  0.00  0.00    -0.532 OA
ATOM     13  O   UNL d   1     -39.200  15.829  15.791  0.00  0.00    -0.532 OA
ENDBRANCH   6  11
ENDBRANCH   1   4
BRANCH   2  14
ATOM     14  C   UNL d   1     -40.366  14.489  19.829  0.00  0.00     0.102 C 
BRANCH  14  15
ATOM     15  C   UNL d   1     -40.109  14.791  20.551  0.00  0.00     0.019 A 
ATOM     16  C   UNL d   1     -39.668  14.314  21.061  0.00  0.00     0.003 A 
ATOM     17  C   UNL d   1     -39.406  14.612  21.789  0.00  0.00     0.019 A 
ATOM     18  C   UNL d   1     -38.971  14.280  22.395  0.00  0.00     0.021 A 
ATOM     19  C   UNL d   1     -39.591  15.387  21.996  0.00  0.00     0.081 A 
ATOM     20  C   UNL d   1     -38.881  14.849  22.985  0.00  0.00     0.082 A 
ATOM     21  C   UNL d   1     -38.478  14.750  23.697  0.00  0.00     0.021 C 
ATOM     22  N   UNL d   1     -39.265  15.535  22.739  0.00  0.00    -0.246 NA
ATOM     23  C   UNL d   1     -40.029  15.863  21.490  0.00  0.00     0.019 A 
ATOM     24  C   UNL d   1     -40.289  15.565  20.766  0.00  0.00     0.003 A 
ENDBRANCH  14  15
ENDBRANCH   2  14
TORSDOF 4
ENDMDL
MODEL 5
REMARK VINA RESULT:      -7.3      8.592     10.087
REMARK  4 active torsions:
REMARK  status: ('A' for Active; 'I' for Inactive)
REMARK    1  A    between atoms: C_2  and  N_1 
REMARK    2  A    between atoms: C_9  and  C_10 
REMARK       I    between atoms: N_11  and  C_9 
REMARK    3  A    between atoms: C_21  and  N_11 
REMARK    4  A    between atoms: C_20  and  C_21 
ROOT
ATOM      1  C   UNL d   1     -40.430  14.548  20.543  0.00  0.00     0.279 C 
ATOM      2  N   UNL d   1     -40.088  14.579  19.796  0.00  0.00    -0.206 NA
ATOM      3  O   UNL d   1     -41.185  14.234  20.638  0.00  0.00    -0.265 OA
ENDROOT
BRANCH   1   4
ATOM      4  C   UNL d   1     -40.016  14.833  21.202  0.00  0.00     0.059 A 
ATOM      5  C   UNL d   1     -39.554  14.307  21.649  0.00  0.00     0.028 A 
ATOM      6  C   UNL d   1     -39.146  14.604  22.303  0.00  0.00     0.127 A 
ATOM      7  C   UNL d   1     -39.197  15.410  22.510  0.00  0.00     0.022 A 
ATOM      8  C   UNL d   1     -39.659  15.917  22.056  0.00  0.00     0.002 A 
ATOM      9  C   UNL d   1     -38.791  15.700  23.159  0.00  0.00     0.002 C 
ATOM     10  C   UNL d   1     -40.072  15.635  21.400  0.00  0.00     0.005 A 
BRANCH   6  11
ATOM     11  N   UNL d   1     -38.681  14.093  22.760  0.00  0.00    -0.114 N 
ATOM     12  O   UNL d   1     -38.951  13.825  23.491  0.00  0.00    -0.532 OA
ATOM     13  O   UNL d   1     -37.943  13.845  22.489  0.00  0.00    -0.532 OA
ENDBRANCH   6  11
ENDBRANCH   1   4
BRANCH   2  14
ATOM     14  C   UNL d   1     -40.495  14.298  19.144  0.00  0.00     0.102 C 
BRANCH  14  15
ATOM     15  C   UNL d   1     -40.162  14.358  18.393  0.00  0.00     0.019 A 
ATOM     16  C   UNL d   1     -39.536  13.864  18.183  0.00  0.00     0.003 A 
ATOM     17  C   UNL d   1     -39.196  13.919  17.429  0.00  0.00     0.019 A 
ATOM     18  C   UNL d   1     -38.584  13.514  17.069  0.00  0.00     0.021 A 
ATOM     19  C   UNL d   1     -39.490  14.471  16.894  0.00  0.00     0.081 A 
ATOM     20  C   UNL d   1     -38.494  13.813  16.306  0.00  0.00     0.082 A 
ATOM     21  C   UNL d   1     -37.941  13.563  15.749  0.00  0.00     0.021 C 
ATOM     22  N   UNL d   1     -39.055  14.406  16.197  0.00  0.00    -0.246 NA
ATOM     23  C   UNL d   1     -40.113  14.964  17.102  0.00  0.00     0.019 A 
ATOM     24  C   UNL d   1     -40.450  14.908  17.853  0.00  0.00     0.003 A 
ENDBRANCH  14  15
ENDBRANCH   2  14
TORSDOF 4
ENDMDL
MODEL 6
REMARK VINA RESULT:      -6.3      2.130      5.408
REMARK  4 active torsions:
REMARK  status: ('A' for Active; 'I' for Inactive)
REMARK    1  A    between atoms: C_2  and  N_1 
REMARK    2  A    between atoms: C_9  and  C_10 
REMARK       I    between atoms: N_11  and  C_9 
REMARK    3  A    between atoms: C_21  and  N_11 
REMARK    4  A    between atoms: C_20  and  C_21 
ROOT
ATOM      1  C   UNL d   1     -46.245  13.290  23.201  0.00  0.00     0.279 C 
ATOM      2  N   UNL d   1     -47.040  13.386  23.016  0.00  0.00    -0.206 NA
ATOM      3  O   UNL d   1     -45.767  13.949  23.319  0.00  0.00    -0.265 OA
ENDROOT
BRANCH   1   4
ATOM      4  C   UNL d   1     -45.923  12.530  23.269  0.00  0.00     0.059 A 
ATOM      5  C   UNL d   1     -45.161  12.383  22.972  0.00  0.00     0.028 A 
ATOM      6  C   UNL d   1     -44.851  11.622  23.045  0.00  0.00     0.127 A 
ATOM      7  C   UNL d   1     -45.292  11.014  23.408  0.00  0.00     0.022 A 
ATOM      8  C   UNL d   1     -46.045  11.175  23.697  0.00  0.00     0.002 A 
ATOM      9  C   UNL d   1     -44.981  10.260  23.479  0.00  0.00     0.002 C 
ATOM     10  C   UNL d   1     -46.367  11.932  23.631  0.00  0.00     0.005 A 
BRANCH   6  11
ATOM     11  N   UNL d   1     -44.093  11.460  22.754  0.00  0.00    -0.114 N 
ATOM     12  O   UNL d   1     -43.824  11.827  22.067  0.00  0.00    -0.532 OA
ATOM     13  O   UNL d   1     -43.598  10.930  23.147  0.00  0.00    -0.532 OA
ENDBRANCH   6  11
ENDBRANCH   1   4
BRANCH   2  14
ATOM     14  C   UNL d   1     -47.361  14.135  22.949  0.00  0.00     0.102 C 
BRANCH  14  15
ATOM     15  C   UNL d   1     -48.141  14.230  22.703  0.00  0.00     0.019 A 
ATOM     16  C   UNL d   1     -48.448  13.737  22.116  0.00  0.00     0.003 A 
ATOM     17  C   UNL d   1     -49.232  13.827  21.863  0.00  0.00     0.019 A 
ATOM     18  C   UNL d   1     -49.680  13.432  21.306  0.00  0.00     0.021 A 
ATOM     19  C   UNL d   1     -49.700  14.411  22.205  0.00  0.00     0.081 A 
ATOM     20  C   UNL d   1     -50.432  13.770  21.297  0.00  0.00     0.082 A 
ATOM     21  C   UNL d   1     -51.061  13.541  20.817  0.00  0.00     0.021 C 
ATOM     22  N   UNL d   1     -50.446  14.377  21.854  0.00  0.00    -0.246 NA
ATOM     23  C   UNL d   1     -49.397  14.902  22.789  0.00  0.00     0.019 A 
ATOM     24  C   UNL d   1     -48.616  14.812  23.039  0.00  0.00     0.003 A 
ENDBRANCH  14  15
ENDBRANCH   2  14
TORSDOF 4
ENDMDL
MODEL 7
REMARK VINA RESULT:      -5.4      9.138     10.875
REMARK  4 active torsions:
REMARK  status: ('A' for Active; 'I' for Inactive)
REMARK    1  A    between atoms: C_2  and  N_1 
REMARK    2  A    between atoms: C_9  and  C_10 
REMARK       I    between atoms: N_11  and  C_9 
REMARK    3  A    between atoms: C_21  and  N_11 
REMARK    4  A    between atoms: C_20  and  C_21 
ROOT
ATOM      1  C   UNL d   1     -38.973  13.945  19.083  0.00  0.00     0.279 C 
ATOM      2  N   UNL d   1     -38.806  14.224  18.328  0.00  0.00    -0.206 NA
ATOM      3  O   UNL d   1     -38.567  13.295  19.382  0.00  0.00    -0.265 OA
ENDROOT
BRANCH   1   4
ATOM      4  C   UNL d   1     -39.550  14.319  19.546  0.00  0.00     0.059 A 
ATOM      5  C   UNL d   1     -39.354  14.574  20.312  0.00  0.00     0.028 A 
ATOM      6  C   UNL d   1     -39.938  14.945  20.763  0.00  0.00     0.127 A 
ATOM      7  C   UNL d   1     -40.705  15.061  20.458  0.00  0.00     0.022 A 
ATOM      8  C   UNL d   1     -40.883  14.803  19.697  0.00  0.00     0.002 A 
ATOM      9  C   UNL d   1     -41.281  15.429  20.908  0.00  0.00     0.002 C 
ATOM     10  C   UNL d   1     -40.310  14.431  19.235  0.00  0.00     0.005 A 
BRANCH   6  11
ATOM     11  N   UNL d   1     -39.759  15.204  21.529  0.00  0.00    -0.114 N 
ATOM     12  O   UNL d   1     -39.967  14.747  22.183  0.00  0.00    -0.532 OA
ATOM     13  O   UNL d   1     -39.370  15.922  21.647  0.00  0.00    -0.532 OA
ENDBRANCH   6  11
ENDBRANCH   1   4
BRANCH   2  14
ATOM     14  C   UNL d   1     -38.237  13.857  17.870  0.00  0.00     0.102 C 
BRANCH  14  15
ATOM     15  C   UNL d   1     -38.172  14.040  17.069  0.00  0.00     0.019 A 
ATOM     16  C   UNL d   1     -38.153  13.432  16.511  0.00  0.00     0.003 A 
ATOM     17  C   UNL d   1     -38.087  13.609  15.704  0.00  0.00     0.019 A 
ATOM     18  C   UNL d   1     -38.055  13.138  15.037  0.00  0.00     0.021 A 
ATOM     19  C   UNL d   1     -38.041  14.396  15.467  0.00  0.00     0.081 A 
ATOM     20  C   UNL d   1     -37.989  13.631  14.380  0.00  0.00     0.082 A 
ATOM     21  C   UNL d   1     -37.940  13.387  13.594  0.00  0.00     0.021 C 
ATOM     22  N   UNL d   1     -37.979  14.411  14.645  0.00  0.00    -0.246 NA
ATOM     23  C   UNL d   1     -38.059  15.002  16.021  0.00  0.00     0.019 A 
ATOM     24  C   UNL d   1     -38.125  14.824  16.824  0.00  0.00     0.003 A 
ENDBRANCH  14  15
ENDBRANCH   2  14
TORSDOF 4
ENDMDL
