MODEL 1
REMARK VINA RESULT:       7.4      0.000      0.000
REMARK  8 active torsions:
REMARK  status: ('A' for Active; 'I' for Inactive)
REMARK    1  A    between atoms: C_11  and  C_3 
REMARK    2  A    between atoms: C_10  and  C_4 
REMARK    3  A    between atoms: O_18  and  C_10 
REMARK    4  A    between atoms: N_17  and  C_11 
REMARK    5  A    between atoms: C_12  and  C_15 
REMARK    6  A    between atoms: C_15  and  C_23 
REMARK    7  A    between atoms: C_23  and  N_17 
REMARK    8  A    between atoms: C_24  and  O_18 
ROOT
ATOM      1  C   UNL d   1     -41.602-122.368 -52.198  0.00  0.00     0.035 A 
ATOM      2  C   UNL d   1     -41.628-123.083 -51.780  0.00  0.00     0.100 A 
ATOM      3  C   UNL d   1     -41.470-121.658 -51.796  0.00  0.00     0.060 A 
ATOM      4  C   UNL d   1     -41.722-122.528 -52.988  0.00  0.00     0.088 A 
ATOM      5  O   UNL d   1     -41.762-123.662 -52.310  0.00  0.00    -0.307 OA
ATOM      6  C   UNL d   1     -41.821-123.340 -53.045  0.00  0.00     0.105 A 
ATOM      7  C   UNL d   1     -41.365-121.668 -50.978  0.00  0.00     0.197 A 
ATOM      8  C   UNL d   1     -41.524-123.073 -50.981  0.00  0.00     0.026 A 
ATOM      9  C   UNL d   1     -41.391-122.362 -50.578  0.00  0.00     0.041 A 
ATOM     10  O   UNL d   1     -41.230-120.942 -50.566  0.00  0.00    -0.286 OA
ATOM     11  C   UNL d   1     -41.957-123.741 -53.748  0.00  0.00     0.027 C 
ATOM     12  C   UNL d   1     -41.550-123.788 -50.562  0.00  0.00     0.002 A 
ATOM     13  C   UNL d   1     -41.287-122.373 -49.760  0.00  0.00     0.003 A 
ATOM     14  C   UNL d   1     -41.312-123.076 -49.345  0.00  0.00     0.000 A 
ATOM     15  C   UNL d   1     -41.444-123.786 -49.748  0.00  0.00     0.000 A 
ENDROOT
BRANCH   3  16
ATOM     16  C   UNL d   1     -41.441-120.916 -52.224  0.00  0.00     0.102 C 
BRANCH  16  17
ATOM     17  N   UNL d   1     -41.322-120.193 -51.814  0.00  0.00    -0.242 NA
BRANCH  17  18
ATOM     18  C   UNL d   1     -41.124-119.522 -52.211  0.00  0.00     0.105 C 
BRANCH  18  19
ATOM     19  C   UNL d   1     -41.680-118.924 -52.333  0.00  0.00     0.091 C 
BRANCH  19  20
ATOM     20  C   UNL d   1     -41.440-118.189 -52.635  0.00  0.00     0.213 C 
ATOM     21  O   UNL d   1     -41.404-117.529 -52.139  0.00  0.00    -0.644 OA
ATOM     22  O   UNL d   1     -41.240-118.124 -53.430  0.00  0.00    -0.644 OA
ENDBRANCH  19  20
ENDBRANCH  18  19
ENDBRANCH  17  18
ENDBRANCH  16  17
ENDBRANCH   3  16
BRANCH   4  23
ATOM     23  C   UNL d   1     -41.748-122.008 -53.637  0.00  0.00     0.302 C 
ATOM     24  O   UNL d   1     -41.271-121.319 -53.640  0.00  0.00    -0.259 OA
BRANCH  23  25
ATOM     25  O   UNL d   1     -42.231-122.159 -54.274  0.00  0.00    -0.271 OA
BRANCH  25  26
ATOM     26  C   UNL d   1     -42.071-121.819 -54.992  0.00  0.00     0.126 C 
ATOM     27  C   UNL d   1     -42.448-122.121 -55.645  0.00  0.00     0.029 C 
ENDBRANCH  25  26
ENDBRANCH  23  25
ENDBRANCH   4  23
TORSDOF 8
ENDMDL
