MODEL 1
REMARK VINA RESULT:      -9.5      0.000      0.000
REMARK  3 active torsions:
REMARK  status: ('A' for Active; 'I' for Inactive)
REMARK    1  A    between atoms: C_9  and  C_3 
REMARK    2  A    between atoms: C_8  and  C_5 
REMARK    3  A    between atoms: O_19  and  C_9 
ROOT
ATOM      1  N   UNL d   1      53.192  32.247  53.525  0.00  0.00    -0.278 N 
ATOM      2  C   UNL d   1      52.574  32.090  53.002  0.00  0.00     0.178 A 
ATOM      3  C   UNL d   1      52.861  33.639  53.496  0.00  0.00     0.075 A 
ATOM      4  N   UNL d   1      52.086  32.706  52.716  0.00  0.00    -0.223 NA
ATOM      5  C   UNL d   1      53.331  33.023  53.768  0.00  0.00     0.178 A 
ATOM      6  C   UNL d   1      52.243  33.482  52.973  0.00  0.00     0.086 A 
ATOM      7  C   UNL d   1      53.661  31.632  53.796  0.00  0.00     0.263 A 
ATOM      8  S   UNL d   1      52.417  31.314  52.744  0.00  0.00    -0.050 SA
ATOM      9  C   UNL d   1      53.524  30.852  53.553  0.00  0.00     0.068 A 
ATOM     10  O   UNL d   1      54.279  31.789  54.319  0.00  0.00    -0.267 OA
ATOM     11  C   UNL d   1      52.906  30.694  53.030  0.00  0.00     0.043 A 
ATOM     12  C   UNL d   1      51.737  34.117  52.675  0.00  0.00     0.021 C 
ENDROOT
BRANCH   5  13
ATOM     13  C   UNL d   1      53.948  33.181  54.290  0.00  0.00     0.024 A 
ATOM     14  S   UNL d   1      53.995  33.196  55.114  0.00  0.00    -0.089 SA
ATOM     15  C   UNL d   1      54.757  33.388  55.324  0.00  0.00     0.035 A 
ATOM     16  C   UNL d   1      55.180  33.493  54.645  0.00  0.00     0.007 A 
ATOM     17  C   UNL d   1      54.705  33.371  54.008  0.00  0.00     0.004 A 
ENDBRANCH   5  13
BRANCH   3  18
ATOM     18  C   UNL d   1      52.994  34.438  53.739  0.00  0.00     0.295 C 
ATOM     19  O   UNL d   1      53.515  34.903  53.301  0.00  0.00    -0.259 OA
BRANCH  18  20
ATOM     20  O   UNL d   1      52.619  34.756  54.395  0.00  0.00    -0.296 OA
ATOM     21  C   UNL d   1      52.544  35.569  54.483  0.00  0.00     0.185 C 
ENDBRANCH  18  20
ENDBRANCH   3  18
TORSDOF 3
ENDMDL
MODEL 2
REMARK VINA RESULT:      -9.3      1.062      2.247
REMARK  3 active torsions:
REMARK  status: ('A' for Active; 'I' for Inactive)
REMARK    1  A    between atoms: C_9  and  C_3 
REMARK    2  A    between atoms: C_8  and  C_5 
REMARK    3  A    between atoms: O_19  and  C_9 
ROOT
ATOM      1  N   UNL d   1      53.009  32.300  53.457  0.00  0.00    -0.278 N 
ATOM      2  C   UNL d   1      53.653  31.940  53.826  0.00  0.00     0.178 A 
ATOM      3  C   UNL d   1      53.374  33.554  54.041  0.00  0.00     0.075 A 
ATOM      4  N   UNL d   1      54.171  32.383  54.312  0.00  0.00    -0.223 NA
ATOM      5  C   UNL d   1      52.875  33.106  53.568  0.00  0.00     0.178 A 
ATOM      6  C   UNL d   1      54.018  33.194  54.411  0.00  0.00     0.086 A 
ATOM      7  C   UNL d   1      52.510  31.852  52.984  0.00  0.00     0.263 A 
ATOM      8  S   UNL d   1      53.807  31.128  53.727  0.00  0.00    -0.050 SA
ATOM      9  C   UNL d   1      52.644  31.042  52.870  0.00  0.00     0.068 A 
ATOM     10  O   UNL d   1      51.867  32.211  52.615  0.00  0.00    -0.267 OA
ATOM     11  C   UNL d   1      53.288  30.683  53.240  0.00  0.00     0.043 A 
ATOM     12  C   UNL d   1      54.556  33.649  54.914  0.00  0.00     0.021 C 
ENDROOT
BRANCH   5  13
ATOM     13  C   UNL d   1      52.232  33.465  53.199  0.00  0.00     0.024 A 
ATOM     14  S   UNL d   1      51.441  33.557  53.417  0.00  0.00    -0.089 SA
ATOM     15  C   UNL d   1      51.058  33.964  52.825  0.00  0.00     0.035 A 
ATOM     16  C   UNL d   1      51.598  34.125  52.248  0.00  0.00     0.007 A 
ATOM     17  C   UNL d   1      52.316  33.829  52.458  0.00  0.00     0.004 A 
ENDBRANCH   5  13
BRANCH   3  18
ATOM     18  C   UNL d   1      53.245  34.380  54.162  0.00  0.00     0.295 C 
ATOM     19  O   UNL d   1      53.517  34.911  53.593  0.00  0.00    -0.259 OA
BRANCH  18  20
ATOM     20  O   UNL d   1      52.859  34.663  54.829  0.00  0.00    -0.296 OA
ATOM     21  C   UNL d   1      52.977  35.434  55.087  0.00  0.00     0.185 C 
ENDBRANCH  18  20
ENDBRANCH   3  18
TORSDOF 3
ENDMDL
MODEL 3
REMARK VINA RESULT:      -9.3      0.883      2.608
REMARK  3 active torsions:
REMARK  status: ('A' for Active; 'I' for Inactive)
REMARK    1  A    between atoms: C_9  and  C_3 
REMARK    2  A    between atoms: C_8  and  C_5 
REMARK    3  A    between atoms: O_19  and  C_9 
ROOT
ATOM      1  N   UNL d   1      52.788  33.518  53.525  0.00  0.00    -0.278 N 
ATOM      2  C   UNL d   1      52.196  33.363  52.972  0.00  0.00     0.178 A 
ATOM      3  C   UNL d   1      53.207  32.151  53.460  0.00  0.00     0.075 A 
ATOM      4  N   UNL d   1      52.099  32.596  52.651  0.00  0.00    -0.223 NA
ATOM      5  C   UNL d   1      53.290  32.908  53.764  0.00  0.00     0.178 A 
ATOM      6  C   UNL d   1      52.615  31.996  52.906  0.00  0.00     0.086 A 
ATOM      7  C   UNL d   1      52.871  34.275  53.830  0.00  0.00     0.263 A 
ATOM      8  S   UNL d   1      51.680  33.963  52.716  0.00  0.00    -0.050 SA
ATOM      9  C   UNL d   1      52.368  34.888  53.590  0.00  0.00     0.068 A 
ATOM     10  O   UNL d   1      53.462  34.430  54.382  0.00  0.00    -0.267 OA
ATOM     11  C   UNL d   1      51.776  34.733  53.037  0.00  0.00     0.043 A 
ATOM     12  C   UNL d   1      52.511  31.204  52.573  0.00  0.00     0.021 C 
ENDROOT
BRANCH   5  13
ATOM     13  C   UNL d   1      53.881  33.063  54.317  0.00  0.00     0.024 A 
ATOM     14  S   UNL d   1      53.898  33.035  55.142  0.00  0.00    -0.089 SA
ATOM     15  C   UNL d   1      54.643  33.248  55.390  0.00  0.00     0.035 A 
ATOM     16  C   UNL d   1      55.085  33.406  54.734  0.00  0.00     0.007 A 
ATOM     17  C   UNL d   1      54.639  33.299  54.074  0.00  0.00     0.004 A 
ENDBRANCH   5  13
BRANCH   3  18
ATOM     18  C   UNL d   1      53.715  31.519  53.698  0.00  0.00     0.295 C 
ATOM     19  O   UNL d   1      54.458  31.454  53.346  0.00  0.00    -0.259 OA
BRANCH  18  20
ATOM     20  O   UNL d   1      53.487  30.975  54.268  0.00  0.00    -0.296 OA
ATOM     21  C   UNL d   1      53.692  30.183  54.197  0.00  0.00     0.185 C 
ENDBRANCH  18  20
ENDBRANCH   3  18
TORSDOF 3
ENDMDL
MODEL 4
REMARK VINA RESULT:      -8.4      1.213      3.364
REMARK  3 active torsions:
REMARK  status: ('A' for Active; 'I' for Inactive)
REMARK    1  A    between atoms: C_9  and  C_3 
REMARK    2  A    between atoms: C_8  and  C_5 
REMARK    3  A    between atoms: O_19  and  C_9 
ROOT
ATOM      1  N   UNL d   1      53.205  33.637  54.133  0.00  0.00    -0.278 N 
ATOM      2  C   UNL d   1      53.887  33.384  54.522  0.00  0.00     0.178 A 
ATOM      3  C   UNL d   1      53.086  32.355  53.508  0.00  0.00     0.075 A 
ATOM      4  N   UNL d   1      54.182  32.609  54.410  0.00  0.00    -0.223 NA
ATOM      5  C   UNL d   1      52.810  33.119  53.628  0.00  0.00     0.178 A 
ATOM      6  C   UNL d   1      53.768  32.102  53.897  0.00  0.00     0.086 A 
ATOM      7  C   UNL d   1      52.930  34.400  54.253  0.00  0.00     0.263 A 
ATOM      8  S   UNL d   1      54.302  33.890  55.035  0.00  0.00    -0.050 SA
ATOM      9  C   UNL d   1      53.326  34.922  54.759  0.00  0.00     0.068 A 
ATOM     10  O   UNL d   1      52.248  34.653  53.864  0.00  0.00    -0.267 OA
ATOM     11  C   UNL d   1      54.008  34.669  55.148  0.00  0.00     0.043 A 
ATOM     12  C   UNL d   1      54.075  31.301  53.784  0.00  0.00     0.021 C 
ENDROOT
BRANCH   5  13
ATOM     13  C   UNL d   1      52.128  33.372  53.239  0.00  0.00     0.024 A 
ATOM     14  S   UNL d   1      51.328  33.343  53.436  0.00  0.00    -0.089 SA
ATOM     15  C   UNL d   1      50.902  33.682  52.831  0.00  0.00     0.035 A 
ATOM     16  C   UNL d   1      51.426  33.919  52.266  0.00  0.00     0.007 A 
ATOM     17  C   UNL d   1      52.175  33.739  52.496  0.00  0.00     0.004 A 
ENDBRANCH   5  13
BRANCH   3  18
ATOM     18  C   UNL d   1      52.688  31.816  52.993  0.00  0.00     0.295 C 
ATOM     19  O   UNL d   1      52.831  31.864  52.183  0.00  0.00    -0.259 OA
BRANCH  18  20
ATOM     20  O   UNL d   1      52.167  31.251  53.280  0.00  0.00    -0.296 OA
ATOM     21  C   UNL d   1      52.151  30.494  52.962  0.00  0.00     0.185 C 
ENDBRANCH  18  20
ENDBRANCH   3  18
TORSDOF 3
ENDMDL
MODEL 5
REMARK VINA RESULT:      -8.4      1.426      2.508
REMARK  3 active torsions:
REMARK  status: ('A' for Active; 'I' for Inactive)
REMARK    1  A    between atoms: C_9  and  C_3 
REMARK    2  A    between atoms: C_8  and  C_5 
REMARK    3  A    between atoms: O_19  and  C_9 
ROOT
ATOM      1  N   UNL d   1      52.489  33.496  53.377  0.00  0.00    -0.278 N 
ATOM      2  C   UNL d   1      52.194  34.256  53.506  0.00  0.00     0.178 A 
ATOM      3  C   UNL d   1      53.457  33.697  54.413  0.00  0.00     0.075 A 
ATOM      4  N   UNL d   1      52.526  34.751  54.092  0.00  0.00    -0.223 NA
ATOM      5  C   UNL d   1      53.120  33.223  53.833  0.00  0.00     0.178 A 
ATOM      6  C   UNL d   1      53.162  34.456  54.541  0.00  0.00     0.086 A 
ATOM      7  C   UNL d   1      52.152  33.023  52.798  0.00  0.00     0.263 A 
ATOM      8  S   UNL d   1      51.559  34.551  53.057  0.00  0.00    -0.050 SA
ATOM      9  C   UNL d   1      51.519  33.296  52.339  0.00  0.00     0.068 A 
ATOM     10  O   UNL d   1      52.447  32.264  52.669  0.00  0.00    -0.267 OA
ATOM     11  C   UNL d   1      51.224  34.055  52.468  0.00  0.00     0.043 A 
ATOM     12  C   UNL d   1      53.503  34.971  55.147  0.00  0.00     0.021 C 
ENDROOT
BRANCH   5  13
ATOM     13  C   UNL d   1      53.414  32.464  53.705  0.00  0.00     0.024 A 
ATOM     14  S   UNL d   1      53.219  31.727  54.020  0.00  0.00    -0.089 SA
ATOM     15  C   UNL d   1      53.703  31.168  53.681  0.00  0.00     0.035 A 
ATOM     16  C   UNL d   1      54.193  31.546  53.164  0.00  0.00     0.007 A 
ATOM     17  C   UNL d   1      54.031  32.334  53.165  0.00  0.00     0.004 A 
ENDBRANCH   5  13
BRANCH   3  18
ATOM     18  C   UNL d   1      54.103  33.426  54.885  0.00  0.00     0.295 C 
ATOM     19  O   UNL d   1      53.945  32.937  55.529  0.00  0.00    -0.259 OA
BRANCH  18  20
ATOM     20  O   UNL d   1      54.877  33.639  54.717  0.00  0.00    -0.296 OA
ATOM     21  C   UNL d   1      55.425  33.739  55.321  0.00  0.00     0.185 C 
ENDBRANCH  18  20
ENDBRANCH   3  18
TORSDOF 3
ENDMDL
MODEL 6
REMARK VINA RESULT:      -8.0      1.181      2.566
REMARK  3 active torsions:
REMARK  status: ('A' for Active; 'I' for Inactive)
REMARK    1  A    between atoms: C_9  and  C_3 
REMARK    2  A    between atoms: C_8  and  C_5 
REMARK    3  A    between atoms: O_19  and  C_9 
ROOT
ATOM      1  N   UNL d   1      53.472  33.256  54.256  0.00  0.00    -0.278 N 
ATOM      2  C   UNL d   1      53.574  34.008  54.580  0.00  0.00     0.178 A 
ATOM      3  C   UNL d   1      52.323  33.720  53.540  0.00  0.00     0.075 A 
ATOM      4  N   UNL d   1      53.050  34.631  54.389  0.00  0.00    -0.223 NA
ATOM      5  C   UNL d   1      52.846  33.119  53.737  0.00  0.00     0.178 A 
ATOM      6  C   UNL d   1      52.425  34.472  53.864  0.00  0.00     0.086 A 
ATOM      7  C   UNL d   1      53.994  32.654  54.453  0.00  0.00     0.263 A 
ATOM      8  S   UNL d   1      54.199  34.167  55.105  0.00  0.00    -0.050 SA
ATOM      9  C   UNL d   1      54.624  32.790  54.974  0.00  0.00     0.068 A 
ATOM     10  O   UNL d   1      53.893  31.903  54.130  0.00  0.00    -0.267 OA
ATOM     11  C   UNL d   1      54.726  33.542  55.298  0.00  0.00     0.043 A 
ATOM     12  C   UNL d   1      51.885  35.119  53.668  0.00  0.00     0.021 C 
ENDROOT
BRANCH   5  13
ATOM     13  C   UNL d   1      52.744  32.368  53.413  0.00  0.00     0.024 A 
ATOM     14  S   UNL d   1      52.283  31.720  53.634  0.00  0.00    -0.089 SA
ATOM     15  C   UNL d   1      52.409  31.121  53.099  0.00  0.00     0.035 A 
ATOM     16  C   UNL d   1      52.939  31.387  52.552  0.00  0.00     0.007 A 
ATOM     17  C   UNL d   1      53.153  32.141  52.728  0.00  0.00     0.004 A 
ENDBRANCH   5  13
BRANCH   3  18
ATOM     18  C   UNL d   1      51.679  33.590  53.009  0.00  0.00     0.295 C 
ATOM     19  O   UNL d   1      50.993  33.235  53.298  0.00  0.00    -0.259 OA
BRANCH  18  20
ATOM     20  O   UNL d   1      51.721  33.808  52.219  0.00  0.00    -0.296 OA
ATOM     21  C   UNL d   1      51.047  34.047  51.814  0.00  0.00     0.185 C 
ENDBRANCH  18  20
ENDBRANCH   3  18
TORSDOF 3
ENDMDL
MODEL 7
REMARK VINA RESULT:      -7.4      1.277      2.134
REMARK  3 active torsions:
REMARK  status: ('A' for Active; 'I' for Inactive)
REMARK    1  A    between atoms: C_9  and  C_3 
REMARK    2  A    between atoms: C_8  and  C_5 
REMARK    3  A    between atoms: O_19  and  C_9 
ROOT
ATOM      1  N   UNL d   1      53.363  33.331  54.205  0.00  0.00    -0.278 N 
ATOM      2  C   UNL d   1      53.327  32.538  53.980  0.00  0.00     0.178 A 
ATOM      3  C   UNL d   1      52.278  33.630  53.321  0.00  0.00     0.075 A 
ATOM      4  N   UNL d   1      52.765  32.276  53.419  0.00  0.00    -0.223 NA
ATOM      5  C   UNL d   1      52.836  33.871  53.872  0.00  0.00     0.178 A 
ATOM      6  C   UNL d   1      52.243  32.837  53.096  0.00  0.00     0.086 A 
ATOM      7  C   UNL d   1      53.921  33.572  54.756  0.00  0.00     0.263 A 
ATOM      8  S   UNL d   1      53.850  31.977  54.303  0.00  0.00    -0.050 SA
ATOM      9  C   UNL d   1      54.450  33.031  55.092  0.00  0.00     0.068 A 
ATOM     10  O   UNL d   1      53.956  34.364  54.981  0.00  0.00    -0.267 OA
ATOM     11  C   UNL d   1      54.415  32.238  54.867  0.00  0.00     0.043 A 
ATOM     12  C   UNL d   1      51.662  32.563  52.516  0.00  0.00     0.021 C 
ENDROOT
BRANCH   5  13
ATOM     13  C   UNL d   1      52.871  34.663  54.097  0.00  0.00     0.024 A 
ATOM     14  S   UNL d   1      52.513  35.089  54.706  0.00  0.00    -0.089 SA
ATOM     15  C   UNL d   1      52.756  35.864  54.655  0.00  0.00     0.035 A 
ATOM     16  C   UNL d   1      53.258  35.923  54.027  0.00  0.00     0.007 A 
ATOM     17  C   UNL d   1      53.340  35.204  53.676  0.00  0.00     0.004 A 
ENDBRANCH   5  13
BRANCH   3  18
ATOM     18  C   UNL d   1      51.734  34.175  52.974  0.00  0.00     0.295 C 
ATOM     19  O   UNL d   1      51.975  34.611  52.317  0.00  0.00    -0.259 OA
BRANCH  18  20
ATOM     20  O   UNL d   1      50.978  34.279  53.274  0.00  0.00    -0.296 OA
ATOM     21  C   UNL d   1      50.353  34.476  52.780  0.00  0.00     0.185 C 
ENDBRANCH  18  20
ENDBRANCH   3  18
TORSDOF 3
ENDMDL
MODEL 8
REMARK VINA RESULT:      -7.0      1.190      2.704
REMARK  3 active torsions:
REMARK  status: ('A' for Active; 'I' for Inactive)
REMARK    1  A    between atoms: C_9  and  C_3 
REMARK    2  A    between atoms: C_8  and  C_5 
REMARK    3  A    between atoms: O_19  and  C_9 
ROOT
ATOM      1  N   UNL d   1      51.780  33.824  53.308  0.00  0.00    -0.278 N 
ATOM      2  C   UNL d   1      51.456  33.157  52.946  0.00  0.00     0.178 A 
ATOM      3  C   UNL d   1      52.970  33.087  53.604  0.00  0.00     0.075 A 
ATOM      4  N   UNL d   1      51.886  32.440  52.906  0.00  0.00    -0.223 NA
ATOM      5  C   UNL d   1      52.536  33.782  53.634  0.00  0.00     0.178 A 
ATOM      6  C   UNL d   1      52.647  32.420  53.242  0.00  0.00     0.086 A 
ATOM      7  C   UNL d   1      51.345  34.519  53.339  0.00  0.00     0.263 A 
ATOM      8  S   UNL d   1      50.695  33.177  52.611  0.00  0.00    -0.050 SA
ATOM      9  C   UNL d   1      50.586  34.563  53.012  0.00  0.00     0.068 A 
ATOM     10  O   UNL d   1      51.668  35.186  53.701  0.00  0.00    -0.267 OA
ATOM     11  C   UNL d   1      50.262  33.895  52.650  0.00  0.00     0.043 A 
ATOM     12  C   UNL d   1      53.088  31.676  53.199  0.00  0.00     0.021 C 
ENDROOT
BRANCH   5  13
ATOM     13  C   UNL d   1      52.859  34.449  53.996  0.00  0.00     0.024 A 
ATOM     14  S   UNL d   1      52.888  34.702  54.781  0.00  0.00    -0.089 SA
ATOM     15  C   UNL d   1      53.284  35.412  54.807  0.00  0.00     0.035 A 
ATOM     16  C   UNL d   1      53.500  35.601  54.053  0.00  0.00     0.007 A 
ATOM     17  C   UNL d   1      53.250  35.028  53.548  0.00  0.00     0.004 A 
ENDBRANCH   5  13
BRANCH   3  18
ATOM     18  C   UNL d   1      53.746  33.034  53.934  0.00  0.00     0.295 C 
ATOM     19  O   UNL d   1      53.823  32.876  54.739  0.00  0.00    -0.259 OA
BRANCH  18  20
ATOM     20  O   UNL d   1      54.418  33.135  53.475  0.00  0.00    -0.296 OA
ATOM     21  C   UNL d   1      55.130  32.788  53.690  0.00  0.00     0.185 C 
ENDBRANCH  18  20
ENDBRANCH   3  18
TORSDOF 3
ENDMDL
