MODEL 1
REMARK VINA RESULT:      -5.0      0.000      0.000
REMARK  3 active torsions:
REMARK  status: ('A' for Active; 'I' for Inactive)
REMARK    1  A    between atoms: N_4  and  C_1 
REMARK       I    between atoms: C_7  and  N_4 
REMARK    2  A    between atoms: C_10  and  C_7 
REMARK    3  A    between atoms: O_16  and  C_15 
ROOT
ATOM      1  N   UNL d   1      57.480  -0.290  30.565  0.00  0.00    -0.183 NA
ATOM      2  C   UNL d   1      58.242   0.033  30.541  0.00  0.00     0.281 C 
ATOM      3  O   UNL d   1      58.560   0.394  31.224  0.00  0.00    -0.265 OA
ENDROOT
BRANCH   1   4
ATOM      4  C   UNL d   1      57.031  -0.257  31.263  0.00  0.00     0.197 A 
ATOM      5  N   UNL d   1      56.764  -0.915  31.699  0.00  0.00    -0.221 NA
ATOM      6  C   UNL d   1      56.338  -0.632  32.353  0.00  0.00     0.092 A 
ATOM      7  C   UNL d   1      55.952  -1.023  32.967  0.00  0.00     0.039 A 
ATOM      8  C   UNL d   1      56.341   0.201  32.323  0.00  0.00     0.068 A 
ATOM      9  C   UNL d   1      55.563  -0.580  33.559  0.00  0.00     0.082 A 
ATOM     10  N   UNL d   1      55.568   0.242  33.526  0.00  0.00    -0.301 N 
ATOM     11  C   UNL d   1      55.956   0.629  32.909  0.00  0.00     0.088 A 
ATOM     12  C   UNL d   1      55.178   0.682  34.119  0.00  0.00     0.100 C 
ATOM     13  S   UNL d   1      56.769   0.424  31.650  0.00  0.00    -0.045 SA
ENDBRANCH   1   4
BRANCH   2  14
ATOM     14  C   UNL d   1      58.688   0.000  29.846  0.00  0.00     0.060 A 
ATOM     15  C   UNL d   1      59.013  -0.713  29.600  0.00  0.00     0.029 A 
ATOM     16  C   UNL d   1      59.454  -0.743  28.911  0.00  0.00     0.094 A 
ATOM     17  C   UNL d   1      59.574  -0.061  28.465  0.00  0.00     0.024 A 
ATOM     18  C   UNL d   1      59.244   0.652  28.720  0.00  0.00     0.002 A 
ATOM     19  C   UNL d   1      58.803   0.682  29.408  0.00  0.00     0.005 A 
BRANCH  16  20
ATOM     20  O   UNL d   1      59.791  -1.471  28.651  0.00  0.00    -0.328 OA
ATOM     21  C   UNL d   1      60.592  -1.517  28.455  0.00  0.00     0.181 C 
ENDBRANCH  16  20
ENDBRANCH   2  14
TORSDOF 3
ENDMDL
