MODEL 1
REMARK VINA RESULT:       7.7      0.000      0.000
REMARK  1 active torsions:
REMARK  status: ('A' for Active; 'I' for Inactive)
REMARK    1  A    between atoms: C_4  and  C_1 
ROOT
ATOM      1  C   UNL d   1      43.949 -15.428  36.672  0.00  0.00     0.168 A 
ATOM      2  N   UNL d   1      44.206 -14.794  37.128  0.00  0.00    -0.225 NA
ATOM      3  N   UNL d   1      44.617 -15.785  36.330  0.00  0.00    -0.225 NA
ATOM      4  C   UNL d   1      45.033 -14.754  37.070  0.00  0.00     0.101 A 
ATOM      5  C   UNL d   1      45.285 -15.367  36.577  0.00  0.00     0.101 A 
ATOM      6  C   UNL d   1      45.587 -14.236  37.406  0.00  0.00     0.021 A 
ATOM      7  C   UNL d   1      46.099 -15.458  36.422  0.00  0.00     0.021 A 
ATOM      8  C   UNL d   1      46.390 -14.330  37.249  0.00  0.00     0.002 A 
ATOM      9  C   UNL d   1      46.646 -14.941  36.757  0.00  0.00     0.002 A 
ENDROOT
BRANCH   1  10
ATOM     10  C   UNL d   1      43.169 -15.672  36.569  0.00  0.00     0.065 A 
ATOM     11  S   UNL d   1      42.846 -16.285  36.362  0.00  0.00    -0.083 SA
ATOM     12  C   UNL d   1      42.128 -16.312  36.331  0.00  0.00     0.035 A 
ATOM     13  C   UNL d   1      41.729 -15.741  36.501  0.00  0.00     0.008 A 
ATOM     14  C   UNL d   1      42.052 -15.130  36.707  0.00  0.00     0.010 A 
ENDBRANCH   1  10
TORSDOF 1
ENDMDL
MODEL 2
REMARK VINA RESULT:       8.0      1.000      3.356
REMARK  1 active torsions:
REMARK  status: ('A' for Active; 'I' for Inactive)
REMARK    1  A    between atoms: C_4  and  C_1 
ROOT
ATOM      1  C   UNL d   1      44.626 -15.350  36.686  0.00  0.00     0.168 A 
ATOM      2  N   UNL d   1      43.963 -14.867  36.754  0.00  0.00    -0.225 NA
ATOM      3  N   UNL d   1      44.366 -16.120  36.515  0.00  0.00    -0.225 NA
ATOM      4  C   UNL d   1      43.290 -15.336  36.626  0.00  0.00     0.101 A 
ATOM      5  C   UNL d   1      43.541 -16.108  36.479  0.00  0.00     0.101 A 
ATOM      6  C   UNL d   1      42.481 -15.154  36.626  0.00  0.00     0.021 A 
ATOM      7  C   UNL d   1      42.972 -16.701  36.330  0.00  0.00     0.021 A 
ATOM      8  C   UNL d   1      41.924 -15.742  36.479  0.00  0.00     0.002 A 
ATOM      9  C   UNL d   1      42.170 -16.516  36.331  0.00  0.00     0.002 A 
ENDROOT
BRANCH   1  10
ATOM     10  C   UNL d   1      45.411 -15.116  36.771  0.00  0.00     0.065 A 
ATOM     11  S   UNL d   1      46.041 -15.320  36.481  0.00  0.00    -0.083 SA
ATOM     12  C   UNL d   1      46.647 -14.990  36.684  0.00  0.00     0.035 A 
ATOM     13  C   UNL d   1      46.634 -14.461  37.169  0.00  0.00     0.008 A 
ATOM     14  C   UNL d   1      46.005 -14.258  37.458  0.00  0.00     0.010 A 
ENDBRANCH   1  10
TORSDOF 1
ENDMDL
