MODEL 1
REMARK VINA RESULT:      80.0      0.000      0.000
REMARK  5 active torsions:
REMARK  status: ('A' for Active; 'I' for Inactive)
REMARK    1  A    between atoms: C_11  and  N_1 
REMARK    2  A    between atoms: C_5  and  C_3 
REMARK       I    between atoms: N_14  and  C_5 
REMARK    3  A    between atoms: N_7  and  C_18 
REMARK    4  A    between atoms: C_17  and  N_14 
REMARK    5  A    between atoms: C_18  and  C_17 
ROOT
ATOM      1  C   UNL d   1      57.967  49.556  50.884  0.00  0.00     0.281 C 
ATOM      2  O   UNL d   1      57.647  49.706  51.628  0.00  0.00    -0.265 OA
ATOM      3  N   UNL d   1      57.469  49.443  50.243  0.00  0.00    -0.205 NA
ENDROOT
BRANCH   1   4
ATOM      4  C   UNL d   1      58.791  49.521  50.787  0.00  0.00     0.080 A 
ATOM      5  C   UNL d   1      59.353  49.612  51.384  0.00  0.00     0.088 A 
ATOM      6  N   UNL d   1      60.098  49.535  51.037  0.00  0.00    -0.273 N 
ATOM      7  C   UNL d   1      59.998  49.397  50.235  0.00  0.00     0.265 A 
ATOM      8  C   UNL d   1      59.186  49.388  50.077  0.00  0.00     0.067 A 
ATOM      9  O   UNL d   1      60.632  49.291  49.711  0.00  0.00    -0.267 OA
BRANCH   6  10
ATOM     10  C   UNL d   1      60.821  49.587  51.432  0.00  0.00     0.067 A 
ATOM     11  C   UNL d   1      61.559  49.679  51.071  0.00  0.00     0.018 A 
ATOM     12  C   UNL d   1      62.128  49.706  51.666  0.00  0.00     0.002 A 
ATOM     13  C   UNL d   1      61.737  49.631  52.389  0.00  0.00     0.002 A 
ATOM     14  C   UNL d   1      60.936  49.558  52.250  0.00  0.00     0.018 A 
ENDBRANCH   6  10
ENDBRANCH   1   4
BRANCH   3  15
ATOM     15  C   UNL d   1      56.656  49.478  50.340  0.00  0.00     0.121 C 
BRANCH  15  16
ATOM     16  C   UNL d   1      56.155  49.094  49.815  0.00  0.00     0.101 C 
BRANCH  16  17
ATOM     17  N   UNL d   1      56.228  48.273  49.712  0.00  0.00    -0.301 N 
ATOM     18  C   UNL d   1      56.293  47.785  50.372  0.00  0.00     0.080 A 
ATOM     19  C   UNL d   1      56.366  46.969  50.263  0.00  0.00     0.018 A 
ATOM     20  C   UNL d   1      56.431  46.474  50.911  0.00  0.00     0.002 A 
ATOM     21  C   UNL d   1      56.373  46.647  49.506  0.00  0.00     0.003 A 
ATOM     22  C   UNL d   1      56.503  45.666  50.812  0.00  0.00     0.000 A 
ATOM     23  C   UNL d   1      56.511  45.339  50.051  0.00  0.00     0.000 A 
ATOM     24  C   UNL d   1      56.445  45.833  49.395  0.00  0.00     0.000 A 
ATOM     25  C   UNL d   1      56.307  47.145  48.850  0.00  0.00     0.019 A 
ATOM     26  C   UNL d   1      56.234  47.965  48.952  0.00  0.00     0.080 A 
ENDBRANCH  16  17
ENDBRANCH  15  16
ENDBRANCH   3  15
TORSDOF 5
ENDMDL
