MODEL 1
REMARK VINA RESULT:       5.7      0.000      0.000
REMARK  9 active torsions:
REMARK  status: ('A' for Active; 'I' for Inactive)
REMARK    1  A    between atoms: C_5  and  C_1 
REMARK    2  A    between atoms: N_4  and  C_2 
REMARK       I    between atoms: C_3  and  N_4 
REMARK    3  A    between atoms: C_10  and  C_3 
REMARK    4  A    between atoms: N_6  and  C_5 
REMARK    5  A    between atoms: C_12  and  C_5 
REMARK    6  A    between atoms: C_14  and  N_6 
REMARK    7  A    between atoms: C_8  and  C_14 
REMARK    8  A    between atoms: O_17  and  C_8 
REMARK    9  A    between atoms: C_23  and  O_17 
ROOT
ATOM      1  C   UNL d   1      32.183  19.637 -23.855  0.00  0.00     0.036 A 
ATOM      2  C   UNL d   1      32.547  19.866 -23.167  0.00  0.00     0.086 A 
ATOM      3  C   UNL d   1      32.162  20.151 -24.492  0.00  0.00     0.010 A 
ATOM      4  C   UNL d   1      32.898  20.610 -23.098  0.00  0.00     0.020 A 
ATOM      5  C   UNL d   1      32.507  20.898 -24.441  0.00  0.00     0.035 A 
ATOM      6  C   UNL d   1      32.884  21.124 -23.716  0.00  0.00     0.008 A 
ATOM      7 BR   UNL d   1      32.484  21.424 -25.095  0.00  0.00    -0.049 Br
ENDROOT
BRANCH   1   8
ATOM      8  C   UNL d   1      31.832  18.893 -23.925  0.00  0.00     0.083 C 
BRANCH   8   9
ATOM      9  N   UNL d   1      31.028  18.794 -23.840  0.00  0.00    -0.238 NA
BRANCH   9  10
ATOM     10  C   UNL d   1      30.587  18.593 -24.516  0.00  0.00     0.167 C 
BRANCH  10  11
ATOM     11  C   UNL d   1      29.850  18.202 -24.403  0.00  0.00     0.320 C 
ATOM     12  O   UNL d   1      29.201  18.647 -24.090  0.00  0.00    -0.257 OA
BRANCH  11  13
ATOM     13  O   UNL d   1      29.753  17.405 -24.590  0.00  0.00    -0.270 OA
BRANCH  13  14
ATOM     14  C   UNL d   1      29.310  16.934 -24.121  0.00  0.00     0.126 C 
ATOM     15  C   UNL d   1      29.024  16.247 -24.424  0.00  0.00     0.029 C 
ENDBRANCH  13  14
ENDBRANCH  11  13
ENDBRANCH  10  11
ENDBRANCH   9  10
ENDBRANCH   8   9
BRANCH   8  16
ATOM     16  C   UNL d   1      32.300  18.238 -24.083  0.00  0.00     0.018 A 
ATOM     17  C   UNL d   1      32.757  18.199 -24.769  0.00  0.00     0.002 A 
ATOM     18  C   UNL d   1      33.229  17.557 -24.943  0.00  0.00     0.000 A 
ATOM     19  C   UNL d   1      33.240  16.906 -24.386  0.00  0.00     0.000 A 
ATOM     20  C   UNL d   1      32.786  16.937 -23.698  0.00  0.00     0.000 A 
ATOM     21  C   UNL d   1      32.317  17.600 -23.545  0.00  0.00     0.002 A 
ENDBRANCH   8  16
ENDBRANCH   1   8
BRANCH   2  22
ATOM     22  N   UNL d   1      32.566  19.330 -22.513  0.00  0.00    -0.208 NA
ATOM     23  C   UNL d   1      32.573  19.626 -21.739  0.00  0.00     0.279 C 
ATOM     24  O   UNL d   1      32.591  19.115 -21.117  0.00  0.00    -0.265 OA
BRANCH  23  25
ATOM     25  C   UNL d   1      32.564  20.431 -21.593  0.00  0.00     0.058 A 
ATOM     26  C   UNL d   1      33.235  20.889 -21.708  0.00  0.00     0.005 A 
ATOM     27  C   UNL d   1      33.207  21.699 -21.555  0.00  0.00     0.000 A 
ATOM     28  C   UNL d   1      32.513  22.041 -21.291  0.00  0.00     0.000 A 
ATOM     29  C   UNL d   1      31.853  21.587 -21.179  0.00  0.00     0.000 A 
ATOM     30  C   UNL d   1      31.881  20.776 -21.332  0.00  0.00     0.005 A 
ENDBRANCH  23  25
ENDBRANCH   2  22
TORSDOF 9
ENDMDL
MODEL 2
REMARK VINA RESULT:       7.3      1.664      2.393
REMARK  9 active torsions:
REMARK  status: ('A' for Active; 'I' for Inactive)
REMARK    1  A    between atoms: C_5  and  C_1 
REMARK    2  A    between atoms: N_4  and  C_2 
REMARK       I    between atoms: C_3  and  N_4 
REMARK    3  A    between atoms: C_10  and  C_3 
REMARK    4  A    between atoms: N_6  and  C_5 
REMARK    5  A    between atoms: C_12  and  C_5 
REMARK    6  A    between atoms: C_14  and  N_6 
REMARK    7  A    between atoms: C_8  and  C_14 
REMARK    8  A    between atoms: O_17  and  C_8 
REMARK    9  A    between atoms: C_23  and  O_17 
ROOT
ATOM      1  C   UNL d   1      32.677  20.365 -22.963  0.00  0.00     0.036 A 
ATOM      2  C   UNL d   1      32.782  20.692 -22.227  0.00  0.00     0.086 A 
ATOM      3  C   UNL d   1      32.813  20.821 -23.630  0.00  0.00     0.010 A 
ATOM      4  C   UNL d   1      33.024  21.476 -22.139  0.00  0.00     0.020 A 
ATOM      5  C   UNL d   1      33.055  21.607 -23.561  0.00  0.00     0.035 A 
ATOM      6  C   UNL d   1      33.160  21.933 -22.786  0.00  0.00     0.008 A 
ATOM      7 BR   UNL d   1      33.194  22.072 -24.246  0.00  0.00    -0.049 Br
ENDROOT
BRANCH   1   8
ATOM      8  C   UNL d   1      32.435  19.582 -23.052  0.00  0.00     0.083 C 
BRANCH   8   9
ATOM      9  N   UNL d   1      32.669  19.004 -22.528  0.00  0.00    -0.238 NA
BRANCH   9  10
ATOM     10  C   UNL d   1      33.170  18.403 -22.808  0.00  0.00     0.167 C 
BRANCH  10  11
ATOM     11  C   UNL d   1      33.163  17.664 -22.404  0.00  0.00     0.320 C 
ATOM     12  O   UNL d   1      33.200  17.666 -21.558  0.00  0.00    -0.257 OA
BRANCH  11  13
ATOM     13  O   UNL d   1      33.121  16.950 -22.815  0.00  0.00    -0.270 OA
BRANCH  13  14
ATOM     14  C   UNL d   1      33.208  16.258 -22.426  0.00  0.00     0.126 C 
ATOM     15  C   UNL d   1      33.234  15.576 -22.851  0.00  0.00     0.029 C 
ENDBRANCH  13  14
ENDBRANCH  11  13
ENDBRANCH  10  11
ENDBRANCH   9  10
ENDBRANCH   8   9
BRANCH   8  16
ATOM     16  C   UNL d   1      31.949  19.376 -23.681  0.00  0.00     0.018 A 
ATOM     17  C   UNL d   1      31.167  19.147 -23.554  0.00  0.00     0.002 A 
ATOM     18  C   UNL d   1      30.669  18.939 -24.165  0.00  0.00     0.000 A 
ATOM     19  C   UNL d   1      30.982  18.965 -24.962  0.00  0.00     0.000 A 
ATOM     20  C   UNL d   1      31.763  19.193 -25.097  0.00  0.00     0.000 A 
ATOM     21  C   UNL d   1      32.246  19.398 -24.460  0.00  0.00     0.002 A 
ENDBRANCH   8  16
ENDBRANCH   1   8
BRANCH   2  22
ATOM     22  N   UNL d   1      32.640  20.216 -21.543  0.00  0.00    -0.208 NA
ATOM     23  C   UNL d   1      32.481  20.580 -20.816  0.00  0.00     0.279 C 
ATOM     24  O   UNL d   1      32.345  20.126 -20.164  0.00  0.00    -0.265 OA
BRANCH  23  25
ATOM     25  C   UNL d   1      32.457  21.394 -20.745  0.00  0.00     0.058 A 
ATOM     26  C   UNL d   1      33.138  21.845 -20.830  0.00  0.00     0.005 A 
ATOM     27  C   UNL d   1      33.096  22.666 -20.755  0.00  0.00     0.000 A 
ATOM     28  C   UNL d   1      32.379  23.025 -20.597  0.00  0.00     0.000 A 
ATOM     29  C   UNL d   1      31.710  22.578 -20.513  0.00  0.00     0.000 A 
ATOM     30  C   UNL d   1      31.752  21.757 -20.588  0.00  0.00     0.005 A 
ENDBRANCH  23  25
ENDBRANCH   2  22
TORSDOF 9
ENDMDL
