MODEL 1
REMARK VINA RESULT:      -5.9      0.000      0.000
REMARK  4 active torsions:
REMARK  status: ('A' for Active; 'I' for Inactive)
REMARK    1  A    between atoms: C_11  and  C_4 
REMARK    2  A    between atoms: C_12  and  C_5 
REMARK    3  A    between atoms: C_7  and  C_11 
REMARK    4  A    between atoms: C_8  and  C_12 
ROOT
ATOM      1  N   UNL d   1     -48.047  13.126  22.923  0.00  0.00    -0.246 NA
ATOM      2  C   UNL d   1     -48.701  14.615  22.699  0.00  0.00     0.003 A 
ATOM      3  C   UNL d   1     -49.188  13.954  22.749  0.00  0.00     0.019 A 
ATOM      4  C   UNL d   1     -48.859  13.205  22.862  0.00  0.00     0.081 A 
ATOM      5  C   UNL d   1     -47.555  13.780  22.874  0.00  0.00     0.081 A 
ATOM      6  C   UNL d   1     -47.885  14.529  22.762  0.00  0.00     0.019 A 
ATOM      7  C   UNL d   1     -49.025  15.353  22.589  0.00  0.00     0.000 C 
ENDROOT
BRANCH   4   8
ATOM      8  C   UNL d   1     -49.373  12.541  22.910  0.00  0.00     0.019 C 
BRANCH   8   9
ATOM      9  C   UNL d   1     -49.595  12.241  23.634  0.00  0.00     0.002 C 
ATOM     10  C   UNL d   1     -50.134  11.609  23.697  0.00  0.00     0.000 C 
ENDBRANCH   8   9
ENDBRANCH   4   8
BRANCH   5  11
ATOM     11  C   UNL d   1     -46.723  13.687  22.939  0.00  0.00     0.019 C 
BRANCH  11  12
ATOM     12  C   UNL d   1     -46.293  13.385  22.313  0.00  0.00     0.002 C 
ATOM     13  C   UNL d   1     -45.465  13.349  22.361  0.00  0.00     0.000 C 
ENDBRANCH  11  12
ENDBRANCH   5  11
TORSDOF 4
ENDMDL
MODEL 2
REMARK VINA RESULT:      -5.9      0.112      2.859
REMARK  4 active torsions:
REMARK  status: ('A' for Active; 'I' for Inactive)
REMARK    1  A    between atoms: C_11  and  C_4 
REMARK    2  A    between atoms: C_12  and  C_5 
REMARK    3  A    between atoms: C_7  and  C_11 
REMARK    4  A    between atoms: C_8  and  C_12 
ROOT
ATOM      1  N   UNL d   1     -47.936  13.106  22.897  0.00  0.00    -0.246 NA
ATOM      2  C   UNL d   1     -48.620  14.584  22.690  0.00  0.00     0.003 A 
ATOM      3  C   UNL d   1     -47.802  14.512  22.734  0.00  0.00     0.019 A 
ATOM      4  C   UNL d   1     -47.458  13.768  22.838  0.00  0.00     0.081 A 
ATOM      5  C   UNL d   1     -48.752  13.171  22.853  0.00  0.00     0.081 A 
ATOM      6  C   UNL d   1     -49.096  13.915  22.749  0.00  0.00     0.019 A 
ATOM      7  C   UNL d   1     -48.959  15.316  22.587  0.00  0.00     0.000 C 
ENDROOT
BRANCH   4   8
ATOM      8  C   UNL d   1     -46.619  13.713  22.882  0.00  0.00     0.019 C 
BRANCH   8   9
ATOM      9  C   UNL d   1     -46.194  13.385  22.269  0.00  0.00     0.002 C 
ATOM     10  C   UNL d   1     -45.362  13.341  22.293  0.00  0.00     0.000 C 
ENDBRANCH   8   9
ENDBRANCH   4   8
BRANCH   5  11
ATOM     11  C   UNL d   1     -49.233  12.485  22.914  0.00  0.00     0.019 C 
BRANCH  11  12
ATOM     12  C   UNL d   1     -49.495  12.230  23.645  0.00  0.00     0.002 C 
ATOM     13  C   UNL d   1     -50.002  11.574  23.696  0.00  0.00     0.000 C 
ENDBRANCH  11  12
ENDBRANCH   5  11
TORSDOF 4
ENDMDL
MODEL 3
REMARK VINA RESULT:      -5.8      0.772      2.047
REMARK  4 active torsions:
REMARK  status: ('A' for Active; 'I' for Inactive)
REMARK    1  A    between atoms: C_11  and  C_4 
REMARK    2  A    between atoms: C_12  and  C_5 
REMARK    3  A    between atoms: C_7  and  C_11 
REMARK    4  A    between atoms: C_8  and  C_12 
ROOT
ATOM      1  N   UNL d   1     -47.760  13.841  22.845  0.00  0.00    -0.246 NA
ATOM      2  C   UNL d   1     -48.344  12.399  23.367  0.00  0.00     0.003 A 
ATOM      3  C   UNL d   1     -48.863  13.004  23.164  0.00  0.00     0.019 A 
ATOM      4  C   UNL d   1     -48.569  13.730  22.901  0.00  0.00     0.081 A 
ATOM      5  C   UNL d   1     -47.237  13.243  23.045  0.00  0.00     0.081 A 
ATOM      6  C   UNL d   1     -47.531  12.517  23.308  0.00  0.00     0.019 A 
ATOM      7  C   UNL d   1     -48.633  11.684  23.626  0.00  0.00     0.000 C 
ENDROOT
BRANCH   4   8
ATOM      8  C   UNL d   1     -49.114  14.337  22.698  0.00  0.00     0.019 C 
BRANCH   8   9
ATOM      9  C   UNL d   1     -49.272  14.943  23.220  0.00  0.00     0.002 C 
ATOM     10  C   UNL d   1     -49.827  15.538  23.040  0.00  0.00     0.000 C 
ENDBRANCH   8   9
ENDBRANCH   4   8
BRANCH   5  11
ATOM     11  C   UNL d   1     -46.409  13.368  22.984  0.00  0.00     0.019 C 
BRANCH  11  12
ATOM     12  C   UNL d   1     -46.030  13.268  22.267  0.00  0.00     0.002 C 
ATOM     13  C   UNL d   1     -45.205  13.352  22.220  0.00  0.00     0.000 C 
ENDBRANCH  11  12
ENDBRANCH   5  11
TORSDOF 4
ENDMDL
MODEL 4
REMARK VINA RESULT:      -5.8      0.760      3.150
REMARK  4 active torsions:
REMARK  status: ('A' for Active; 'I' for Inactive)
REMARK    1  A    between atoms: C_11  and  C_4 
REMARK    2  A    between atoms: C_12  and  C_5 
REMARK    3  A    between atoms: C_7  and  C_11 
REMARK    4  A    between atoms: C_8  and  C_12 
ROOT
ATOM      1  N   UNL d   1     -47.770  13.847  22.857  0.00  0.00    -0.246 NA
ATOM      2  C   UNL d   1     -48.417  12.409  23.315  0.00  0.00     0.003 A 
ATOM      3  C   UNL d   1     -47.600  12.499  23.275  0.00  0.00     0.019 A 
ATOM      4  C   UNL d   1     -47.275  13.222  23.045  0.00  0.00     0.081 A 
ATOM      5  C   UNL d   1     -48.584  13.764  22.895  0.00  0.00     0.081 A 
ATOM      6  C   UNL d   1     -48.910  13.041  23.125  0.00  0.00     0.019 A 
ATOM      7  C   UNL d   1     -48.738  11.697  23.542  0.00  0.00     0.000 C 
ENDROOT
BRANCH   4   8
ATOM      8  C   UNL d   1     -46.437  13.295  23.010  0.00  0.00     0.019 C 
BRANCH   8   9
ATOM      9  C   UNL d   1     -46.055  13.331  22.291  0.00  0.00     0.002 C 
ATOM     10  C   UNL d   1     -45.223  13.350  22.242  0.00  0.00     0.000 C 
ENDBRANCH   8   9
ENDBRANCH   4   8
BRANCH   5  11
ATOM     11  C   UNL d   1     -49.083  14.412  22.700  0.00  0.00     0.019 C 
BRANCH  11  12
ATOM     12  C   UNL d   1     -49.287  14.960  23.271  0.00  0.00     0.002 C 
ATOM     13  C   UNL d   1     -49.792  15.590  23.076  0.00  0.00     0.000 C 
ENDBRANCH  11  12
ENDBRANCH   5  11
TORSDOF 4
ENDMDL
MODEL 5
REMARK VINA RESULT:      -5.6      1.025      2.418
REMARK  4 active torsions:
REMARK  status: ('A' for Active; 'I' for Inactive)
REMARK    1  A    between atoms: C_11  and  C_4 
REMARK    2  A    between atoms: C_12  and  C_5 
REMARK    3  A    between atoms: C_7  and  C_11 
REMARK    4  A    between atoms: C_8  and  C_12 
ROOT
ATOM      1  N   UNL d   1     -47.643  13.388  23.306  0.00  0.00    -0.246 NA
ATOM      2  C   UNL d   1     -46.174  13.331  22.576  0.00  0.00     0.003 A 
ATOM      3  C   UNL d   1     -46.478  12.661  22.943  0.00  0.00     0.019 A 
ATOM      4  C   UNL d   1     -47.217  12.690  23.310  0.00  0.00     0.081 A 
ATOM      5  C   UNL d   1     -47.346  14.060  22.942  0.00  0.00     0.081 A 
ATOM      6  C   UNL d   1     -46.607  14.031  22.575  0.00  0.00     0.019 A 
ATOM      7  C   UNL d   1     -45.446  13.302  22.214  0.00  0.00     0.000 C 
ENDROOT
BRANCH   4   8
ATOM      8  C   UNL d   1     -47.512  11.994  23.681  0.00  0.00     0.019 C 
BRANCH   8   9
ATOM      9  C   UNL d   1     -48.030  11.504  23.288  0.00  0.00     0.002 C 
ATOM     10  C   UNL d   1     -48.595  11.050  23.698  0.00  0.00     0.000 C 
ENDBRANCH   8   9
ENDBRANCH   4   8
BRANCH   5  11
ATOM     11  C   UNL d   1     -47.792  14.772  22.944  0.00  0.00     0.019 C 
BRANCH  11  12
ATOM     12  C   UNL d   1     -48.460  14.841  22.478  0.00  0.00     0.002 C 
ATOM     13  C   UNL d   1     -48.953  15.503  22.558  0.00  0.00     0.000 C 
ENDBRANCH  11  12
ENDBRANCH   5  11
TORSDOF 4
ENDMDL
MODEL 6
REMARK VINA RESULT:      -5.6      1.363      3.509
REMARK  4 active torsions:
REMARK  status: ('A' for Active; 'I' for Inactive)
REMARK    1  A    between atoms: C_11  and  C_4 
REMARK    2  A    between atoms: C_12  and  C_5 
REMARK    3  A    between atoms: C_7  and  C_11 
REMARK    4  A    between atoms: C_8  and  C_12 
ROOT
ATOM      1  N   UNL d   1     -48.268  12.671  23.095  0.00  0.00    -0.246 NA
ATOM      2  C   UNL d   1     -47.142  11.546  23.498  0.00  0.00     0.003 A 
ATOM      3  C   UNL d   1     -46.918  12.228  23.096  0.00  0.00     0.019 A 
ATOM      4  C   UNL d   1     -47.484  12.794  22.893  0.00  0.00     0.081 A 
ATOM      5  C   UNL d   1     -48.499  11.994  23.495  0.00  0.00     0.081 A 
ATOM      6  C   UNL d   1     -47.932  11.429  23.698  0.00  0.00     0.019 A 
ATOM      7  C   UNL d   1     -46.585  10.989  23.698  0.00  0.00     0.000 C 
ENDROOT
BRANCH   4   8
ATOM      8  C   UNL d   1     -47.236  13.485  22.482  0.00  0.00     0.019 C 
BRANCH   8   9
ATOM      9  C   UNL d   1     -47.158  14.194  22.875  0.00  0.00     0.002 C 
ATOM     10  C   UNL d   1     -46.814  14.859  22.508  0.00  0.00     0.000 C 
ENDBRANCH   8   9
ENDBRANCH   4   8
BRANCH   5  11
ATOM     11  C   UNL d   1     -49.306  11.879  23.697  0.00  0.00     0.019 C 
BRANCH  11  12
ATOM     12  C   UNL d   1     -49.870  11.800  23.110  0.00  0.00     0.002 C 
ATOM     13  C   UNL d   1     -50.676  11.834  23.305  0.00  0.00     0.000 C 
ENDBRANCH  11  12
ENDBRANCH   5  11
TORSDOF 4
ENDMDL
MODEL 7
REMARK VINA RESULT:      -5.6      1.224      2.761
REMARK  4 active torsions:
REMARK  status: ('A' for Active; 'I' for Inactive)
REMARK    1  A    between atoms: C_11  and  C_4 
REMARK    2  A    between atoms: C_12  and  C_5 
REMARK    3  A    between atoms: C_7  and  C_11 
REMARK    4  A    between atoms: C_8  and  C_12 
ROOT
ATOM      1  N   UNL d   1     -48.321  12.668  22.935  0.00  0.00    -0.246 NA
ATOM      2  C   UNL d   1     -49.755  12.053  23.445  0.00  0.00     0.003 A 
ATOM      3  C   UNL d   1     -49.062  11.622  23.549  0.00  0.00     0.019 A 
ATOM      4  C   UNL d   1     -48.341  11.931  23.292  0.00  0.00     0.081 A 
ATOM      5  C   UNL d   1     -49.007  13.102  22.828  0.00  0.00     0.081 A 
ATOM      6  C   UNL d   1     -49.729  12.793  23.085  0.00  0.00     0.019 A 
ATOM      7  C   UNL d   1     -50.466  11.749  23.698  0.00  0.00     0.000 C 
ENDROOT
BRANCH   4   8
ATOM      8  C   UNL d   1     -47.642  11.476  23.407  0.00  0.00     0.019 C 
BRANCH   8   9
ATOM      9  C   UNL d   1     -46.958  11.828  23.675  0.00  0.00     0.002 C 
ATOM     10  C   UNL d   1     -46.235  11.416  23.691  0.00  0.00     0.000 C 
ENDBRANCH   8   9
ENDBRANCH   4   8
BRANCH   5  11
ATOM     11  C   UNL d   1     -48.975  13.857  22.460  0.00  0.00     0.019 C 
BRANCH  11  12
ATOM     12  C   UNL d   1     -49.034  14.537  22.909  0.00  0.00     0.002 C 
ATOM     13  C   UNL d   1     -48.932  15.279  22.551  0.00  0.00     0.000 C 
ENDBRANCH  11  12
ENDBRANCH   5  11
TORSDOF 4
ENDMDL
MODEL 8
REMARK VINA RESULT:      -4.9      8.165      9.387
REMARK  4 active torsions:
REMARK  status: ('A' for Active; 'I' for Inactive)
REMARK    1  A    between atoms: C_11  and  C_4 
REMARK    2  A    between atoms: C_12  and  C_5 
REMARK    3  A    between atoms: C_7  and  C_11 
REMARK    4  A    between atoms: C_8  and  C_12 
ROOT
ATOM      1  N   UNL d   1     -40.170  14.797  18.626  0.00  0.00    -0.246 NA
ATOM      2  C   UNL d   1     -40.945  15.549  17.390  0.00  0.00     0.003 A 
ATOM      3  C   UNL d   1     -40.933  15.892  18.138  0.00  0.00     0.019 A 
ATOM      4  C   UNL d   1     -40.543  15.513  18.760  0.00  0.00     0.081 A 
ATOM      5  C   UNL d   1     -40.178  14.450  17.884  0.00  0.00     0.081 A 
ATOM      6  C   UNL d   1     -40.568  14.829  17.262  0.00  0.00     0.019 A 
ATOM      7  C   UNL d   1     -41.328  15.922  16.777  0.00  0.00     0.000 C 
ENDROOT
BRANCH   4   8
ATOM      8  C   UNL d   1     -40.542  15.879  19.518  0.00  0.00     0.019 C 
BRANCH   8   9
ATOM      9  C   UNL d   1     -40.934  15.535  20.143  0.00  0.00     0.002 C 
ATOM     10  C   UNL d   1     -40.987  15.913  20.884  0.00  0.00     0.000 C 
ENDBRANCH   8   9
ENDBRANCH   4   8
BRANCH   5  11
ATOM     11  C   UNL d   1     -39.792  13.714  17.759  0.00  0.00     0.019 C 
BRANCH  11  12
ATOM     12  C   UNL d   1     -39.019  13.695  17.493  0.00  0.00     0.002 C 
ATOM     13  C   UNL d   1     -38.639  12.966  17.380  0.00  0.00     0.000 C 
ENDBRANCH  11  12
ENDBRANCH   5  11
TORSDOF 4
ENDMDL
MODEL 9
REMARK VINA RESULT:      -3.5      0.850      2.584
REMARK  4 active torsions:
REMARK  status: ('A' for Active; 'I' for Inactive)
REMARK    1  A    between atoms: C_11  and  C_4 
REMARK    2  A    between atoms: C_12  and  C_5 
REMARK    3  A    between atoms: C_7  and  C_11 
REMARK    4  A    between atoms: C_8  and  C_12 
ROOT
ATOM      1  N   UNL d   1     -48.548  13.372  22.803  0.00  0.00    -0.246 NA
ATOM      2  C   UNL d   1     -46.974  13.835  22.865  0.00  0.00     0.003 A 
ATOM      3  C   UNL d   1     -47.562  14.391  22.713  0.00  0.00     0.019 A 
ATOM      4  C   UNL d   1     -48.353  14.158  22.682  0.00  0.00     0.081 A 
ATOM      5  C   UNL d   1     -47.968  12.813  22.955  0.00  0.00     0.081 A 
ATOM      6  C   UNL d   1     -47.176  13.046  22.986  0.00  0.00     0.019 A 
ATOM      7  C   UNL d   1     -46.195  14.065  22.896  0.00  0.00     0.000 C 
ENDROOT
BRANCH   4   8
ATOM      8  C   UNL d   1     -48.940  14.740  22.526  0.00  0.00     0.019 C 
BRANCH   8   9
ATOM      9  C   UNL d   1     -49.289  15.151  23.138  0.00  0.00     0.002 C 
ATOM     10  C   UNL d   1     -49.982  15.597  23.021  0.00  0.00     0.000 C 
ENDBRANCH   8   9
ENDBRANCH   4   8
BRANCH   5  11
ATOM     11  C   UNL d   1     -48.180  12.009  23.077  0.00  0.00     0.019 C 
BRANCH  11  12
ATOM     12  C   UNL d   1     -48.670  11.803  23.697  0.00  0.00     0.002 C 
ATOM     13  C   UNL d   1     -49.044  11.061  23.698  0.00  0.00     0.000 C 
ENDBRANCH  11  12
ENDBRANCH   5  11
TORSDOF 4
ENDMDL
