MODEL 1
REMARK VINA RESULT:      36.1      0.000      0.000
REMARK  3 active torsions:
REMARK  status: ('A' for Active; 'I' for Inactive)
REMARK    1  A    between atoms: S_7  and  C_4 
REMARK    2  A    between atoms: C_9  and  S_7 
REMARK    3  A    between atoms: C_10  and  C_9 
ROOT
ATOM      1  S   UNL d   1      58.920  49.439  51.402  0.00  0.00    -0.046 SA
ENDROOT
BRANCH   1   2
ATOM      2  C   UNL d   1      58.199  49.505  51.007  0.00  0.00     0.217 A 
ATOM      3  N   UNL d   1      58.171  49.443  50.182  0.00  0.00    -0.180 NA
ATOM      4  C   UNL d   1      57.450  49.510  49.787  0.00  0.00     0.300 A 
ATOM      5  C   UNL d   1      56.758  49.638  50.215  0.00  0.00     0.161 A 
ATOM      6  O   UNL d   1      57.423  49.447  48.963  0.00  0.00    -0.263 OA
ATOM      7  C   UNL d   1      56.036  49.705  49.820  0.00  0.00     0.028 C 
ATOM      8  N   UNL d   1      56.786  49.700  51.040  0.00  0.00    -0.141 NA
ATOM      9  N   UNL d   1      57.506  49.634  51.435  0.00  0.00    -0.121 NA
ENDBRANCH   1   2
BRANCH   1  10
ATOM     10  C   UNL d   1      59.617  49.699  51.039  0.00  0.00     0.038 C 
BRANCH  10  11
ATOM     11  C   UNL d   1      60.223  49.163  50.875  0.00  0.00     0.007 A 
ATOM     12  C   UNL d   1      60.757  49.316  50.265  0.00  0.00     0.001 A 
ATOM     13  C   UNL d   1      61.364  48.781  50.101  0.00  0.00     0.000 A 
ATOM     14  C   UNL d   1      61.434  48.092  50.549  0.00  0.00     0.000 A 
ATOM     15  C   UNL d   1      60.900  47.939  51.160  0.00  0.00     0.000 A 
ATOM     16  C   UNL d   1      62.040  47.556  50.386  0.00  0.00     0.000 C 
ATOM     17  C   UNL d   1      60.294  48.474  51.324  0.00  0.00     0.001 A 
ENDBRANCH  10  11
ENDBRANCH   1  10
TORSDOF 3
ENDMDL
