MODEL 1
REMARK VINA RESULT:     -10.6      0.000      0.000
REMARK  6 active torsions:
REMARK  status: ('A' for Active; 'I' for Inactive)
REMARK    1  A    between atoms: C_22  and  C_3 
REMARK    2  A    between atoms: S_17  and  C_5 
REMARK    3  A    between atoms: C_11  and  C_16 
REMARK       I    between atoms: N_14  and  C_11 
REMARK    4  A    between atoms: C_19  and  N_14 
REMARK    5  A    between atoms: C_16  and  C_20 
REMARK    6  A    between atoms: C_20  and  S_17 
ROOT
ATOM      1  C   UNL d   1      52.788  34.027  53.672  0.00  0.00     0.092 A 
ATOM      2  C   UNL d   1      53.265  32.684  53.700  0.00  0.00     0.057 A 
ATOM      3  C   UNL d   1      53.343  33.473  53.925  0.00  0.00     0.016 A 
ATOM      4  N   UNL d   1      52.079  33.005  52.972  0.00  0.00    -0.239 NA
ATOM      5  C   UNL d   1      52.157  33.793  53.196  0.00  0.00     0.120 A 
ATOM      6  C   UNL d   1      52.633  32.450  53.224  0.00  0.00     0.081 A 
ATOM      7  C   UNL d   1      53.819  32.131  53.953  0.00  0.00     0.193 A 
ATOM      8  C   UNL d   1      52.865  34.828  53.899  0.00  0.00     0.103 C 
ATOM      9  N   UNL d   1      52.951  35.625  54.130  0.00  0.00    -0.191 NA
ATOM     10  C   UNL d   1      53.112  31.100  53.252  0.00  0.00     0.042 A 
ATOM     11  C   UNL d   1      53.744  31.334  53.729  0.00  0.00     0.019 A 
ATOM     12  C   UNL d   1      52.556  31.662  53.000  0.00  0.00    -0.003 A 
ATOM     13  O   UNL d   1      54.450  32.365  54.429  0.00  0.00    -0.287 OA
ATOM     14  C   UNL d   1      52.606  30.615  52.806  0.00  0.00     0.009 C 
ATOM     15  C   UNL d   1      53.662  30.539  53.500  0.00  0.00     0.009 C 
ENDROOT
BRANCH   3  16
ATOM     16  C   UNL d   1      53.974  33.707  54.400  0.00  0.00     0.001 C 
ATOM     17  C   UNL d   1      53.906  33.675  55.221  0.00  0.00     0.000 C 
ENDBRANCH   3  16
BRANCH   5  18
ATOM     18  S   UNL d   1      51.599  34.359  52.944  0.00  0.00    -0.067 SA
BRANCH  18  19
ATOM     19  C   UNL d   1      50.802  34.154  52.878  0.00  0.00     0.042 C 
BRANCH  19  20
ATOM     20  C   UNL d   1      50.348  34.462  52.258  0.00  0.00     0.070 C 
BRANCH  20  21
ATOM     21  C   UNL d   1      49.582  34.758  52.416  0.00  0.00     0.280 C 
ATOM     22  N   UNL d   1      49.159  35.135  51.812  0.00  0.00    -0.208 NA
ATOM     23  O   UNL d   1      49.258  34.673  53.169  0.00  0.00    -0.265 OA
BRANCH  22  24
ATOM     24  C   UNL d   1      48.393  35.432  51.969  0.00  0.00     0.085 A 
ATOM     25  C   UNL d   1      47.755  35.159  51.527  0.00  0.00     0.021 A 
ATOM     26  C   UNL d   1      46.998  35.448  51.676  0.00  0.00     0.031 A 
ATOM     27  C   UNL d   1      46.880  36.009  52.269  0.00  0.00     0.140 A 
ATOM     28  C   UNL d   1      47.526  36.282  52.714  0.00  0.00     0.031 A 
ATOM     29  F   UNL d   1      46.118  36.306  52.427  0.00  0.00    -0.204 F 
ATOM     30  C   UNL d   1      48.282  35.993  52.564  0.00  0.00     0.021 A 
ENDBRANCH  22  24
ENDBRANCH  20  21
ENDBRANCH  19  20
ENDBRANCH  18  19
ENDBRANCH   5  18
TORSDOF 6
ENDMDL
MODEL 2
REMARK VINA RESULT:      -8.6      0.733      2.172
REMARK  6 active torsions:
REMARK  status: ('A' for Active; 'I' for Inactive)
REMARK    1  A    between atoms: C_22  and  C_3 
REMARK    2  A    between atoms: S_17  and  C_5 
REMARK    3  A    between atoms: C_11  and  C_16 
REMARK       I    between atoms: N_14  and  C_11 
REMARK    4  A    between atoms: C_19  and  N_14 
REMARK    5  A    between atoms: C_16  and  C_20 
REMARK    6  A    between atoms: C_20  and  S_17 
ROOT
ATOM      1  C   UNL d   1      52.720  32.476  53.226  0.00  0.00     0.092 A 
ATOM      2  C   UNL d   1      53.645  33.076  54.129  0.00  0.00     0.057 A 
ATOM      3  C   UNL d   1      53.416  32.436  53.664  0.00  0.00     0.016 A 
ATOM      4  N   UNL d   1      52.482  33.795  53.719  0.00  0.00    -0.239 NA
ATOM      5  C   UNL d   1      52.253  33.156  53.254  0.00  0.00     0.120 A 
ATOM      6  C   UNL d   1      53.178  33.755  54.157  0.00  0.00     0.081 A 
ATOM      7  C   UNL d   1      54.341  33.035  54.567  0.00  0.00     0.193 A 
ATOM      8  C   UNL d   1      52.485  31.828  52.753  0.00  0.00     0.103 C 
ATOM      9  N   UNL d   1      52.260  31.176  52.285  0.00  0.00    -0.191 NA
ATOM     10  C   UNL d   1      54.109  34.358  55.065  0.00  0.00     0.042 A 
ATOM     11  C   UNL d   1      54.576  33.679  55.037  0.00  0.00     0.019 A 
ATOM     12  C   UNL d   1      53.407  34.394  54.622  0.00  0.00    -0.003 A 
ATOM     13  O   UNL d   1      54.808  32.357  54.539  0.00  0.00    -0.287 OA
ATOM     14  C   UNL d   1      53.846  35.121  55.268  0.00  0.00     0.009 C 
ATOM     15  C   UNL d   1      54.803  34.327  55.505  0.00  0.00     0.009 C 
ENDROOT
BRANCH   3  16
ATOM     16  C   UNL d   1      53.883  31.757  53.636  0.00  0.00     0.001 C 
ATOM     17  C   UNL d   1      53.702  31.112  54.116  0.00  0.00     0.000 C 
ENDBRANCH   3  16
BRANCH   5  18
ATOM     18  S   UNL d   1      51.549  33.190  52.808  0.00  0.00    -0.067 SA
BRANCH  18  19
ATOM     19  C   UNL d   1      51.028  33.823  52.905  0.00  0.00     0.042 C 
BRANCH  19  20
ATOM     20  C   UNL d   1      50.512  34.029  52.292  0.00  0.00     0.070 C 
BRANCH  20  21
ATOM     21  C   UNL d   1      49.817  34.461  52.465  0.00  0.00     0.280 C 
ATOM     22  N   UNL d   1      49.368  34.775  51.845  0.00  0.00    -0.208 NA
ATOM     23  O   UNL d   1      49.587  34.568  53.250  0.00  0.00    -0.265 OA
BRANCH  22  24
ATOM     24  C   UNL d   1      48.673  35.208  52.018  0.00  0.00     0.085 A 
ATOM     25  C   UNL d   1      48.018  35.133  51.526  0.00  0.00     0.021 A 
ATOM     26  C   UNL d   1      47.330  35.556  51.690  0.00  0.00     0.031 A 
ATOM     27  C   UNL d   1      47.299  36.053  52.348  0.00  0.00     0.140 A 
ATOM     28  C   UNL d   1      47.962  36.126  52.843  0.00  0.00     0.031 A 
ATOM     29  F   UNL d   1      46.608  36.485  52.521  0.00  0.00    -0.204 F 
ATOM     30  C   UNL d   1      48.649  35.703  52.677  0.00  0.00     0.021 A 
ENDBRANCH  22  24
ENDBRANCH  20  21
ENDBRANCH  19  20
ENDBRANCH  18  19
ENDBRANCH   5  18
TORSDOF 6
ENDMDL
