MODEL 1
REMARK VINA RESULT:      -0.5      0.000      0.000
REMARK  4 active torsions:
REMARK  status: ('A' for Active; 'I' for Inactive)
REMARK    1  A    between atoms: C_2  and  S_1 
REMARK    2  A    between atoms: N_3  and  S_1 
REMARK    3  A    between atoms: C_4  and  C_6 
REMARK       I    between atoms: N_7  and  C_4 
REMARK    4  A    between atoms: C_14  and  N_7 
ROOT
ATOM      1  C   UNL d   1     -41.678-121.934 -52.784  0.00  0.00     0.104 A 
ATOM      2  C   UNL d   1     -41.872-122.376 -52.115  0.00  0.00     0.018 A 
ATOM      3  C   UNL d   1     -41.701-122.079 -51.360  0.00  0.00     0.059 A 
ATOM      4  C   UNL d   1     -41.317-121.204 -52.701  0.00  0.00     0.012 A 
ATOM      5  C   UNL d   1     -41.337-121.342 -51.278  0.00  0.00     0.005 A 
ATOM      6  C   UNL d   1     -41.146-120.908 -51.946  0.00  0.00     0.001 A 
ATOM      7  C   UNL d   1     -41.123-120.762 -53.370  0.00  0.00     0.001 C 
ENDROOT
BRANCH   3   8
ATOM      8  C   UNL d   1     -41.894-122.520 -50.684  0.00  0.00     0.279 C 
ATOM      9  N   UNL d   1     -42.097-122.136 -49.985  0.00  0.00    -0.208 NA
ATOM     10  O   UNL d   1     -41.884-123.344 -50.712  0.00  0.00    -0.265 OA
BRANCH   9  11
ATOM     11  C   UNL d   1     -42.288-122.572 -49.314  0.00  0.00     0.087 A 
ATOM     12  C   UNL d   1     -41.793-122.552 -48.664  0.00  0.00     0.045 A 
ATOM     13  C   UNL d   1     -41.978-122.983 -47.994  0.00  0.00     0.121 A 
ATOM     14  O   UNL d   1     -41.596-123.076 -47.261  0.00  0.00    -0.299 OA
ATOM     15  C   UNL d   1     -42.669-123.442 -47.973  0.00  0.00     0.119 A 
ATOM     16  C   UNL d   1     -42.044-123.585 -46.789  0.00  0.00     0.304 A 
ATOM     17  O   UNL d   1     -42.716-123.816 -47.233  0.00  0.00    -0.300 OA
ATOM     18  C   UNL d   1     -43.170-123.460 -48.633  0.00  0.00     0.028 A 
ATOM     19  C   UNL d   1     -42.980-123.026 -49.303  0.00  0.00     0.021 A 
ENDBRANCH   9  11
ENDBRANCH   3   8
BRANCH   1  20
ATOM     20  S   UNL d   1     -41.847-122.227 -53.531  0.00  0.00     0.271 S 
ATOM     21  O   UNL d   1     -42.351-121.574 -53.674  0.00  0.00    -0.200 OA
ATOM     22  O   UNL d   1     -41.278-122.965 -53.370  0.00  0.00    -0.200 OA
BRANCH  20  23
ATOM     23  N   UNL d   1     -41.986-122.566 -54.277  0.00  0.00    -0.229 N 
ATOM     24  C   UNL d   1     -42.523-122.213 -54.795  0.00  0.00     0.092 A 
ATOM     25  C   UNL d   1     -42.663-122.543 -55.531  0.00  0.00     0.020 A 
ATOM     26  C   UNL d   1     -42.271-123.227 -55.761  0.00  0.00     0.003 A 
ATOM     27  C   UNL d   1     -41.734-123.580 -55.242  0.00  0.00     0.020 A 
ATOM     28  C   UNL d   1     -41.590-123.251 -54.501  0.00  0.00     0.092 A 
ENDBRANCH  20  23
ENDBRANCH   1  20
TORSDOF 4
ENDMDL
MODEL 2
REMARK VINA RESULT:       2.2      1.566      5.684
REMARK  4 active torsions:
REMARK  status: ('A' for Active; 'I' for Inactive)
REMARK    1  A    between atoms: C_2  and  S_1 
REMARK    2  A    between atoms: N_3  and  S_1 
REMARK    3  A    between atoms: C_4  and  C_6 
REMARK       I    between atoms: N_7  and  C_4 
REMARK    4  A    between atoms: C_14  and  N_7 
ROOT
ATOM      1  C   UNL d   1     -42.909-122.616 -49.891  0.00  0.00     0.104 A 
ATOM      2  C   UNL d   1     -42.469-122.613 -50.590  0.00  0.00     0.018 A 
ATOM      3  C   UNL d   1     -42.786-122.274 -51.276  0.00  0.00     0.059 A 
ATOM      4  C   UNL d   1     -43.657-122.285 -49.879  0.00  0.00     0.012 A 
ATOM      5  C   UNL d   1     -43.542-121.940 -51.262  0.00  0.00     0.005 A 
ATOM      6  C   UNL d   1     -43.974-121.946 -50.565  0.00  0.00     0.001 A 
ATOM      7  C   UNL d   1     -44.097-122.288 -49.180  0.00  0.00     0.001 C 
ENDROOT
BRANCH   3   8
ATOM      8  C   UNL d   1     -42.348-122.268 -51.980  0.00  0.00     0.279 C 
ATOM      9  N   UNL d   1     -42.726-122.375 -52.704  0.00  0.00    -0.208 NA
ATOM     10  O   UNL d   1     -41.531-122.156 -51.957  0.00  0.00    -0.265 OA
BRANCH   9  11
ATOM     11  C   UNL d   1     -42.293-122.369 -53.403  0.00  0.00     0.087 A 
ATOM     12  C   UNL d   1     -42.589-121.983 -54.059  0.00  0.00     0.045 A 
ATOM     13  C   UNL d   1     -42.163-121.974 -54.757  0.00  0.00     0.121 A 
ATOM     14  O   UNL d   1     -42.311-121.638 -55.503  0.00  0.00    -0.299 OA
ATOM     15  C   UNL d   1     -41.428-122.357 -54.800  0.00  0.00     0.119 A 
ATOM     16  C   UNL d   1     -41.677-121.808 -56.004  0.00  0.00     0.304 A 
ATOM     17  O   UNL d   1     -41.123-122.259 -55.566  0.00  0.00    -0.300 OA
ATOM     18  C   UNL d   1     -41.130-122.747 -54.133  0.00  0.00     0.028 A 
ATOM     19  C   UNL d   1     -41.561-122.754 -53.435  0.00  0.00     0.021 A 
ENDBRANCH   9  11
ENDBRANCH   3   8
BRANCH   1  20
ATOM     20  S   UNL d   1     -42.595-122.951 -49.212  0.00  0.00     0.271 S 
ATOM     21  O   UNL d   1     -42.821-123.710 -49.482  0.00  0.00    -0.200 OA
ATOM     22  O   UNL d   1     -42.340-122.093 -48.907  0.00  0.00    -0.200 OA
BRANCH  20  23
ATOM     23  N   UNL d   1     -42.263-123.241 -48.508  0.00  0.00    -0.229 N 
ATOM     24  C   UNL d   1     -42.754-123.458 -47.880  0.00  0.00     0.092 A 
ATOM     25  C   UNL d   1     -42.432-123.743 -47.185  0.00  0.00     0.020 A 
ATOM     26  C   UNL d   1     -41.617-123.817 -47.104  0.00  0.00     0.003 A 
ATOM     27  C   UNL d   1     -41.127-123.600 -47.731  0.00  0.00     0.020 A 
ATOM     28  C   UNL d   1     -41.447-123.312 -48.433  0.00  0.00     0.092 A 
ENDBRANCH  20  23
ENDBRANCH   1  20
TORSDOF 4
ENDMDL
