MODEL 1
REMARK VINA RESULT:      47.5      0.000      0.000
REMARK  4 active torsions:
REMARK  status: ('A' for Active; 'I' for Inactive)
REMARK    1  A    between atoms: C_10  and  C_3 
REMARK    2  A    between atoms: C_11  and  N_5 
REMARK    3  A    between atoms: O_17  and  C_10 
REMARK    4  A    between atoms: C_21  and  O_17 
ROOT
ATOM      1  C   UNL d   1     -58.506 -98.945 -43.899  0.00  0.00     0.086 A 
ATOM      2  C   UNL d   1     -57.688 -98.910 -43.837  0.00  0.00     0.038 A 
ATOM      3  C   UNL d   1     -57.224 -98.855 -44.516  0.00  0.00     0.165 A 
ATOM      4  C   UNL d   1     -58.867 -98.924 -44.644  0.00  0.00     0.282 A 
ATOM      5  N   UNL d   1     -58.406 -98.869 -45.322  0.00  0.00    -0.194 N 
ATOM      6  N   UNL d   1     -57.584 -98.834 -45.262  0.00  0.00    -0.157 NA
ATOM      7  C   UNL d   1     -58.813 -98.997 -43.133  0.00  0.00     0.137 A 
ATOM      8  C   UNL d   1     -57.494 -98.942 -43.035  0.00  0.00     0.039 A 
ATOM      9  S   UNL d   1     -58.185 -98.995 -42.606  0.00  0.00    -0.066 SA
ATOM     10  O   UNL d   1     -59.695 -98.959 -44.710  0.00  0.00    -0.265 OA
ATOM     11  N   UNL d   1     -59.615 -99.045 -42.914  0.00  0.00    -0.141 N 
ENDROOT
BRANCH   5  12
ATOM     12  C   UNL d   1     -58.764 -98.848 -46.063  0.00  0.00     0.086 A 
ATOM     13  C   UNL d   1     -58.302 -98.884 -46.745  0.00  0.00     0.019 A 
ATOM     14  C   UNL d   1     -58.663 -98.863 -47.493  0.00  0.00     0.002 A 
ATOM     15  C   UNL d   1     -59.484 -98.806 -47.552  0.00  0.00     0.000 A 
ATOM     16  C   UNL d   1     -59.943 -98.770 -46.872  0.00  0.00     0.002 A 
ATOM     17  C   UNL d   1     -59.842 -98.786 -48.293  0.00  0.00     0.000 C 
ATOM     18  C   UNL d   1     -59.582 -98.791 -46.124  0.00  0.00     0.019 A 
ENDBRANCH   5  12
BRANCH   3  19
ATOM     19  C   UNL d   1     -56.395 -98.820 -44.451  0.00  0.00     0.320 C 
ATOM     20  O   UNL d   1     -56.048 -98.757 -43.709  0.00  0.00    -0.257 OA
BRANCH  19  21
ATOM     21  O   UNL d   1     -55.922 -98.849 -45.129  0.00  0.00    -0.270 OA
BRANCH  21  22
ATOM     22  C   UNL d   1     -55.193 -99.227 -45.106  0.00  0.00     0.126 C 
ATOM     23  C   UNL d   1     -55.156-100.058 -45.095  0.00  0.00     0.029 C 
ENDBRANCH  21  22
ENDBRANCH  19  21
ENDBRANCH   3  19
TORSDOF 4
ENDMDL
