MODEL 1
REMARK VINA RESULT:      -4.1      0.000      0.000
REMARK  5 active torsions:
REMARK  status: ('A' for Active; 'I' for Inactive)
REMARK    1  A    between atoms: S_10  and  C_1 
REMARK    2  A    between atoms: C_2  and  C_3 
REMARK    3  A    between atoms: C_13  and  C_6 
REMARK       I    between atoms: N_8  and  C_9 
REMARK    4  A    between atoms: C_9  and  C_11 
REMARK    5  A    between atoms: C_11  and  S_10 
ROOT
ATOM      1  C   UNL d   1      58.341  -0.768  29.926  0.00  0.00     0.194 A 
ATOM      2  C   UNL d   1      59.694  -0.508  29.522  0.00  0.00     0.156 A 
ATOM      3  N   UNL d   1      58.988  -0.249  29.860  0.00  0.00    -0.217 NA
ATOM      4  N   UNL d   1      58.406  -1.525  29.657  0.00  0.00    -0.221 NA
ATOM      5  C   UNL d   1      59.120  -1.783  29.317  0.00  0.00     0.085 A 
ATOM      6  C   UNL d   1      59.759  -1.266  29.253  0.00  0.00     0.042 A 
ENDROOT
BRANCH   1   7
ATOM      7  S   UNL d   1      57.629  -0.497  30.270  0.00  0.00    -0.043 SA
BRANCH   7   8
ATOM      8  C   UNL d   1      57.481  -0.610  31.076  0.00  0.00     0.099 C 
BRANCH   8   9
ATOM      9  C   UNL d   1      56.950  -0.118  31.471  0.00  0.00     0.272 C 
ATOM     10  N   UNL d   1      56.496  -0.414  32.103  0.00  0.00    -0.267 N 
ATOM     11  C   UNL d   1      56.580  -1.204  32.333  0.00  0.00     0.110 A 
ATOM     12  C   UNL d   1      55.974   0.076  32.488  0.00  0.00     0.110 A 
ATOM     13  C   UNL d   1      56.141  -1.503  32.950  0.00  0.00     0.142 A 
ATOM     14  O   UNL d   1      55.606  -1.010  33.349  0.00  0.00    -0.300 OA
ATOM     15  C   UNL d   1      55.523  -0.220  33.118  0.00  0.00     0.142 A 
ATOM     16  O   UNL d   1      56.865   0.679  31.238  0.00  0.00    -0.266 OA
ENDBRANCH   8   9
ENDBRANCH   7   8
ENDBRANCH   1   7
BRANCH   2  17
ATOM     17  C   UNL d   1      60.321   0.018  29.466  0.00  0.00     0.435 C 
ATOM     18  F   UNL d   1      60.955   0.557  29.402  0.00  0.00    -0.165 F 
ATOM     19  F   UNL d   1      60.023   0.262  28.721  0.00  0.00    -0.165 F 
ATOM     20  F   UNL d   1      60.613  -0.228  30.209  0.00  0.00    -0.165 F 
ENDBRANCH   2  17
BRANCH   5  21
ATOM     21  C   UNL d   1      59.187  -2.567  29.039  0.00  0.00     0.018 A 
ATOM     22  C   UNL d   1      59.923  -2.959  29.067  0.00  0.00     0.002 A 
ATOM     23  C   UNL d   1      59.989  -3.731  28.794  0.00  0.00     0.000 A 
ATOM     24  C   UNL d   1      59.320  -4.125  28.486  0.00  0.00     0.000 A 
ATOM     25  C   UNL d   1      58.593  -3.745  28.455  0.00  0.00     0.000 A 
ATOM     26  C   UNL d   1      58.525  -2.948  28.737  0.00  0.00     0.002 A 
ENDBRANCH   5  21
TORSDOF 5
ENDMDL
MODEL 2
REMARK VINA RESULT:      -1.5      1.613      2.650
REMARK  5 active torsions:
REMARK  status: ('A' for Active; 'I' for Inactive)
REMARK    1  A    between atoms: S_10  and  C_1 
REMARK    2  A    between atoms: C_2  and  C_3 
REMARK    3  A    between atoms: C_13  and  C_6 
REMARK       I    between atoms: N_8  and  C_9 
REMARK    4  A    between atoms: C_9  and  C_11 
REMARK    5  A    between atoms: C_11  and  S_10 
ROOT
ATOM      1  C   UNL d   1      57.921  -0.684  30.432  0.00  0.00     0.194 A 
ATOM      2  C   UNL d   1      58.410  -1.837  29.729  0.00  0.00     0.156 A 
ATOM      3  N   UNL d   1      57.838  -1.479  30.205  0.00  0.00    -0.217 NA
ATOM      4  N   UNL d   1      58.563  -0.262  30.186  0.00  0.00    -0.221 NA
ATOM      5  C   UNL d   1      59.137  -0.626  29.707  0.00  0.00     0.085 A 
ATOM      6  C   UNL d   1      59.051  -1.415  29.484  0.00  0.00     0.042 A 
ENDROOT
BRANCH   1   7
ATOM      7  S   UNL d   1      57.337  -0.329  30.914  0.00  0.00    -0.043 SA
BRANCH   7   8
ATOM      8  C   UNL d   1      57.342  -0.440  31.733  0.00  0.00     0.099 C 
BRANCH   8   9
ATOM      9  C   UNL d   1      56.649  -0.655  32.125  0.00  0.00     0.272 C 
ATOM     10  N   UNL d   1      56.439  -0.281  32.838  0.00  0.00    -0.267 N 
ATOM     11  C   UNL d   1      56.927   0.307  33.153  0.00  0.00     0.110 A 
ATOM     12  C   UNL d   1      55.754  -0.497  33.219  0.00  0.00     0.110 A 
ATOM     13  C   UNL d   1      56.730   0.679  33.849  0.00  0.00     0.142 A 
ATOM     14  O   UNL d   1      56.033   0.464  34.245  0.00  0.00    -0.300 OA
ATOM     15  C   UNL d   1      55.545  -0.124  33.930  0.00  0.00     0.142 A 
ATOM     16  O   UNL d   1      56.156  -1.249  31.807  0.00  0.00    -0.266 OA
ENDBRANCH   8   9
ENDBRANCH   7   8
ENDBRANCH   1   7
BRANCH   2  17
ATOM     17  C   UNL d   1      58.309  -2.622  29.516  0.00  0.00     0.435 C 
ATOM     18  F   UNL d   1      58.199  -3.420  29.295  0.00  0.00    -0.165 F 
ATOM     19  F   UNL d   1      57.617  -2.399  29.099  0.00  0.00    -0.165 F 
ATOM     20  F   UNL d   1      59.000  -2.840  29.934  0.00  0.00    -0.165 F 
ENDBRANCH   2  17
BRANCH   5  21
ATOM     21  C   UNL d   1      59.802  -0.189  29.453  0.00  0.00     0.018 A 
ATOM     22  C   UNL d   1      60.476  -0.133  29.941  0.00  0.00     0.002 A 
ATOM     23  C   UNL d   1      61.131   0.297  29.690  0.00  0.00     0.000 A 
ATOM     24  C   UNL d   1      61.122   0.677  28.948  0.00  0.00     0.000 A 
ATOM     25  C   UNL d   1      60.462   0.626  28.463  0.00  0.00     0.000 A 
ATOM     26  C   UNL d   1      59.787   0.182  28.721  0.00  0.00     0.002 A 
ENDBRANCH   5  21
TORSDOF 5
ENDMDL
