MODEL 1
REMARK VINA RESULT:      -3.0      0.000      0.000
REMARK  2 active torsions:
REMARK  status: ('A' for Active; 'I' for Inactive)
REMARK    1  A    between atoms: C_6  and  C_1 
REMARK       I    between atoms: N_12  and  C_6 
REMARK    2  A    between atoms: O_15  and  C_13 
ROOT
ATOM      1  C   UNL d   1      32.042  17.639 -23.943  0.00  0.00     0.101 A 
ATOM      2  C   UNL d   1      32.418  17.050 -23.513  0.00  0.00     0.208 A 
ATOM      3  C   UNL d   1      31.255  17.535 -24.171  0.00  0.00     0.011 A 
ATOM      4  O   UNL d   1      32.015  16.352 -23.304  0.00  0.00    -0.288 OA
ATOM      5  C   UNL d   1      30.855  16.835 -23.959  0.00  0.00     0.025 A 
ATOM      6  C   UNL d   1      31.225  16.263 -23.539  0.00  0.00     0.102 A 
ATOM      7  N   UNL d   1      33.191  17.165 -23.296  0.00  0.00    -0.121 N 
ATOM      8  C   UNL d   1      30.065  16.754 -24.199  0.00  0.00     0.026 A 
ATOM      9  C   UNL d   1      30.842  15.558 -23.320  0.00  0.00     0.027 A 
ATOM     10  C   UNL d   1      29.678  16.047 -23.980  0.00  0.00     0.094 A 
ATOM     11  C   UNL d   1      30.050  15.472 -23.558  0.00  0.00     0.026 A 
ENDROOT
BRANCH   1  12
ATOM     12  C   UNL d   1      32.451  18.324 -24.144  0.00  0.00     0.283 C 
ATOM     13  O   UNL d   1      32.647  18.836 -23.601  0.00  0.00    -0.265 OA
ATOM     14  N   UNL d   1      32.667  18.499 -24.914  0.00  0.00    -0.205 NA
ATOM     15  C   UNL d   1      33.073  19.183 -25.097  0.00  0.00     0.123 C 
ENDBRANCH   1  12
BRANCH  10  16
ATOM     16  O   UNL d   1      28.933  15.894 -24.168  0.00  0.00    -0.328 OA
ATOM     17  C   UNL d   1      28.245  15.916 -23.669  0.00  0.00     0.181 C 
ENDBRANCH  10  16
TORSDOF 2
ENDMDL
MODEL 2
REMARK VINA RESULT:      -2.9      4.576      5.920
REMARK  2 active torsions:
REMARK  status: ('A' for Active; 'I' for Inactive)
REMARK    1  A    between atoms: C_6  and  C_1 
REMARK       I    between atoms: N_12  and  C_6 
REMARK    2  A    between atoms: O_15  and  C_13 
ROOT
ATOM      1  C   UNL d   1      32.681  22.392 -20.910  0.00  0.00     0.101 A 
ATOM      2  C   UNL d   1      32.826  22.721 -21.647  0.00  0.00     0.208 A 
ATOM      3  C   UNL d   1      32.712  21.572 -20.818  0.00  0.00     0.011 A 
ATOM      4  O   UNL d   1      33.005  22.238 -22.301  0.00  0.00    -0.288 OA
ATOM      5  C   UNL d   1      32.892  21.092 -21.475  0.00  0.00     0.025 A 
ATOM      6  C   UNL d   1      33.033  21.416 -22.192  0.00  0.00     0.102 A 
ATOM      7  N   UNL d   1      32.792  23.528 -21.723  0.00  0.00    -0.121 N 
ATOM      8  C   UNL d   1      32.917  20.270 -21.358  0.00  0.00     0.026 A 
ATOM      9  C   UNL d   1      33.214  20.952 -22.859  0.00  0.00     0.027 A 
ATOM     10  C   UNL d   1      33.099  19.803 -22.026  0.00  0.00     0.094 A 
ATOM     11  C   UNL d   1      33.241  20.129 -22.747  0.00  0.00     0.026 A 
ENDROOT
BRANCH   1  12
ATOM     12  C   UNL d   1      32.505  22.880 -20.270  0.00  0.00     0.283 C 
ATOM     13  O   UNL d   1      31.867  23.314 -20.274  0.00  0.00    -0.265 OA
ATOM     14  N   UNL d   1      32.986  22.931 -19.610  0.00  0.00    -0.205 NA
ATOM     15  C   UNL d   1      32.797  23.420 -18.984  0.00  0.00     0.123 C 
ENDBRANCH   1  12
BRANCH  10  16
ATOM     16  O   UNL d   1      33.142  19.021 -21.998  0.00  0.00    -0.328 OA
ATOM     17  C   UNL d   1      32.942  18.457 -22.601  0.00  0.00     0.181 C 
ENDBRANCH  10  16
TORSDOF 2
ENDMDL
MODEL 3
REMARK VINA RESULT:      -2.8      1.481      3.507
REMARK  2 active torsions:
REMARK  status: ('A' for Active; 'I' for Inactive)
REMARK    1  A    between atoms: C_6  and  C_1 
REMARK       I    between atoms: N_12  and  C_6 
REMARK    2  A    between atoms: O_15  and  C_13 
ROOT
ATOM      1  C   UNL d   1      30.169  16.398 -23.863  0.00  0.00     0.101 A 
ATOM      2  C   UNL d   1      30.663  16.043 -23.313  0.00  0.00     0.208 A 
ATOM      3  C   UNL d   1      30.465  17.000 -24.345  0.00  0.00     0.011 A 
ATOM      4  O   UNL d   1      31.456  16.281 -23.236  0.00  0.00    -0.288 OA
ATOM      5  C   UNL d   1      31.260  17.236 -24.265  0.00  0.00     0.025 A 
ATOM      6  C   UNL d   1      31.739  16.887 -23.727  0.00  0.00     0.102 A 
ATOM      7  N   UNL d   1      30.359  15.453 -22.847  0.00  0.00    -0.121 N 
ATOM      8  C   UNL d   1      31.535  17.843 -24.760  0.00  0.00     0.026 A 
ATOM      9  C   UNL d   1      32.535  17.110 -23.634  0.00  0.00     0.027 A 
ATOM     10  C   UNL d   1      32.334  18.069 -24.668  0.00  0.00     0.094 A 
ATOM     11  C   UNL d   1      32.815  17.718 -24.128  0.00  0.00     0.026 A 
ENDROOT
BRANCH   1  12
ATOM     12  C   UNL d   1      29.386  16.154 -23.930  0.00  0.00     0.283 C 
ATOM     13  O   UNL d   1      29.209  15.510 -24.317  0.00  0.00    -0.265 OA
ATOM     14  N   UNL d   1      28.764  16.570 -23.596  0.00  0.00    -0.205 NA
ATOM     15  C   UNL d   1      27.993  16.314 -23.671  0.00  0.00     0.123 C 
ENDBRANCH   1  12
BRANCH  10  16
ATOM     16  O   UNL d   1      32.668  18.633 -25.097  0.00  0.00    -0.328 OA
ATOM     17  C   UNL d   1      33.040  19.350 -24.833  0.00  0.00     0.181 C 
ENDBRANCH  10  16
TORSDOF 2
ENDMDL
MODEL 4
REMARK VINA RESULT:      -2.8      1.756      3.722
REMARK  2 active torsions:
REMARK  status: ('A' for Active; 'I' for Inactive)
REMARK    1  A    between atoms: C_6  and  C_1 
REMARK       I    between atoms: N_12  and  C_6 
REMARK    2  A    between atoms: O_15  and  C_13 
ROOT
ATOM      1  C   UNL d   1      29.543  16.511 -24.275  0.00  0.00     0.101 A 
ATOM      2  C   UNL d   1      29.581  17.245 -24.638  0.00  0.00     0.208 A 
ATOM      3  C   UNL d   1      30.215  16.205 -23.904  0.00  0.00     0.011 A 
ATOM      4  O   UNL d   1      30.288  17.685 -24.636  0.00  0.00    -0.288 OA
ATOM      5  C   UNL d   1      30.921  16.649 -23.905  0.00  0.00     0.025 A 
ATOM      6  C   UNL d   1      30.954  17.365 -24.260  0.00  0.00     0.102 A 
ATOM      7  N   UNL d   1      28.913  17.533 -24.998  0.00  0.00    -0.121 N 
ATOM      8  C   UNL d   1      31.583  16.321 -23.526  0.00  0.00     0.026 A 
ATOM      9  C   UNL d   1      31.650  17.820 -24.270  0.00  0.00     0.027 A 
ATOM     10  C   UNL d   1      32.282  16.777 -23.535  0.00  0.00     0.094 A 
ATOM     11  C   UNL d   1      32.316  17.497 -23.892  0.00  0.00     0.026 A 
ENDROOT
BRANCH   1  12
ATOM     12  C   UNL d   1      28.838  16.085 -24.283  0.00  0.00     0.283 C 
ATOM     13  O   UNL d   1      28.589  15.753 -24.934  0.00  0.00    -0.265 OA
ATOM     14  N   UNL d   1      28.371  15.993 -23.617  0.00  0.00    -0.205 NA
ATOM     15  C   UNL d   1      27.675  15.568 -23.641  0.00  0.00     0.123 C 
ENDBRANCH   1  12
BRANCH  10  16
ATOM     16  O   UNL d   1      32.949  16.539 -23.200  0.00  0.00    -0.328 OA
ATOM     17  C   UNL d   1      33.241  15.746 -23.105  0.00  0.00     0.181 C 
ENDBRANCH  10  16
TORSDOF 2
ENDMDL
MODEL 5
REMARK VINA RESULT:      -2.6      3.804      5.019
REMARK  2 active torsions:
REMARK  status: ('A' for Active; 'I' for Inactive)
REMARK    1  A    between atoms: C_6  and  C_1 
REMARK       I    between atoms: N_12  and  C_6 
REMARK    2  A    between atoms: O_15  and  C_13 
ROOT
ATOM      1  C   UNL d   1      32.795  21.649 -21.370  0.00  0.00     0.101 A 
ATOM      2  C   UNL d   1      32.863  21.143 -20.729  0.00  0.00     0.208 A 
ATOM      3  C   UNL d   1      32.856  21.345 -22.136  0.00  0.00     0.011 A 
ATOM      4  O   UNL d   1      32.993  20.328 -20.841  0.00  0.00    -0.288 OA
ATOM      5  C   UNL d   1      32.986  20.529 -22.244  0.00  0.00     0.025 A 
ATOM      6  C   UNL d   1      33.052  20.038 -21.616  0.00  0.00     0.102 A 
ATOM      7  N   UNL d   1      32.801  21.455 -19.982  0.00  0.00    -0.121 N 
ATOM      8  C   UNL d   1      33.044  20.248 -23.023  0.00  0.00     0.026 A 
ATOM      9  C   UNL d   1      33.182  19.222 -21.706  0.00  0.00     0.027 A 
ATOM     10  C   UNL d   1      33.174  19.428 -23.115  0.00  0.00     0.094 A 
ATOM     11  C   UNL d   1      33.241  18.934 -22.484  0.00  0.00     0.026 A 
ENDROOT
BRANCH   1  12
ATOM     12  C   UNL d   1      32.666  22.453 -21.246  0.00  0.00     0.283 C 
ATOM     13  O   UNL d   1      33.224  22.897 -20.950  0.00  0.00    -0.265 OA
ATOM     14  N   UNL d   1      31.956  22.819 -21.426  0.00  0.00    -0.205 NA
ATOM     15  C   UNL d   1      31.844  23.617 -21.296  0.00  0.00     0.123 C 
ENDBRANCH   1  12
BRANCH  10  16
ATOM     16  O   UNL d   1      33.240  19.085 -23.816  0.00  0.00    -0.328 OA
ATOM     17  C   UNL d   1      32.845  18.390 -24.106  0.00  0.00     0.181 C 
ENDBRANCH  10  16
TORSDOF 2
ENDMDL
MODEL 6
REMARK VINA RESULT:      -2.5      1.868      4.046
REMARK  2 active torsions:
REMARK  status: ('A' for Active; 'I' for Inactive)
REMARK    1  A    between atoms: C_6  and  C_1 
REMARK       I    between atoms: N_12  and  C_6 
REMARK    2  A    between atoms: O_15  and  C_13 
ROOT
ATOM      1  C   UNL d   1      32.799  17.674 -23.669  0.00  0.00     0.101 A 
ATOM      2  C   UNL d   1      32.964  18.121 -24.337  0.00  0.00     0.208 A 
ATOM      3  C   UNL d   1      32.780  18.041 -22.930  0.00  0.00     0.011 A 
ATOM      4  O   UNL d   1      33.112  18.938 -24.277  0.00  0.00    -0.288 OA
ATOM      5  C   UNL d   1      32.929  18.860 -22.874  0.00  0.00     0.025 A 
ATOM      6  C   UNL d   1      33.090  19.292 -23.528  0.00  0.00     0.102 A 
ATOM      7  N   UNL d   1      32.979  17.747 -25.057  0.00  0.00    -0.121 N 
ATOM      8  C   UNL d   1      32.905  19.206 -22.120  0.00  0.00     0.026 A 
ATOM      9  C   UNL d   1      33.241  20.109 -23.490  0.00  0.00     0.027 A 
ATOM     10  C   UNL d   1      33.056  20.027 -22.081  0.00  0.00     0.094 A 
ATOM     11  C   UNL d   1      33.218  20.461 -22.737  0.00  0.00     0.026 A 
ENDROOT
BRANCH   1  12
ATOM     12  C   UNL d   1      32.654  16.867 -23.742  0.00  0.00     0.283 C 
ATOM     13  O   UNL d   1      33.238  16.373 -23.848  0.00  0.00    -0.265 OA
ATOM     14  N   UNL d   1      31.900  16.550 -23.705  0.00  0.00    -0.205 NA
ATOM     15  C   UNL d   1      31.773  15.747 -23.779  0.00  0.00     0.123 C 
ENDBRANCH   1  12
BRANCH  10  16
ATOM     16  O   UNL d   1      33.052  20.427 -21.407  0.00  0.00    -0.328 OA
ATOM     17  C   UNL d   1      32.500  21.019 -21.146  0.00  0.00     0.181 C 
ENDBRANCH  10  16
TORSDOF 2
ENDMDL
MODEL 7
REMARK VINA RESULT:      -2.1      2.411      3.761
REMARK  2 active torsions:
REMARK  status: ('A' for Active; 'I' for Inactive)
REMARK    1  A    between atoms: C_6  and  C_1 
REMARK       I    between atoms: N_12  and  C_6 
REMARK    2  A    between atoms: O_15  and  C_13 
ROOT
ATOM      1  C   UNL d   1      32.856  20.170 -22.354  0.00  0.00     0.101 A 
ATOM      2  C   UNL d   1      33.108  20.531 -23.045  0.00  0.00     0.208 A 
ATOM      3  C   UNL d   1      32.729  19.354 -22.344  0.00  0.00     0.011 A 
ATOM      4  O   UNL d   1      33.237  20.085 -23.736  0.00  0.00    -0.288 OA
ATOM      5  C   UNL d   1      32.860  18.911 -23.038  0.00  0.00     0.025 A 
ATOM      6  C   UNL d   1      33.106  19.267 -23.711  0.00  0.00     0.102 A 
ATOM      7  N   UNL d   1      33.228  21.334 -23.040  0.00  0.00    -0.121 N 
ATOM      8  C   UNL d   1      32.726  18.092 -23.004  0.00  0.00     0.026 A 
ATOM      9  C   UNL d   1      33.241  18.839 -24.412  0.00  0.00     0.027 A 
ATOM     10  C   UNL d   1      32.861  17.662 -23.707  0.00  0.00     0.094 A 
ATOM     11  C   UNL d   1      33.108  18.019 -24.383  0.00  0.00     0.026 A 
ENDROOT
BRANCH   1  12
ATOM     12  C   UNL d   1      32.732  20.623 -21.677  0.00  0.00     0.283 C 
ATOM     13  O   UNL d   1      32.117  21.087 -21.624  0.00  0.00    -0.265 OA
ATOM     14  N   UNL d   1      33.241  20.606 -21.036  0.00  0.00    -0.205 NA
ATOM     15  C   UNL d   1      33.104  21.060 -20.372  0.00  0.00     0.123 C 
ENDBRANCH   1  12
BRANCH  10  16
ATOM     16  O   UNL d   1      32.758  16.887 -23.756  0.00  0.00    -0.328 OA
ATOM     17  C   UNL d   1      32.067  16.431 -23.565  0.00  0.00     0.181 C 
ENDBRANCH  10  16
TORSDOF 2
ENDMDL
MODEL 8
REMARK VINA RESULT:      -2.1      4.975      6.647
REMARK  2 active torsions:
REMARK  status: ('A' for Active; 'I' for Inactive)
REMARK    1  A    between atoms: C_6  and  C_1 
REMARK       I    between atoms: N_12  and  C_6 
REMARK    2  A    between atoms: O_15  and  C_13 
ROOT
ATOM      1  C   UNL d   1      32.795  21.173 -21.755  0.00  0.00     0.101 A 
ATOM      2  C   UNL d   1      33.070  21.780 -22.233  0.00  0.00     0.208 A 
ATOM      3  C   UNL d   1      32.617  21.328 -20.964  0.00  0.00     0.011 A 
ATOM      4  O   UNL d   1      33.169  22.549 -21.930  0.00  0.00    -0.288 OA
ATOM      5  C   UNL d   1      32.718  22.099 -20.664  0.00  0.00     0.025 A 
ATOM      6  C   UNL d   1      32.986  22.689 -21.134  0.00  0.00     0.102 A 
ATOM      7  N   UNL d   1      33.241  21.613 -23.009  0.00  0.00    -0.121 N 
ATOM      8  C   UNL d   1      32.532  22.231 -19.866  0.00  0.00     0.026 A 
ATOM      9  C   UNL d   1      33.093  23.464 -20.851  0.00  0.00     0.027 A 
ATOM     10  C   UNL d   1      32.639  23.009 -19.580  0.00  0.00     0.094 A 
ATOM     11  C   UNL d   1      32.908  23.602 -20.052  0.00  0.00     0.026 A 
ENDROOT
BRANCH   1  12
ATOM     12  C   UNL d   1      32.701  20.417 -22.066  0.00  0.00     0.283 C 
ATOM     13  O   UNL d   1      32.104  20.256 -22.528  0.00  0.00    -0.265 OA
ATOM     14  N   UNL d   1      33.223  19.806 -21.907  0.00  0.00    -0.205 NA
ATOM     15  C   UNL d   1      33.115  19.061 -22.223  0.00  0.00     0.123 C 
ENDBRANCH   1  12
BRANCH  10  16
ATOM     16  O   UNL d   1      32.486  23.214 -18.840  0.00  0.00    -0.328 OA
ATOM     17  C   UNL d   1      32.993  23.609 -18.284  0.00  0.00     0.181 C 
ENDBRANCH  10  16
TORSDOF 2
ENDMDL
MODEL 9
REMARK VINA RESULT:      -1.9      5.654      6.855
REMARK  2 active torsions:
REMARK  status: ('A' for Active; 'I' for Inactive)
REMARK    1  A    between atoms: C_6  and  C_1 
REMARK       I    between atoms: N_12  and  C_6 
REMARK    2  A    between atoms: O_15  and  C_13 
ROOT
ATOM      1  C   UNL d   1      32.543  22.685 -20.934  0.00  0.00     0.101 A 
ATOM      2  C   UNL d   1      32.677  21.885 -21.055  0.00  0.00     0.208 A 
ATOM      3  C   UNL d   1      32.619  23.210 -21.567  0.00  0.00     0.011 A 
ATOM      4  O   UNL d   1      32.887  21.597 -21.807  0.00  0.00    -0.288 OA
ATOM      5  C   UNL d   1      32.830  22.918 -22.319  0.00  0.00     0.025 A 
ATOM      6  C   UNL d   1      32.959  22.137 -22.433  0.00  0.00     0.102 A 
ATOM      7  N   UNL d   1      32.599  21.381 -20.424  0.00  0.00    -0.121 N 
ATOM      8  C   UNL d   1      32.899  23.464 -22.940  0.00  0.00     0.026 A 
ATOM      9  C   UNL d   1      33.170  21.828 -23.177  0.00  0.00     0.027 A 
ATOM     10  C   UNL d   1      33.111  23.157 -23.687  0.00  0.00     0.094 A 
ATOM     11  C   UNL d   1      33.241  22.372 -23.802  0.00  0.00     0.026 A 
ENDROOT
BRANCH   1  12
ATOM     12  C   UNL d   1      32.336  22.957 -20.185  0.00  0.00     0.283 C 
ATOM     13  O   UNL d   1      31.633  22.817 -19.899  0.00  0.00    -0.265 OA
ATOM     14  N   UNL d   1      32.852  23.382 -19.712  0.00  0.00    -0.205 NA
ATOM     15  C   UNL d   1      32.631  23.645 -18.972  0.00  0.00     0.123 C 
ENDBRANCH   1  12
BRANCH  10  16
ATOM     16  O   UNL d   1      33.197  23.607 -24.323  0.00  0.00    -0.328 OA
ATOM     17  C   UNL d   1      32.827  23.526 -25.083  0.00  0.00     0.181 C 
ENDBRANCH  10  16
TORSDOF 2
ENDMDL
