MODEL 1
REMARK VINA RESULT:      66.5      0.000      0.000
REMARK  4 active torsions:
REMARK  status: ('A' for Active; 'I' for Inactive)
REMARK    1  A    between atoms: C_2  and  C_1 
REMARK    2  A    between atoms: C_7  and  O_14 
REMARK       I    between atoms: N_12  and  C_7 
REMARK    3  A    between atoms: O_14  and  C_11 
REMARK    4  A    between atoms: C_24  and  C_18 
ROOT
ATOM      1  C   UNL d   1      14.018  15.514  -4.318  0.00  0.00     0.099 A 
ATOM      2  C   UNL d   1      13.688  14.817  -4.608  0.00  0.00     0.202 A 
ATOM      3  C   UNL d   1      13.736  14.116  -4.164  0.00  0.00     0.062 A 
ATOM      4  C   UNL d   1      14.399  15.519  -3.580  0.00  0.00     0.129 A 
ATOM      5  C   UNL d   1      14.115  14.120  -3.430  0.00  0.00     0.105 A 
ATOM      6  O   UNL d   1      14.447  14.818  -3.136  0.00  0.00    -0.305 OA
ATOM      7  C   UNL d   1      13.833  12.737  -3.285  0.00  0.00     0.107 A 
ATOM      8  C   UNL d   1      13.406  13.418  -4.454  0.00  0.00     0.007 A 
ATOM      9  C   UNL d   1      14.165  13.427  -2.986  0.00  0.00     0.050 A 
ATOM     10  C   UNL d   1      13.458  12.733  -4.011  0.00  0.00     0.023 A 
ATOM     11  O   UNL d   1      13.310  14.813  -5.338  0.00  0.00    -0.286 OA
ENDROOT
BRANCH   1  12
ATOM     12  C   UNL d   1      13.970  16.212  -4.759  0.00  0.00     0.168 A 
ATOM     13  N   UNL d   1      14.514  16.831  -4.747  0.00  0.00    -0.225 NA
ATOM     14  C   UNL d   1      14.246  17.417  -5.274  0.00  0.00     0.101 A 
ATOM     15  C   UNL d   1      14.553  18.144  -5.489  0.00  0.00     0.021 A 
ATOM     16  C   UNL d   1      13.539  17.153  -5.607  0.00  0.00     0.101 A 
ATOM     17  C   UNL d   1      14.162  18.621  -6.036  0.00  0.00     0.002 A 
ATOM     18  C   UNL d   1      13.449  18.350  -6.369  0.00  0.00     0.002 A 
ATOM     19  C   UNL d   1      13.139  17.615  -6.152  0.00  0.00     0.021 A 
ATOM     20  N   UNL d   1      13.370  16.407  -5.286  0.00  0.00    -0.225 NA
ENDBRANCH   1  12
BRANCH  10  21
ATOM     21  C   UNL d   1      13.126  12.027  -4.300  0.00  0.00     0.002 C 
ATOM     22  C   UNL d   1      13.127  11.876  -5.112  0.00  0.00     0.000 C 
ENDBRANCH  10  21
BRANCH   7  23
ATOM     23  O   UNL d   1      13.885  12.036  -2.833  0.00  0.00    -0.259 OA
BRANCH  23  24
ATOM     24  C   UNL d   1      13.583  12.013  -2.065  0.00  0.00     0.378 C 
ATOM     25  N   UNL d   1      14.092  11.935  -1.421  0.00  0.00    -0.247 N 
ATOM     26  C   UNL d   1      13.783  11.913  -0.656  0.00  0.00     0.112 A 
ATOM     27  C   UNL d   1      14.906  11.882  -1.548  0.00  0.00     0.112 A 
ATOM     28  C   UNL d   1      14.289  11.836  -0.015  0.00  0.00     0.142 A 
ATOM     29  O   UNL d   1      15.105  11.782  -0.135  0.00  0.00    -0.300 OA
ATOM     30  C   UNL d   1      15.415  11.805  -0.900  0.00  0.00     0.142 A 
ATOM     31  O   UNL d   1      12.769  12.066  -1.938  0.00  0.00    -0.237 OA
ENDBRANCH  23  24
ENDBRANCH   7  23
TORSDOF 4
ENDMDL
