MODEL 1
REMARK VINA RESULT:      35.7      0.000      0.000
REMARK  4 active torsions:
REMARK  status: ('A' for Active; 'I' for Inactive)
REMARK    1  A    between atoms: C_6  and  N_1 
REMARK    2  A    between atoms: C_10  and  C_4 
REMARK    3  A    between atoms: C_8  and  C_6 
REMARK    4  A    between atoms: C_9  and  C_8 
ROOT
ATOM      1  N   UNL d   1     -51.581  24.932  33.689  0.00  0.00    -0.305 N 
ATOM      2  C   UNL d   1     -52.908  24.829  33.522  0.00  0.00     0.057 A 
ATOM      3  C   UNL d   1     -52.209  24.397  33.674  0.00  0.00     0.067 A 
ATOM      4  C   UNL d   1     -51.876  25.677  33.551  0.00  0.00     0.064 A 
ATOM      5  C   UNL d   1     -52.699  25.623  33.446  0.00  0.00     0.022 A 
ATOM      6  C   UNL d   1     -53.631  24.438  33.474  0.00  0.00     0.197 A 
ATOM      7  O   UNL d   1     -54.330  24.870  33.322  0.00  0.00    -0.286 OA
ATOM      8  C   UNL d   1     -52.244  23.581  33.777  0.00  0.00     0.018 A 
ATOM      9  C   UNL d   1     -53.665  23.623  33.577  0.00  0.00     0.042 A 
ATOM     10  C   UNL d   1     -52.979  23.199  33.727  0.00  0.00     0.005 A 
ENDROOT
BRANCH   4  11
ATOM     11  C   UNL d   1     -51.661  26.486  33.474  0.00  0.00     0.016 A 
ATOM     12  C   UNL d   1     -50.869  26.698  33.440  0.00  0.00     0.001 A 
ATOM     13  C   UNL d   1     -50.656  27.488  33.364  0.00  0.00     0.000 A 
ATOM     14  C   UNL d   1     -51.253  28.061  33.324  0.00  0.00     0.000 A 
ATOM     15  C   UNL d   1     -52.046  27.856  33.358  0.00  0.00     0.000 A 
ATOM     16  C   UNL d   1     -52.256  27.064  33.433  0.00  0.00     0.001 A 
ENDBRANCH   4  11
BRANCH   1  17
ATOM     17  C   UNL d   1     -50.776  24.766  33.821  0.00  0.00     0.086 C 
BRANCH  17  18
ATOM     18  C   UNL d   1     -50.533  23.973  33.871  0.00  0.00     0.089 C 
BRANCH  18  19
ATOM     19  C   UNL d   1     -49.735  23.770  33.836  0.00  0.00     0.213 C 
ATOM     20  O   UNL d   1     -49.236  24.149  33.306  0.00  0.00    -0.644 OA
ATOM     21  O   UNL d   1     -49.414  23.190  34.320  0.00  0.00    -0.644 OA
ENDBRANCH  18  19
ENDBRANCH  17  18
ENDBRANCH   1  17
TORSDOF 4
ENDMDL
