MODEL 1
REMARK VINA RESULT:      -1.5      0.000      0.000
REMARK  9 active torsions:
REMARK  status: ('A' for Active; 'I' for Inactive)
REMARK    1  A    between atoms: C_6  and  C_1 
REMARK    2  A    between atoms: C_2  and  O_5 
REMARK    3  A    between atoms: C_4  and  C_2 
REMARK    4  A    between atoms: O_5  and  C_3 
REMARK    5  A    between atoms: C_7  and  C_6 
REMARK    6  A    between atoms: C_10  and  C_7 
REMARK    7  A    between atoms: O_25  and  C_8 
REMARK    8  A    between atoms: C_20  and  C_10 
REMARK    9  A    between atoms: O_27  and  C_14 
ROOT
ATOM      1  C   UNL d   1      32.466  17.068 -23.904  0.00  0.00     0.062 A 
ATOM      2  C   UNL d   1      31.663  16.865 -24.009  0.00  0.00     0.106 A 
ATOM      3  C   UNL d   1      32.945  16.595 -23.428  0.00  0.00     0.012 A 
ATOM      4  C   UNL d   1      31.362  16.198 -23.637  0.00  0.00     0.025 A 
ATOM      5  C   UNL d   1      32.636  15.929 -23.060  0.00  0.00     0.035 A 
ATOM      6  C   UNL d   1      31.840  15.728 -23.163  0.00  0.00     0.009 A 
ATOM      7 BR   UNL d   1      33.118  15.456 -22.584  0.00  0.00    -0.049 Br
ENDROOT
BRANCH   1   8
ATOM      8  C   UNL d   1      32.775  17.737 -24.275  0.00  0.00     0.198 C 
ATOM      9  O   UNL d   1      32.865  17.746 -25.097  0.00  0.00    -0.286 OA
BRANCH   8  10
ATOM     10  C   UNL d   1      32.992  18.394 -23.829  0.00  0.00     0.042 C 
BRANCH  10  11
ATOM     11  C   UNL d   1      33.230  19.088 -24.204  0.00  0.00     0.003 C 
BRANCH  11  12
ATOM     12  C   UNL d   1      33.215  19.812 -23.793  0.00  0.00     0.002 A 
ATOM     13  C   UNL d   1      33.237  19.784 -22.956  0.00  0.00     0.026 A 
ATOM     14  C   UNL d   1      33.221  20.529 -22.558  0.00  0.00     0.116 A 
ATOM     15  C   UNL d   1      33.185  21.242 -22.975  0.00  0.00     0.116 A 
ATOM     16  C   UNL d   1      33.164  21.230 -23.814  0.00  0.00     0.026 A 
ATOM     17  C   UNL d   1      33.180  20.510 -24.217  0.00  0.00     0.002 A 
BRANCH  14  18
ATOM     18  O   UNL d   1      33.241  20.549 -21.740  0.00  0.00    -0.326 OA
ATOM     19  C   UNL d   1      32.866  19.960 -21.297  0.00  0.00     0.181 C 
ENDBRANCH  14  18
BRANCH  15  20
ATOM     20  O   UNL d   1      33.170  21.961 -22.573  0.00  0.00    -0.326 OA
ATOM     21  C   UNL d   1      32.873  22.638 -22.944  0.00  0.00     0.181 C 
ENDBRANCH  15  20
ENDBRANCH  11  12
ENDBRANCH  10  11
ENDBRANCH   8  10
ENDBRANCH   1   8
BRANCH   2  22
ATOM     22  O   UNL d   1      31.185  17.335 -24.482  0.00  0.00    -0.271 OA
BRANCH  22  23
ATOM     23  C   UNL d   1      30.445  17.053 -24.722  0.00  0.00     0.323 C 
ATOM     24  O   UNL d   1      30.352  16.266 -24.965  0.00  0.00    -0.257 OA
BRANCH  23  25
ATOM     25  C   UNL d   1      29.791  17.557 -24.721  0.00  0.00     0.163 A 
ATOM     26  O   UNL d   1      29.767  18.316 -25.041  0.00  0.00    -0.300 OA
ATOM     27  C   UNL d   1      28.999  18.621 -24.916  0.00  0.00     0.123 A 
ATOM     28  C   UNL d   1      28.558  18.047 -24.520  0.00  0.00     0.029 A 
ATOM     29  C   UNL d   1      29.047  17.390 -24.399  0.00  0.00     0.032 A 
ENDBRANCH  23  25
ENDBRANCH  22  23
ENDBRANCH   2  22
TORSDOF 9
ENDMDL
MODEL 2
REMARK VINA RESULT:       1.0      2.085      5.723
REMARK  9 active torsions:
REMARK  status: ('A' for Active; 'I' for Inactive)
REMARK    1  A    between atoms: C_6  and  C_1 
REMARK    2  A    between atoms: C_2  and  O_5 
REMARK    3  A    between atoms: C_4  and  C_2 
REMARK    4  A    between atoms: O_5  and  C_3 
REMARK    5  A    between atoms: C_7  and  C_6 
REMARK    6  A    between atoms: C_10  and  C_7 
REMARK    7  A    between atoms: O_25  and  C_8 
REMARK    8  A    between atoms: C_20  and  C_10 
REMARK    9  A    between atoms: O_27  and  C_14 
ROOT
ATOM      1  C   UNL d   1      33.205  21.726 -22.996  0.00  0.00     0.062 A 
ATOM      2  C   UNL d   1      33.225  22.366 -22.460  0.00  0.00     0.106 A 
ATOM      3  C   UNL d   1      33.193  21.876 -23.806  0.00  0.00     0.012 A 
ATOM      4  C   UNL d   1      33.232  23.135 -22.748  0.00  0.00     0.025 A 
ATOM      5  C   UNL d   1      33.200  22.649 -24.086  0.00  0.00     0.035 A 
ATOM      6  C   UNL d   1      33.220  23.283 -23.555  0.00  0.00     0.009 A 
ATOM      7 BR   UNL d   1      33.188  22.796 -24.899  0.00  0.00    -0.049 Br
ENDROOT
BRANCH   1   8
ATOM      8  C   UNL d   1      33.198  20.951 -22.713  0.00  0.00     0.198 C 
ATOM      9  O   UNL d   1      33.147  20.811 -21.899  0.00  0.00    -0.286 OA
BRANCH   8  10
ATOM     10  C   UNL d   1      33.240  20.319 -23.238  0.00  0.00     0.042 C 
BRANCH  10  11
ATOM     11  C   UNL d   1      33.199  19.544 -22.958  0.00  0.00     0.003 C 
BRANCH  11  12
ATOM     12  C   UNL d   1      32.905  18.939 -23.447  0.00  0.00     0.002 A 
ATOM     13  C   UNL d   1      32.698  18.212 -23.084  0.00  0.00     0.026 A 
ATOM     14  C   UNL d   1      32.402  17.611 -23.597  0.00  0.00     0.116 A 
ATOM     15  C   UNL d   1      32.322  17.736 -24.411  0.00  0.00     0.116 A 
ATOM     16  C   UNL d   1      32.539  18.476 -24.739  0.00  0.00     0.026 A 
ATOM     17  C   UNL d   1      32.830  19.074 -24.250  0.00  0.00     0.002 A 
BRANCH  14  18
ATOM     18  O   UNL d   1      32.187  16.885 -23.285  0.00  0.00    -0.326 OA
ATOM     19  C   UNL d   1      32.588  16.575 -22.631  0.00  0.00     0.181 C 
ENDBRANCH  14  18
BRANCH  15  20
ATOM     20  O   UNL d   1      32.031  17.138 -24.898  0.00  0.00    -0.326 OA
ATOM     21  C   UNL d   1      31.228  17.119 -25.096  0.00  0.00     0.181 C 
ENDBRANCH  15  20
ENDBRANCH  11  12
ENDBRANCH  10  11
ENDBRANCH   8  10
ENDBRANCH   1   8
BRANCH   2  22
ATOM     22  O   UNL d   1      33.237  22.219 -21.653  0.00  0.00    -0.271 OA
BRANCH  22  23
ATOM     23  C   UNL d   1      32.866  22.747 -21.136  0.00  0.00     0.323 C 
ATOM     24  O   UNL d   1      32.401  23.368 -21.429  0.00  0.00    -0.257 OA
BRANCH  23  25
ATOM     25  C   UNL d   1      32.958  22.660 -20.321  0.00  0.00     0.163 A 
ATOM     26  O   UNL d   1      32.804  21.975 -19.889  0.00  0.00    -0.300 OA
ATOM     27  C   UNL d   1      32.972  22.136 -19.086  0.00  0.00     0.123 A 
ATOM     28  C   UNL d   1      33.227  22.918 -19.031  0.00  0.00     0.029 A 
ATOM     29  C   UNL d   1      33.218  23.243 -19.793  0.00  0.00     0.032 A 
ENDBRANCH  23  25
ENDBRANCH  22  23
ENDBRANCH   2  22
TORSDOF 9
ENDMDL
MODEL 3
REMARK VINA RESULT:       1.5      1.543      5.122
REMARK  9 active torsions:
REMARK  status: ('A' for Active; 'I' for Inactive)
REMARK    1  A    between atoms: C_6  and  C_1 
REMARK    2  A    between atoms: C_2  and  O_5 
REMARK    3  A    between atoms: C_4  and  C_2 
REMARK    4  A    between atoms: O_5  and  C_3 
REMARK    5  A    between atoms: C_7  and  C_6 
REMARK    6  A    between atoms: C_10  and  C_7 
REMARK    7  A    between atoms: O_25  and  C_8 
REMARK    8  A    between atoms: C_20  and  C_10 
REMARK    9  A    between atoms: O_27  and  C_14 
ROOT
ATOM      1  C   UNL d   1      33.021  20.863 -22.468  0.00  0.00     0.062 A 
ATOM      2  C   UNL d   1      33.058  21.696 -22.433  0.00  0.00     0.106 A 
ATOM      3  C   UNL d   1      32.839  20.436 -21.787  0.00  0.00     0.012 A 
ATOM      4  C   UNL d   1      32.911  22.078 -21.721  0.00  0.00     0.025 A 
ATOM      5  C   UNL d   1      32.693  20.826 -21.079  0.00  0.00     0.035 A 
ATOM      6  C   UNL d   1      32.729  21.651 -21.044  0.00  0.00     0.009 A 
ATOM      7 BR   UNL d   1      32.510  20.395 -20.398  0.00  0.00    -0.049 Br
ENDROOT
BRANCH   1   8
ATOM      8  C   UNL d   1      33.168  20.473 -23.180  0.00  0.00     0.198 C 
ATOM      9  O   UNL d   1      33.241  20.908 -23.879  0.00  0.00    -0.286 OA
BRANCH   8  10
ATOM     10  C   UNL d   1      33.241  19.653 -23.195  0.00  0.00     0.042 C 
BRANCH  10  11
ATOM     11  C   UNL d   1      33.052  19.233 -23.880  0.00  0.00     0.003 C 
BRANCH  11  12
ATOM     12  C   UNL d   1      32.734  18.467 -23.825  0.00  0.00     0.002 A 
ATOM     13  C   UNL d   1      31.966  18.342 -24.137  0.00  0.00     0.026 A 
ATOM     14  C   UNL d   1      31.661  17.557 -24.072  0.00  0.00     0.116 A 
ATOM     15  C   UNL d   1      32.098  16.950 -23.720  0.00  0.00     0.116 A 
ATOM     16  C   UNL d   1      32.864  17.112 -23.420  0.00  0.00     0.026 A 
ATOM     17  C   UNL d   1      33.176  17.874 -23.476  0.00  0.00     0.002 A 
BRANCH  14  18
ATOM     18  O   UNL d   1      30.914  17.390 -24.363  0.00  0.00    -0.326 OA
ATOM     19  C   UNL d   1      30.258  17.821 -24.104  0.00  0.00     0.181 C 
ENDBRANCH  14  18
BRANCH  15  20
ATOM     20  O   UNL d   1      31.786  16.189 -23.665  0.00  0.00    -0.326 OA
ATOM     21  C   UNL d   1      32.256  15.568 -23.386  0.00  0.00     0.181 C 
ENDBRANCH  15  20
ENDBRANCH  11  12
ENDBRANCH  10  11
ENDBRANCH   8  10
ENDBRANCH   1   8
BRANCH   2  22
ATOM     22  O   UNL d   1      33.240  22.123 -23.110  0.00  0.00    -0.271 OA
BRANCH  22  23
ATOM     23  C   UNL d   1      33.049  22.926 -23.149  0.00  0.00     0.323 C 
ATOM     24  O   UNL d   1      33.241  23.437 -22.525  0.00  0.00    -0.257 OA
BRANCH  23  25
ATOM     25  C   UNL d   1      32.664  23.227 -23.814  0.00  0.00     0.163 A 
ATOM     26  O   UNL d   1      31.862  23.412 -23.863  0.00  0.00    -0.300 OA
ATOM     27  C   UNL d   1      31.713  23.698 -24.635  0.00  0.00     0.123 A 
ATOM     28  C   UNL d   1      32.424  23.686 -25.053  0.00  0.00     0.029 A 
ATOM     29  C   UNL d   1      33.012  23.395 -24.546  0.00  0.00     0.032 A 
ENDBRANCH  23  25
ENDBRANCH  22  23
ENDBRANCH   2  22
TORSDOF 9
ENDMDL
