MODEL 1
REMARK VINA RESULT:      15.0      0.000      0.000
REMARK  3 active torsions:
REMARK  status: ('A' for Active; 'I' for Inactive)
REMARK    1  A    between atoms: C_2  and  C_1 
REMARK    2  A    between atoms: N_3  and  C_1 
REMARK    3  A    between atoms: C_13  and  N_3 
ROOT
ATOM      1  C   UNL d   1      13.335  12.216  -3.238  0.00  0.00     0.030 A 
ATOM      2  C   UNL d   1      13.555  12.079  -4.650  0.00  0.00     0.119 A 
ATOM      3  C   UNL d   1      13.653  11.795  -3.883  0.00  0.00     0.029 A 
ATOM      4  C   UNL d   1      13.139  12.784  -4.771  0.00  0.00     0.119 A 
ATOM      5  O   UNL d   1      13.810  11.780  -5.411  0.00  0.00    -0.300 OA
ATOM      6  O   UNL d   1      13.138  12.919  -5.618  0.00  0.00    -0.300 OA
ATOM      7  C   UNL d   1      13.537  12.316  -5.959  0.00  0.00     0.304 A 
ATOM      8  C   UNL d   1      12.922  12.916  -3.367  0.00  0.00     0.004 A 
ATOM      9  C   UNL d   1      12.824  13.200  -4.132  0.00  0.00     0.026 A 
ENDROOT
BRANCH   1  10
ATOM     10  C   UNL d   1      13.434  11.932  -2.472  0.00  0.00     0.136 C 
ATOM     11  S   UNL d   1      12.774  11.779  -2.000  0.00  0.00    -0.057 SA
BRANCH  10  12
ATOM     12  N   UNL d   1      14.203  11.800  -2.176  0.00  0.00    -0.235 NA
BRANCH  12  13
ATOM     13  C   UNL d   1      14.446  12.173  -1.479  0.00  0.00     0.082 A 
ATOM     14  C   UNL d   1      14.853  12.882  -1.516  0.00  0.00     0.019 A 
ATOM     15  C   UNL d   1      15.096  13.256  -0.819  0.00  0.00     0.002 A 
ATOM     16  C   UNL d   1      14.927  12.912  -0.089  0.00  0.00     0.000 A 
ATOM     17  C   UNL d   1      14.516  12.195  -0.055  0.00  0.00     0.002 A 
ATOM     18  C   UNL d   1      14.275  11.826  -0.750  0.00  0.00     0.019 A 
ENDBRANCH  12  13
ENDBRANCH  10  12
ENDBRANCH   1  10
TORSDOF 3
ENDMDL
