MODEL 1
REMARK VINA RESULT:      59.5      0.000      0.000
REMARK  4 active torsions:
REMARK  status: ('A' for Active; 'I' for Inactive)
REMARK    1  A    between atoms: O_7  and  C_2 
REMARK    2  A    between atoms: C_13  and  C_3 
REMARK    3  A    between atoms: C_11  and  O_7 
REMARK    4  A    between atoms: O_25  and  C_20 
ROOT
ATOM      1  C   UNL d   1      13.389  13.361  -3.840  0.00  0.00     0.066 A 
ATOM      2  C   UNL d   1      13.524  12.829  -3.230  0.00  0.00     0.186 A 
ATOM      3  C   UNL d   1      13.534  14.190  -3.927  0.00  0.00     0.012 A 
ATOM      4  C   UNL d   1      13.278  14.397  -4.655  0.00  0.00     0.037 A 
ATOM      5  C   UNL d   1      13.038  13.093  -4.547  0.00  0.00     0.116 A 
ATOM      6  S   UNL d   1      12.967  13.745  -5.066  0.00  0.00    -0.067 SA
ATOM      7  N   UNL d   1      13.311  12.039  -3.328  0.00  0.00    -0.200 NA
ATOM      8  N   UNL d   1      12.825  12.301  -4.645  0.00  0.00    -0.217 NA
ATOM      9  C   UNL d   1      12.962  11.779  -4.036  0.00  0.00     0.201 A 
ENDROOT
BRANCH   2  10
ATOM     10  O   UNL d   1      13.877  13.090  -2.514  0.00  0.00    -0.288 OA
BRANCH  10  11
ATOM     11  C   UNL d   1      13.778  12.650  -1.794  0.00  0.00     0.119 A 
ATOM     12  C   UNL d   1      14.398  12.487  -1.274  0.00  0.00     0.104 A 
ATOM     13  N   UNL d   1      15.173  12.769  -1.461  0.00  0.00    -0.244 NA
ATOM     14  C   UNL d   1      14.271  12.059  -0.587  0.00  0.00     0.020 A 
ATOM     15  C   UNL d   1      15.792  12.607  -0.941  0.00  0.00     0.082 A 
ATOM     16  C   UNL d   1      16.592  12.880  -1.101  0.00  0.00     0.021 C 
ATOM     17  C   UNL d   1      15.664  12.179  -0.253  0.00  0.00     0.019 A 
ATOM     18  C   UNL d   1      14.913  11.899  -0.061  0.00  0.00     0.003 A 
ATOM     19  C   UNL d   1      13.518  11.779  -0.395  0.00  0.00     0.002 A 
ATOM     20  C   UNL d   1      12.899  11.941  -0.915  0.00  0.00     0.002 A 
ATOM     21  C   UNL d   1      13.027  12.369  -1.602  0.00  0.00     0.026 A 
ENDBRANCH  10  11
ENDBRANCH   2  10
BRANCH   3  22
ATOM     22  C   UNL d   1      13.873  14.694  -3.373  0.00  0.00     0.001 A 
ATOM     23  C   UNL d   1      13.587  14.751  -2.595  0.00  0.00     0.002 A 
ATOM     24  C   UNL d   1      13.946  15.265  -2.060  0.00  0.00     0.024 A 
ATOM     25  C   UNL d   1      14.601  15.729  -2.311  0.00  0.00     0.094 A 
ATOM     26  C   UNL d   1      14.882  15.665  -3.096  0.00  0.00     0.024 A 
ATOM     27  C   UNL d   1      14.522  15.150  -3.630  0.00  0.00     0.002 A 
BRANCH  25  28
ATOM     28  O   UNL d   1      15.011  16.275  -1.806  0.00  0.00    -0.328 OA
ATOM     29  C   UNL d   1      14.992  16.158  -0.989  0.00  0.00     0.181 C 
ENDBRANCH  25  28
ENDBRANCH   3  22
TORSDOF 4
ENDMDL
MODEL 2
REMARK VINA RESULT:      60.4      0.698      1.354
REMARK  4 active torsions:
REMARK  status: ('A' for Active; 'I' for Inactive)
REMARK    1  A    between atoms: O_7  and  C_2 
REMARK    2  A    between atoms: C_13  and  C_3 
REMARK    3  A    between atoms: C_11  and  O_7 
REMARK    4  A    between atoms: O_25  and  C_20 
ROOT
ATOM      1  C   UNL d   1      13.465  13.416  -4.020  0.00  0.00     0.066 A 
ATOM      2  C   UNL d   1      13.780  12.922  -3.445  0.00  0.00     0.186 A 
ATOM      3  C   UNL d   1      13.468  14.255  -4.125  0.00  0.00     0.012 A 
ATOM      4  C   UNL d   1      13.064  14.408  -4.798  0.00  0.00     0.037 A 
ATOM      5  C   UNL d   1      13.043  13.085  -4.658  0.00  0.00     0.116 A 
ATOM      6  S   UNL d   1      12.787  13.709  -5.153  0.00  0.00    -0.067 SA
ATOM      7  N   UNL d   1      13.673  12.107  -3.510  0.00  0.00    -0.200 NA
ATOM      8  N   UNL d   1      12.936  12.269  -4.722  0.00  0.00    -0.217 NA
ATOM      9  C   UNL d   1      13.252  11.785  -4.150  0.00  0.00     0.201 A 
ENDROOT
BRANCH   2  10
ATOM     10  O   UNL d   1      14.206  13.245  -2.799  0.00  0.00    -0.288 OA
BRANCH  10  11
ATOM     11  C   UNL d   1      14.690  12.752  -2.304  0.00  0.00     0.119 A 
ATOM     12  C   UNL d   1      14.472  12.522  -1.542  0.00  0.00     0.104 A 
ATOM     13  N   UNL d   1      13.732  12.787  -1.231  0.00  0.00    -0.244 NA
ATOM     14  C   UNL d   1      14.962  12.045  -1.090  0.00  0.00     0.020 A 
ATOM     15  C   UNL d   1      13.515  12.557  -0.470  0.00  0.00     0.082 A 
ATOM     16  C   UNL d   1      12.769  12.809  -0.123  0.00  0.00     0.021 C 
ATOM     17  C   UNL d   1      14.004  12.080  -0.017  0.00  0.00     0.019 A 
ATOM     18  C   UNL d   1      14.728  11.816  -0.311  0.00  0.00     0.003 A 
ATOM     19  C   UNL d   1      15.686  11.781  -1.384  0.00  0.00     0.002 A 
ATOM     20  C   UNL d   1      15.903  12.010  -2.145  0.00  0.00     0.002 A 
ATOM     21  C   UNL d   1      15.414  12.488  -2.598  0.00  0.00     0.026 A 
ENDBRANCH  10  11
ENDBRANCH   2  10
BRANCH   3  22
ATOM     22  C   UNL d   1      13.817  14.815  -3.634  0.00  0.00     0.001 A 
ATOM     23  C   UNL d   1      13.538  14.964  -2.866  0.00  0.00     0.002 A 
ATOM     24  C   UNL d   1      13.907  15.531  -2.396  0.00  0.00     0.024 A 
ATOM     25  C   UNL d   1      14.566  15.954  -2.701  0.00  0.00     0.094 A 
ATOM     26  C   UNL d   1      14.841  15.797  -3.475  0.00  0.00     0.024 A 
ATOM     27  C   UNL d   1      14.471  15.229  -3.945  0.00  0.00     0.002 A 
BRANCH  25  28
ATOM     28  O   UNL d   1      14.987  16.549  -2.264  0.00  0.00    -0.328 OA
ATOM     29  C   UNL d   1      15.058  16.469  -1.446  0.00  0.00     0.181 C 
ENDBRANCH  25  28
ENDBRANCH   3  22
TORSDOF 4
ENDMDL
