MODEL 1
REMARK VINA RESULT:      62.2      0.000      0.000
REMARK  5 active torsions:
REMARK  status: ('A' for Active; 'I' for Inactive)
REMARK    1  A    between atoms: N_3  and  C_1 
REMARK    2  A    between atoms: N_6  and  C_1 
REMARK       I    between atoms: C_2  and  N_4 
REMARK    3  A    between atoms: C_5  and  C_2 
REMARK    4  A    between atoms: C_7  and  N_3 
REMARK    5  A    between atoms: N_4  and  N_6 
ROOT
ATOM      1  N   UNL d   1     -58.027 -98.978 -44.586  0.00  0.00    -0.273 N 
ATOM      2  H   UNL d   1     -57.891 -98.209 -44.312  0.00  0.00     0.189 HD
ENDROOT
BRANCH   1   3
ATOM      3  N   UNL d   1     -57.395 -99.491 -44.719  0.00  0.00    -0.264 N 
ATOM      4  C   UNL d   1     -56.695 -99.377 -44.307  0.00  0.00     0.272 C 
ATOM      5  O   UNL d   1     -56.623 -98.756 -43.764  0.00  0.00    -0.266 OA
ATOM      6  H   UNL d   1     -57.466-100.103 -45.254  0.00  0.00     0.190 HD
BRANCH   4   7
ATOM      7  C   UNL d   1     -56.045 -99.882 -44.425  0.00  0.00     0.058 A 
ATOM      8  C   UNL d   1     -56.018-100.613 -44.066  0.00  0.00     0.011 A 
ATOM      9  C   UNL d   1     -55.363-101.097 -44.197  0.00  0.00     0.035 A 
ATOM     10 BR   UNL d   1     -55.311-101.843 -43.845  0.00  0.00    -0.049 Br
ATOM     11  C   UNL d   1     -54.741-100.840 -44.688  0.00  0.00     0.007 A 
ATOM     12  C   UNL d   1     -54.774-100.099 -45.049  0.00  0.00     0.001 A 
ATOM     13  C   UNL d   1     -55.423 -99.625 -44.916  0.00  0.00     0.005 A 
ENDBRANCH   4   7
ENDBRANCH   1   3
BRANCH   1  14
ATOM     14  C   UNL d   1     -58.785 -99.241 -44.729  0.00  0.00     0.191 C 
ATOM     15  S   UNL d   1     -59.235 -98.911 -45.324  0.00  0.00    -0.039 SA
BRANCH  14  16
ATOM     16  N   UNL d   1     -59.105 -99.858 -44.259  0.00  0.00    -0.331 N 
ATOM     17  H   UNL d   1     -59.130-100.630 -44.557  0.00  0.00     0.168 HD
BRANCH  16  18
ATOM     18  C   UNL d   1     -59.391 -99.692 -43.508  0.00  0.00     0.058 A 
ATOM     19  C   UNL d   1     -59.485-100.308 -42.968  0.00  0.00     0.016 A 
ATOM     20  C   UNL d   1     -59.292-101.085 -43.181  0.00  0.00     0.002 C 
ATOM     21  C   UNL d   1     -59.769-100.140 -42.223  0.00  0.00     0.001 A 
ATOM     22  C   UNL d   1     -59.959 -99.375 -42.012  0.00  0.00     0.000 A 
ATOM     23  C   UNL d   1     -59.869 -98.762 -42.542  0.00  0.00     0.002 A 
ATOM     24  C   UNL d   1     -59.581 -98.927 -43.297  0.00  0.00     0.017 A 
ENDBRANCH  16  18
ENDBRANCH  14  16
ENDBRANCH   1  14
TORSDOF 5
ENDMDL
