MODEL 1
REMARK VINA RESULT:      -9.1      0.000      0.000
REMARK  2 active torsions:
REMARK  status: ('A' for Active; 'I' for Inactive)
REMARK    1  A    between atoms: S_2  and  C_1 
REMARK    2  A    between atoms: N_3  and  S_2 
ROOT
ATOM      1  C   UNL d   1     -47.861  13.432  23.013  0.00  0.00     0.125 A 
ATOM      2  C   UNL d   1     -47.535  12.797  23.251  0.00  0.00    -0.009 A 
ATOM      3  C   UNL d   1     -47.879  12.605  23.319  0.00  0.00    -0.009 A 
ATOM      4  C   UNL d   1     -47.373  13.983  22.814  0.00  0.00     0.031 A 
ATOM      5  C   UNL d   1     -47.198  12.364  23.415  0.00  0.00    -0.007 A 
ATOM      6  C   UNL d   1     -46.662  12.501  23.369  0.00  0.00    -0.007 A 
ATOM      7  C   UNL d   1     -46.562  13.716  22.921  0.00  0.00     0.045 A 
ATOM      8  C   UNL d   1     -46.663  11.661  23.680  0.00  0.00    -0.001 A 
ATOM      9  C   UNL d   1     -46.189  13.036  23.176  0.00  0.00    -0.022 A 
ATOM     10  C   UNL d   1     -46.546  13.068  23.161  0.00  0.00    -0.022 A 
ENDROOT
BRANCH   1  11
ATOM     11  S   UNL d   1     -48.434  14.287  22.691  0.00  0.00     0.141 S 
ATOM     12  O   UNL d   1     -47.844  14.827  22.373  0.00  0.00    -0.233 OA
BRANCH  11  13
ATOM     13  N   UNL d   1     -49.273  14.510  22.691  0.00  0.00    -0.254 N 
ATOM     14  C   UNL d   1     -49.710  14.219  22.059  0.00  0.00     0.089 A 
ATOM     15  C   UNL d   1     -50.514  14.329  21.899  0.00  0.00     0.020 A 
ATOM     16  C   UNL d   1     -51.064  14.752  22.327  0.00  0.00     0.002 A 
ATOM     17  C   UNL d   1     -50.963  15.175  23.027  0.00  0.00     0.002 A 
ATOM     18  C   UNL d   1     -50.274  15.283  23.479  0.00  0.00     0.020 A 
ATOM     19  C   UNL d   1     -49.525  14.984  23.324  0.00  0.00     0.089 A 
ENDBRANCH  11  13
ENDBRANCH   1  11
TORSDOF 2
ENDMDL
MODEL 2
REMARK VINA RESULT:      -8.9      0.948      1.576
REMARK  2 active torsions:
REMARK  status: ('A' for Active; 'I' for Inactive)
REMARK    1  A    between atoms: S_2  and  C_1 
REMARK    2  A    between atoms: N_3  and  S_2 
ROOT
ATOM      1  C   UNL d   1     -47.802  13.260  22.841  0.00  0.00     0.125 A 
ATOM      2  C   UNL d   1     -47.076  13.391  22.692  0.00  0.00    -0.009 A 
ATOM      3  C   UNL d   1     -47.143  13.718  22.473  0.00  0.00    -0.009 A 
ATOM      4  C   UNL d   1     -47.933  12.647  23.273  0.00  0.00     0.031 A 
ATOM      5  C   UNL d   1     -46.506  13.404  22.637  0.00  0.00    -0.007 A 
ATOM      6  C   UNL d   1     -46.270  12.981  22.909  0.00  0.00    -0.007 A 
ATOM      7  C   UNL d   1     -47.190  12.263  23.477  0.00  0.00     0.045 A 
ATOM      8  C   UNL d   1     -45.589  13.435  22.543  0.00  0.00    -0.001 A 
ATOM      9  C   UNL d   1     -46.397  12.385  23.329  0.00  0.00    -0.022 A 
ATOM     10  C   UNL d   1     -46.654  12.601  23.201  0.00  0.00    -0.022 A 
ENDROOT
BRANCH   1  11
ATOM     11  S   UNL d   1     -48.868  13.173  22.986  0.00  0.00     0.141 S 
ATOM     12  O   UNL d   1     -48.944  12.634  23.652  0.00  0.00    -0.233 OA
BRANCH  11  13
ATOM     13  N   UNL d   1     -49.576  13.502  22.608  0.00  0.00    -0.254 N 
ATOM     14  C   UNL d   1     -49.837  14.216  22.918  0.00  0.00     0.089 A 
ATOM     15  C   UNL d   1     -50.490  14.668  22.684  0.00  0.00     0.020 A 
ATOM     16  C   UNL d   1     -51.028  14.514  22.091  0.00  0.00     0.002 A 
ATOM     17  C   UNL d   1     -51.062  13.872  21.575  0.00  0.00     0.002 A 
ATOM     18  C   UNL d   1     -50.557  13.215  21.523  0.00  0.00     0.020 A 
ATOM     19  C   UNL d   1     -49.897  13.055  21.986  0.00  0.00     0.089 A 
ENDBRANCH  11  13
ENDBRANCH   1  11
TORSDOF 2
ENDMDL
MODEL 3
REMARK VINA RESULT:      -8.6      0.853      3.800
REMARK  2 active torsions:
REMARK  status: ('A' for Active; 'I' for Inactive)
REMARK    1  A    between atoms: S_2  and  C_1 
REMARK    2  A    between atoms: N_3  and  S_2 
ROOT
ATOM      1  C   UNL d   1     -49.114  14.248  22.828  0.00  0.00     0.125 A 
ATOM      2  C   UNL d   1     -49.486  14.834  23.121  0.00  0.00    -0.009 A 
ATOM      3  C   UNL d   1     -49.188  14.948  23.361  0.00  0.00    -0.009 A 
ATOM      4  C   UNL d   1     -49.506  13.849  22.311  0.00  0.00     0.031 A 
ATOM      5  C   UNL d   1     -49.846  15.249  23.280  0.00  0.00    -0.007 A 
ATOM      6  C   UNL d   1     -50.329  15.208  23.009  0.00  0.00    -0.007 A 
ATOM      7  C   UNL d   1     -50.289  14.191  22.202  0.00  0.00     0.045 A 
ATOM      8  C   UNL d   1     -50.420  15.921  23.544  0.00  0.00    -0.001 A 
ATOM      9  C   UNL d   1     -50.710  14.821  22.506  0.00  0.00    -0.022 A 
ATOM     10  C   UNL d   1     -50.374  14.744  22.609  0.00  0.00    -0.022 A 
ENDROOT
BRANCH   1  11
ATOM     11  S   UNL d   1     -48.488  13.441  22.481  0.00  0.00     0.141 S 
ATOM     12  O   UNL d   1     -48.768  13.287  21.683  0.00  0.00    -0.233 OA
BRANCH  11  13
ATOM     13  N   UNL d   1     -47.835  12.973  22.811  0.00  0.00    -0.254 N 
ATOM     14  C   UNL d   1     -47.084  13.266  22.655  0.00  0.00     0.089 A 
ATOM     15  C   UNL d   1     -46.354  12.953  22.888  0.00  0.00     0.020 A 
ATOM     16  C   UNL d   1     -46.206  12.282  23.328  0.00  0.00     0.002 A 
ATOM     17  C   UNL d   1     -46.741  11.745  23.651  0.00  0.00     0.002 A 
ATOM     18  C   UNL d   1     -47.571  11.747  23.615  0.00  0.00     0.020 A 
ATOM     19  C   UNL d   1     -48.052  12.296  23.239  0.00  0.00     0.089 A 
ENDBRANCH  11  13
ENDBRANCH   1  11
TORSDOF 2
ENDMDL
MODEL 4
REMARK VINA RESULT:      -8.5      1.708      3.477
REMARK  2 active torsions:
REMARK  status: ('A' for Active; 'I' for Inactive)
REMARK    1  A    between atoms: S_2  and  C_1 
REMARK    2  A    between atoms: N_3  and  S_2 
ROOT
ATOM      1  C   UNL d   1     -49.236  12.601  22.649  0.00  0.00     0.125 A 
ATOM      2  C   UNL d   1     -49.787  12.296  23.061  0.00  0.00    -0.009 A 
ATOM      3  C   UNL d   1     -49.543  12.141  23.337  0.00  0.00    -0.009 A 
ATOM      4  C   UNL d   1     -49.472  12.975  22.029  0.00  0.00     0.031 A 
ATOM      5  C   UNL d   1     -50.270  12.104  23.301  0.00  0.00    -0.007 A 
ATOM      6  C   UNL d   1     -50.714  12.256  23.004  0.00  0.00    -0.007 A 
ATOM      7  C   UNL d   1     -50.330  12.942  21.971  0.00  0.00     0.045 A 
ATOM      8  C   UNL d   1     -51.042  11.791  23.697  0.00  0.00    -0.001 A 
ATOM      9  C   UNL d   1     -50.943  12.619  22.401  0.00  0.00    -0.022 A 
ATOM     10  C   UNL d   1     -50.599  12.586  22.498  0.00  0.00    -0.022 A 
ENDROOT
BRANCH   1  11
ATOM     11  S   UNL d   1     -48.368  12.993  22.142  0.00  0.00     0.141 S 
ATOM     12  O   UNL d   1     -48.562  12.918  21.307  0.00  0.00    -0.233 OA
BRANCH  11  13
ATOM     13  N   UNL d   1     -47.604  13.328  22.383  0.00  0.00    -0.254 N 
ATOM     14  C   UNL d   1     -46.979  12.796  22.394  0.00  0.00     0.089 A 
ATOM     15  C   UNL d   1     -46.189  12.940  22.596  0.00  0.00     0.020 A 
ATOM     16  C   UNL d   1     -45.843  13.640  22.832  0.00  0.00     0.002 A 
ATOM     17  C   UNL d   1     -46.189  14.381  22.931  0.00  0.00     0.002 A 
ATOM     18  C   UNL d   1     -46.980  14.610  22.815  0.00  0.00     0.020 A 
ATOM     19  C   UNL d   1     -47.605  14.137  22.571  0.00  0.00     0.089 A 
ENDBRANCH  11  13
ENDBRANCH   1  11
TORSDOF 2
ENDMDL
MODEL 5
REMARK VINA RESULT:      -7.2      8.190      9.808
REMARK  2 active torsions:
REMARK  status: ('A' for Active; 'I' for Inactive)
REMARK    1  A    between atoms: S_2  and  C_1 
REMARK    2  A    between atoms: N_3  and  S_2 
ROOT
ATOM      1  C   UNL d   1     -40.228  14.862  19.411  0.00  0.00     0.125 A 
ATOM      2  C   UNL d   1     -40.144  15.273  20.036  0.00  0.00    -0.009 A 
ATOM      3  C   UNL d   1     -39.885  15.530  19.874  0.00  0.00    -0.009 A 
ATOM      4  C   UNL d   1     -40.707  14.274  19.480  0.00  0.00     0.031 A 
ATOM      5  C   UNL d   1     -40.149  15.519  20.553  0.00  0.00    -0.007 A 
ATOM      6  C   UNL d   1     -40.488  15.248  20.899  0.00  0.00    -0.007 A 
ATOM      7  C   UNL d   1     -41.029  14.245  20.277  0.00  0.00     0.045 A 
ATOM      8  C   UNL d   1     -40.149  15.921  21.383  0.00  0.00    -0.001 A 
ATOM      9  C   UNL d   1     -40.954  14.676  20.966  0.00  0.00    -0.022 A 
ATOM     10  C   UNL d   1     -40.777  14.759  20.664  0.00  0.00    -0.022 A 
ENDROOT
BRANCH   1  11
ATOM     11  S   UNL d   1     -40.268  14.349  18.463  0.00  0.00     0.141 S 
ATOM     12  O   UNL d   1     -41.054  14.002  18.446  0.00  0.00    -0.233 OA
BRANCH  11  13
ATOM     13  N   UNL d   1     -39.726  14.233  17.795  0.00  0.00    -0.254 N 
ATOM     14  C   UNL d   1     -39.752  14.820  17.221  0.00  0.00     0.089 A 
ATOM     15  C   UNL d   1     -39.310  14.873  16.523  0.00  0.00     0.020 A 
ATOM     16  C   UNL d   1     -38.746  14.357  16.238  0.00  0.00     0.002 A 
ATOM     17  C   UNL d   1     -38.472  13.654  16.569  0.00  0.00     0.002 A 
ATOM     18  C   UNL d   1     -38.697  13.287  17.280  0.00  0.00     0.020 A 
ATOM     19  C   UNL d   1     -39.256  13.550  17.821  0.00  0.00     0.089 A 
ENDBRANCH  11  13
ENDBRANCH   1  11
TORSDOF 2
ENDMDL
