MODEL 1
REMARK VINA RESULT:      36.8      0.000      0.000
REMARK  4 active torsions:
REMARK  status: ('A' for Active; 'I' for Inactive)
REMARK    1  A    between atoms: C_6  and  C_1 
REMARK    2  A    between atoms: C_7  and  N_2 
REMARK    3  A    between atoms: C_10  and  C_7 
REMARK    4  A    between atoms: C_11  and  C_10 
ROOT
ATOM      1  C   UNL d   1      60.273  49.668  51.614  0.00  0.00     0.148 A 
ATOM      2  N   UNL d   1      59.775  49.659  50.945  0.00  0.00    -0.289 N 
ATOM      3  N   UNL d   1      61.068  49.685  51.339  0.00  0.00    -0.227 NA
ATOM      4  C   UNL d   1      60.252  49.669  50.264  0.00  0.00     0.083 A 
ATOM      5  C   UNL d   1      61.044  49.685  50.504  0.00  0.00     0.099 A 
ATOM      6  C   UNL d   1      60.076  49.667  49.450  0.00  0.00     0.019 A 
ATOM      7  C   UNL d   1      61.665  49.699  49.952  0.00  0.00     0.021 A 
ATOM      8  C   UNL d   1      60.685  49.680  48.894  0.00  0.00     0.002 A 
ATOM      9  C   UNL d   1      61.473  49.696  49.142  0.00  0.00     0.002 A 
ENDROOT
BRANCH   2  10
ATOM     10  C   UNL d   1      58.943  49.642  50.958  0.00  0.00     0.082 C 
BRANCH  10  11
ATOM     11  C   UNL d   1      58.523  49.694  50.251  0.00  0.00     0.019 C 
BRANCH  11  12
ATOM     12  C   UNL d   1      57.707  49.611  50.260  0.00  0.00     0.002 A 
ATOM     13  C   UNL d   1      57.286  49.626  49.560  0.00  0.00     0.000 A 
ATOM     14  C   UNL d   1      56.471  49.543  49.570  0.00  0.00     0.000 A 
ATOM     15  C   UNL d   1      56.076  49.444  50.280  0.00  0.00     0.000 A 
ATOM     16  C   UNL d   1      56.498  49.427  50.989  0.00  0.00     0.000 A 
ATOM     17  C   UNL d   1      57.316  49.512  50.971  0.00  0.00     0.000 A 
ENDBRANCH  11  12
ENDBRANCH  10  11
ENDBRANCH   2  10
BRANCH   1  18
ATOM     18  C   UNL d   1      60.036  49.663  52.406  0.00  0.00     0.035 A 
ATOM     19  C   UNL d   1      59.443  49.657  52.980  0.00  0.00     0.003 A 
ATOM     20  C   UNL d   1      60.238  49.658  53.206  0.00  0.00     0.003 A 
ENDBRANCH   1  18
TORSDOF 4
ENDMDL
