MODEL 1
REMARK VINA RESULT:      -5.1      0.000      0.000
REMARK  4 active torsions:
REMARK  status: ('A' for Active; 'I' for Inactive)
REMARK    1  A    between atoms: N_4  and  C_1 
REMARK       I    between atoms: C_6  and  N_4 
REMARK    2  A    between atoms: C_10  and  C_6 
REMARK    3  A    between atoms: C_8  and  C_11 
REMARK    4  A    between atoms: C_11  and  C_10 
ROOT
ATOM      1  N   UNL d   1     -41.774-122.156 -51.402  0.00  0.00    -0.187 NA
ATOM      2  C   UNL d   1     -41.463-122.597 -52.028  0.00  0.00     0.281 C 
ATOM      3  O   UNL d   1     -41.123-123.362 -51.924  0.00  0.00    -0.265 OA
ENDROOT
BRANCH   2   4
ATOM      4  C   UNL d   1     -41.485-122.263 -52.828  0.00  0.00     0.063 C 
BRANCH   4   5
ATOM      5  C   UNL d   1     -41.528-122.794 -53.481  0.00  0.00     0.011 C 
BRANCH   5   6
ATOM      6  C   UNL d   1     -41.705-122.491 -54.209  0.00  0.00     0.030 A 
ATOM      7  S   UNL d   1     -41.323-122.648 -54.867  0.00  0.00    -0.086 SA
ATOM      8  C   UNL d   1     -41.651-122.246 -55.508  0.00  0.00     0.035 A 
ATOM      9  C   UNL d   1     -42.267-121.819 -55.227  0.00  0.00     0.007 A 
ATOM     10  C   UNL d   1     -42.327-121.952 -54.416  0.00  0.00     0.007 A 
ENDBRANCH   5   6
ENDBRANCH   4   5
ENDBRANCH   2   4
BRANCH   1  11
ATOM     11  C   UNL d   1     -41.752-122.474 -50.642  0.00  0.00     0.194 A 
ATOM     12  N   UNL d   1     -41.155-122.807 -50.201  0.00  0.00    -0.107 NA
ATOM     13  O   UNL d   1     -41.452-123.021 -49.496  0.00  0.00    -0.210 OA
ATOM     14  C   UNL d   1     -42.264-122.836 -49.442  0.00  0.00     0.128 A 
ATOM     15  C   UNL d   1     -42.446-122.494 -50.160  0.00  0.00     0.068 A 
ATOM     16  C   UNL d   1     -42.799-122.952 -48.825  0.00  0.00     0.029 C 
ENDBRANCH   1  11
TORSDOF 4
ENDMDL
MODEL 2
REMARK VINA RESULT:      -5.0      1.904      4.584
REMARK  4 active torsions:
REMARK  status: ('A' for Active; 'I' for Inactive)
REMARK    1  A    between atoms: N_4  and  C_1 
REMARK       I    between atoms: C_6  and  N_4 
REMARK    2  A    between atoms: C_10  and  C_6 
REMARK    3  A    between atoms: C_8  and  C_11 
REMARK    4  A    between atoms: C_11  and  C_10 
ROOT
ATOM      1  N   UNL d   1     -41.171-123.039 -52.054  0.00  0.00    -0.187 NA
ATOM      2  C   UNL d   1     -41.556-122.659 -51.428  0.00  0.00     0.281 C 
ATOM      3  O   UNL d   1     -41.987-121.941 -51.526  0.00  0.00    -0.265 OA
ENDROOT
BRANCH   2   4
ATOM      4  C   UNL d   1     -41.517-123.010 -50.636  0.00  0.00     0.063 C 
BRANCH   4   5
ATOM      5  C   UNL d   1     -42.059-122.738 -50.052  0.00  0.00     0.011 C 
BRANCH   5   6
ATOM      6  C   UNL d   1     -42.052-123.096 -49.327  0.00  0.00     0.030 A 
ATOM      7  S   UNL d   1     -42.679-123.342 -48.941  0.00  0.00    -0.086 SA
ATOM      8  C   UNL d   1     -42.473-123.681 -48.218  0.00  0.00     0.035 A 
ATOM      9  C   UNL d   1     -41.675-123.641 -48.159  0.00  0.00     0.007 A 
ATOM     10  C   UNL d   1     -41.383-123.279 -48.839  0.00  0.00     0.007 A 
ENDBRANCH   5   6
ENDBRANCH   4   5
ENDBRANCH   2   4
BRANCH   1  11
ATOM     11  C   UNL d   1     -41.208-122.705 -52.806  0.00  0.00     0.194 A 
ATOM     12  N   UNL d   1     -41.123-121.942 -53.074  0.00  0.00    -0.107 NA
ATOM     13  O   UNL d   1     -41.215-121.940 -53.863  0.00  0.00    -0.210 OA
ATOM     14  C   UNL d   1     -41.367-122.710 -54.150  0.00  0.00     0.128 A 
ATOM     15  C   UNL d   1     -41.361-123.183 -53.486  0.00  0.00     0.068 A 
ATOM     16  C   UNL d   1     -41.498-122.977 -54.920  0.00  0.00     0.029 C 
ENDBRANCH   1  11
TORSDOF 4
ENDMDL
