MODEL 1
REMARK VINA RESULT:      40.9      0.000      0.000
REMARK  7 active torsions:
REMARK  status: ('A' for Active; 'I' for Inactive)
REMARK    1  A    between atoms: N_3  and  C_2 
REMARK       I    between atoms: C_6  and  N_3 
REMARK    2  A    between atoms: C_11  and  C_4 
REMARK    3  A    between atoms: C_5  and  C_6 
REMARK    4  A    between atoms: C_15  and  C_11 
REMARK    5  A    between atoms: C_18  and  C_12 
REMARK    6  A    between atoms: O_17  and  C_18 
REMARK    7  A    between atoms: C_19  and  O_17 
ROOT
ATOM      1  C   UNL d   1      13.371  13.706  -4.150  0.00  0.00     0.158 A 
ATOM      2  O   UNL d   1      13.416  13.411  -3.384  0.00  0.00    -0.300 OA
ATOM      3  C   UNL d   1      13.197  13.079  -4.655  0.00  0.00     0.032 A 
ATOM      4  C   UNL d   1      13.270  12.602  -3.409  0.00  0.00     0.125 A 
ATOM      5  C   UNL d   1      13.134  12.390  -4.194  0.00  0.00     0.029 A 
ENDROOT
BRANCH   1   6
ATOM      6  C   UNL d   1      13.481  14.496  -4.378  0.00  0.00     0.304 C 
ATOM      7  N   UNL d   1      14.238  14.826  -4.364  0.00  0.00    -0.180 NA
ATOM      8  O   UNL d   1      12.834  14.944  -4.616  0.00  0.00    -0.263 OA
BRANCH   7   9
ATOM      9  C   UNL d   1      14.349  15.612  -4.590  0.00  0.00     0.216 A 
ATOM     10  N   UNL d   1      14.281  15.911  -5.368  0.00  0.00    -0.200 NA
ATOM     11  C   UNL d   1      14.435  16.710  -5.337  0.00  0.00     0.175 A 
ATOM     12  N   UNL d   1      14.598  16.916  -4.555  0.00  0.00    -0.187 NA
ATOM     13  S   UNL d   1      14.544  16.228  -4.093  0.00  0.00     0.054 SA
BRANCH  11  14
ATOM     14  C   UNL d   1      14.431  17.230  -5.973  0.00  0.00     0.082 C 
BRANCH  14  15
ATOM     15  C   UNL d   1      13.984  17.928  -5.932  0.00  0.00     0.199 C 
ATOM     16  O   UNL d   1      13.300  18.009  -6.388  0.00  0.00    -0.286 OA
ATOM     17  C   UNL d   1      14.221  18.544  -5.435  0.00  0.00     0.045 C 
ENDBRANCH  14  15
ENDBRANCH  11  14
ENDBRANCH   7   9
ENDBRANCH   1   6
BRANCH   4  18
ATOM     18  C   UNL d   1      13.262  12.092  -2.763  0.00  0.00     0.147 C 
BRANCH  18  19
ATOM     19  O   UNL d   1      13.977  11.805  -2.460  0.00  0.00    -0.303 OA
BRANCH  19  20
ATOM     20  C   UNL d   1      14.116  11.823  -1.649  0.00  0.00     0.100 A 
ATOM     21  C   UNL d   1      14.893  11.885  -1.361  0.00  0.00     0.025 A 
ATOM     22  C   UNL d   1      15.031  11.903  -0.550  0.00  0.00     0.002 A 
ATOM     23  C   UNL d   1      14.395  11.859  -0.027  0.00  0.00     0.000 A 
ATOM     24  C   UNL d   1      13.621  11.797  -0.313  0.00  0.00     0.002 A 
ATOM     25  C   UNL d   1      13.482  11.779  -1.123  0.00  0.00     0.025 A 
ENDBRANCH  19  20
ENDBRANCH  18  19
ENDBRANCH   4  18
TORSDOF 7
ENDMDL
MODEL 2
REMARK VINA RESULT:      42.4      1.464      6.115
REMARK  7 active torsions:
REMARK  status: ('A' for Active; 'I' for Inactive)
REMARK    1  A    between atoms: N_3  and  C_2 
REMARK       I    between atoms: C_6  and  N_3 
REMARK    2  A    between atoms: C_11  and  C_4 
REMARK    3  A    between atoms: C_5  and  C_6 
REMARK    4  A    between atoms: C_15  and  C_11 
REMARK    5  A    between atoms: C_18  and  C_12 
REMARK    6  A    between atoms: O_17  and  C_18 
REMARK    7  A    between atoms: C_19  and  O_17 
ROOT
ATOM      1  C   UNL d   1      13.869  15.038  -4.646  0.00  0.00     0.158 A 
ATOM      2  O   UNL d   1      13.384  15.575  -5.038  0.00  0.00    -0.300 OA
ATOM      3  C   UNL d   1      14.651  15.265  -4.772  0.00  0.00     0.032 A 
ATOM      4  C   UNL d   1      13.860  16.135  -5.407  0.00  0.00     0.125 A 
ATOM      5  C   UNL d   1      14.647  15.947  -5.246  0.00  0.00     0.029 A 
ENDROOT
BRANCH   1   6
ATOM      6  C   UNL d   1      13.619  14.384  -4.203  0.00  0.00     0.304 C 
ATOM      7  N   UNL d   1      13.738  13.621  -4.494  0.00  0.00    -0.180 NA
ATOM      8  O   UNL d   1      13.253  14.503  -3.476  0.00  0.00    -0.263 OA
BRANCH   7   9
ATOM      9  C   UNL d   1      13.489  12.969  -4.053  0.00  0.00     0.216 A 
ATOM     10  N   UNL d   1      13.648  12.837  -3.242  0.00  0.00    -0.200 NA
ATOM     11  C   UNL d   1      13.299  12.130  -3.037  0.00  0.00     0.175 A 
ATOM     12  N   UNL d   1      12.925  11.818  -3.703  0.00  0.00    -0.187 NA
ATOM     13  S   UNL d   1      13.046  12.344  -4.333  0.00  0.00     0.054 SA
BRANCH  11  14
ATOM     14  C   UNL d   1      13.312  11.781  -2.294  0.00  0.00     0.082 C 
BRANCH  14  15
ATOM     15  C   UNL d   1      13.938  11.942  -1.774  0.00  0.00     0.199 C 
ATOM     16  O   UNL d   1      14.717  11.937  -2.050  0.00  0.00    -0.286 OA
ATOM     17  C   UNL d   1      13.786  12.109  -0.980  0.00  0.00     0.045 C 
ENDBRANCH  14  15
ENDBRANCH  11  14
ENDBRANCH   7   9
ENDBRANCH   1   6
BRANCH   4  18
ATOM     18  C   UNL d   1      13.598  16.770  -5.859  0.00  0.00     0.147 C 
BRANCH  18  19
ATOM     19  O   UNL d   1      14.127  17.373  -6.062  0.00  0.00    -0.303 OA
BRANCH  19  20
ATOM     20  C   UNL d   1      13.854  18.142  -6.167  0.00  0.00     0.100 A 
ATOM     21  C   UNL d   1      13.043  18.284  -6.280  0.00  0.00     0.025 A 
ATOM     22  C   UNL d   1      12.769  19.053  -6.385  0.00  0.00     0.002 A 
ATOM     23  C   UNL d   1      13.304  19.680  -6.377  0.00  0.00     0.000 A 
ATOM     24  C   UNL d   1      14.112  19.540  -6.265  0.00  0.00     0.002 A 
ATOM     25  C   UNL d   1      14.386  18.772  -6.160  0.00  0.00     0.025 A 
ENDBRANCH  19  20
ENDBRANCH  18  19
ENDBRANCH   4  18
TORSDOF 7
ENDMDL
MODEL 3
REMARK VINA RESULT:      43.7      2.803      4.594
REMARK  7 active torsions:
REMARK  status: ('A' for Active; 'I' for Inactive)
REMARK    1  A    between atoms: N_3  and  C_2 
REMARK       I    between atoms: C_6  and  N_3 
REMARK    2  A    between atoms: C_11  and  C_4 
REMARK    3  A    between atoms: C_5  and  C_6 
REMARK    4  A    between atoms: C_15  and  C_11 
REMARK    5  A    between atoms: C_18  and  C_12 
REMARK    6  A    between atoms: O_17  and  C_18 
REMARK    7  A    between atoms: C_19  and  O_17 
ROOT
ATOM      1  C   UNL d   1      14.348  13.363  -1.256  0.00  0.00     0.158 A 
ATOM      2  O   UNL d   1      14.503  14.162  -1.129  0.00  0.00    -0.300 OA
ATOM      3  C   UNL d   1      14.559  12.952  -0.574  0.00  0.00     0.032 A 
ATOM      4  C   UNL d   1      14.810  14.249  -0.370  0.00  0.00     0.125 A 
ATOM      5  C   UNL d   1      14.847  13.502  -0.022  0.00  0.00     0.029 A 
ENDROOT
BRANCH   1   6
ATOM      6  C   UNL d   1      14.034  13.029  -1.947  0.00  0.00     0.304 C 
ATOM      7  N   UNL d   1      13.852  13.513  -2.591  0.00  0.00    -0.180 NA
ATOM      8  O   UNL d   1      13.908  12.218  -1.983  0.00  0.00    -0.263 OA
BRANCH   7   9
ATOM      9  C   UNL d   1      13.540  13.182  -3.279  0.00  0.00     0.216 A 
ATOM     10  N   UNL d   1      13.848  12.518  -3.685  0.00  0.00    -0.200 NA
ATOM     11  C   UNL d   1      13.369  12.384  -4.331  0.00  0.00     0.175 A 
ATOM     12  N   UNL d   1      12.770  12.950  -4.336  0.00  0.00    -0.187 NA
ATOM     13  S   UNL d   1      12.880  13.445  -3.679  0.00  0.00     0.054 SA
BRANCH  11  14
ATOM     14  C   UNL d   1      13.462  11.788  -4.887  0.00  0.00     0.082 C 
BRANCH  14  15
ATOM     15  C   UNL d   1      13.931  11.919  -5.559  0.00  0.00     0.199 C 
ATOM     16  O   UNL d   1      14.751  11.992  -5.483  0.00  0.00    -0.286 OA
ATOM     17  C   UNL d   1      13.582  11.978  -6.305  0.00  0.00     0.045 C 
ENDBRANCH  14  15
ENDBRANCH  11  14
ENDBRANCH   7   9
ENDBRANCH   1   6
BRANCH   4  18
ATOM     18  C   UNL d   1      15.039  14.957  -0.021  0.00  0.00     0.147 C 
BRANCH  18  19
ATOM     19  O   UNL d   1      15.640  15.408  -0.368  0.00  0.00    -0.303 OA
BRANCH  19  20
ATOM     20  C   UNL d   1      15.459  16.126  -0.727  0.00  0.00     0.100 A 
ATOM     21  C   UNL d   1      15.898  16.807  -0.542  0.00  0.00     0.025 A 
ATOM     22  C   UNL d   1      15.717  17.525  -0.901  0.00  0.00     0.002 A 
ATOM     23  C   UNL d   1      15.097  17.564  -1.445  0.00  0.00     0.000 A 
ATOM     24  C   UNL d   1      14.660  16.887  -1.629  0.00  0.00     0.002 A 
ATOM     25  C   UNL d   1      14.840  16.169  -1.271  0.00  0.00     0.025 A 
ENDBRANCH  19  20
ENDBRANCH  18  19
ENDBRANCH   4  18
TORSDOF 7
ENDMDL
