MODEL 1
REMARK VINA RESULT:      -0.7      0.000      0.000
REMARK  8 active torsions:
REMARK  status: ('A' for Active; 'I' for Inactive)
REMARK    1  A    between atoms: C_21  and  N_5 
REMARK    2  A    between atoms: S_10  and  C_6 
REMARK    3  A    between atoms: C_17  and  C_7 
REMARK    4  A    between atoms: C_23  and  S_10 
REMARK    5  A    between atoms: C_13  and  C_23 
REMARK       I    between atoms: N_19  and  C_13 
REMARK    6  A    between atoms: C_28  and  N_19 
REMARK    7  A    between atoms: C_24  and  C_21 
REMARK    8  A    between atoms: C_27  and  C_28 
ROOT
ATOM      1  C   UNL d   1      57.292   0.329  32.074  0.00  0.00     0.081 A 
ATOM      2  C   UNL d   1      56.954   0.164  31.369  0.00  0.00     0.117 A 
ATOM      3  N   UNL d   1      57.390   0.155  30.635  0.00  0.00    -0.215 NA
ATOM      4  C   UNL d   1      58.127   0.502  32.079  0.00  0.00     0.268 A 
ATOM      5  N   UNL d   1      58.568   0.499  31.387  0.00  0.00    -0.253 N 
ATOM      6  C   UNL d   1      58.172   0.315  30.633  0.00  0.00     0.182 A 
ATOM      7  C   UNL d   1      56.732   0.294  32.663  0.00  0.00     0.013 A 
ATOM      8  S   UNL d   1      56.135   0.012  31.492  0.00  0.00    -0.067 SA
ATOM      9  C   UNL d   1      56.009   0.097  32.311  0.00  0.00     0.037 A 
ATOM     10  O   UNL d   1      58.528   0.681  32.795  0.00  0.00    -0.267 OA
ENDROOT
BRANCH   6  11
ATOM     11  S   UNL d   1      58.599   0.306  29.914  0.00  0.00    -0.044 SA
BRANCH  11  12
ATOM     12  C   UNL d   1      58.590  -0.324  29.423  0.00  0.00     0.101 C 
BRANCH  12  13
ATOM     13  C   UNL d   1      59.118  -0.425  28.850  0.00  0.00     0.286 C 
ATOM     14  N   UNL d   1      59.255  -1.118  28.457  0.00  0.00    -0.206 NA
ATOM     15  O   UNL d   1      59.566   0.209  28.626  0.00  0.00    -0.265 OA
BRANCH  14  16
ATOM     16  C   UNL d   1      58.766  -1.742  28.726  0.00  0.00     0.102 C 
BRANCH  16  17
ATOM     17  C   UNL d   1      59.121  -2.525  28.728  0.00  0.00     0.021 A 
ATOM     18  C   UNL d   1      59.956  -2.638  28.640  0.00  0.00     0.028 A 
ATOM     19  C   UNL d   1      60.268  -3.369  28.644  0.00  0.00     0.119 A 
ATOM     20  O   UNL d   1      61.054  -3.613  28.569  0.00  0.00    -0.300 OA
ATOM     21  C   UNL d   1      59.793  -4.033  28.732  0.00  0.00     0.119 A 
ATOM     22  C   UNL d   1      61.024  -4.433  28.616  0.00  0.00     0.304 A 
ATOM     23  O   UNL d   1      60.254  -4.692  28.716  0.00  0.00    -0.300 OA
ATOM     24  C   UNL d   1      58.952  -3.943  28.822  0.00  0.00     0.026 A 
ATOM     25  C   UNL d   1      58.646  -3.196  28.816  0.00  0.00     0.004 A 
ENDBRANCH  16  17
ENDBRANCH  14  16
ENDBRANCH  12  13
ENDBRANCH  11  12
ENDBRANCH   6  11
BRANCH   5  26
ATOM     26  C   UNL d   1      59.391   0.681  31.485  0.00  0.00     0.085 C 
BRANCH  26  27
ATOM     27  C   UNL d   1      59.895   0.209  31.993  0.00  0.00     0.019 C 
ATOM     28  C   UNL d   1      60.687   0.114  31.773  0.00  0.00     0.002 C 
ENDBRANCH  26  27
ENDBRANCH   5  26
BRANCH   7  29
ATOM     29  C   UNL d   1      56.504   0.350  33.422  0.00  0.00     0.001 A 
ATOM     30  C   UNL d   1      56.998   0.489  34.068  0.00  0.00     0.000 A 
ATOM     31  C   UNL d   1      56.769   0.545  34.827  0.00  0.00     0.000 A 
ATOM     32  C   UNL d   1      55.962   0.456  34.994  0.00  0.00     0.000 A 
ATOM     33  C   UNL d   1      55.441   0.315  34.372  0.00  0.00     0.000 A 
ATOM     34  C   UNL d   1      55.707   0.262  33.593  0.00  0.00     0.000 A 
ENDBRANCH   7  29
TORSDOF 8
ENDMDL
MODEL 2
REMARK VINA RESULT:       2.1      1.382      5.794
REMARK  8 active torsions:
REMARK  status: ('A' for Active; 'I' for Inactive)
REMARK    1  A    between atoms: C_21  and  N_5 
REMARK    2  A    between atoms: S_10  and  C_6 
REMARK    3  A    between atoms: C_17  and  C_7 
REMARK    4  A    between atoms: C_23  and  S_10 
REMARK    5  A    between atoms: C_13  and  C_23 
REMARK       I    between atoms: N_19  and  C_13 
REMARK    6  A    between atoms: C_28  and  N_19 
REMARK    7  A    between atoms: C_24  and  C_21 
REMARK    8  A    between atoms: C_27  and  C_28 
ROOT
ATOM      1  C   UNL d   1      59.472  -2.593  29.211  0.00  0.00     0.081 A 
ATOM      2  C   UNL d   1      58.813  -2.398  29.619  0.00  0.00     0.117 A 
ATOM      3  N   UNL d   1      58.565  -1.591  29.743  0.00  0.00    -0.215 NA
ATOM      4  C   UNL d   1      59.939  -1.955  28.892  0.00  0.00     0.268 A 
ATOM      5  N   UNL d   1      59.722  -1.172  28.998  0.00  0.00    -0.253 N 
ATOM      6  C   UNL d   1      58.997  -0.990  29.447  0.00  0.00     0.182 A 
ATOM      7  C   UNL d   1      59.555  -3.402  29.192  0.00  0.00     0.013 A 
ATOM      8  S   UNL d   1      58.440  -3.106  29.882  0.00  0.00    -0.067 SA
ATOM      9  C   UNL d   1      58.918  -3.730  29.606  0.00  0.00     0.037 A 
ATOM     10  O   UNL d   1      60.641  -2.109  28.456  0.00  0.00    -0.267 OA
ENDROOT
BRANCH   6  11
ATOM     11  S   UNL d   1      58.754  -0.198  29.569  0.00  0.00    -0.044 SA
BRANCH  11  12
ATOM     12  C   UNL d   1      58.204  -0.003  30.113  0.00  0.00     0.101 C 
BRANCH  12  13
ATOM     13  C   UNL d   1      58.385   0.332  30.800  0.00  0.00     0.286 C 
ATOM     14  N   UNL d   1      57.871   0.450  31.413  0.00  0.00    -0.206 NA
ATOM     15  O   UNL d   1      59.145   0.583  30.916  0.00  0.00    -0.265 OA
BRANCH  14  16
ATOM     16  C   UNL d   1      57.100   0.173  31.244  0.00  0.00     0.102 C 
BRANCH  16  17
ATOM     17  C   UNL d   1      56.617  -0.037  31.923  0.00  0.00     0.021 A 
ATOM     18  C   UNL d   1      56.531   0.480  32.589  0.00  0.00     0.028 A 
ATOM     19  C   UNL d   1      56.080   0.270  33.209  0.00  0.00     0.119 A 
ATOM     20  O   UNL d   1      55.916   0.677  33.909  0.00  0.00    -0.300 OA
ATOM     21  C   UNL d   1      55.687  -0.451  33.224  0.00  0.00     0.119 A 
ATOM     22  C   UNL d   1      55.418   0.176  34.331  0.00  0.00     0.304 A 
ATOM     23  O   UNL d   1      55.278  -0.514  33.913  0.00  0.00    -0.300 OA
ATOM     24  C   UNL d   1      55.760  -0.985  32.567  0.00  0.00     0.026 A 
ATOM     25  C   UNL d   1      56.220  -0.762  31.943  0.00  0.00     0.004 A 
ENDBRANCH  16  17
ENDBRANCH  14  16
ENDBRANCH  12  13
ENDBRANCH  11  12
ENDBRANCH   6  11
BRANCH   5  26
ATOM     26  C   UNL d   1      60.244  -0.603  28.646  0.00  0.00     0.085 C 
BRANCH  26  27
ATOM     27  C   UNL d   1      60.976  -0.372  29.029  0.00  0.00     0.019 C 
ATOM     28  C   UNL d   1      61.132   0.436  29.112  0.00  0.00     0.002 C 
ENDBRANCH  26  27
ENDBRANCH   5  26
BRANCH   7  29
ATOM     29  C   UNL d   1      59.936  -4.065  28.978  0.00  0.00     0.001 A 
ATOM     30  C   UNL d   1      60.750  -4.191  29.014  0.00  0.00     0.000 A 
ATOM     31  C   UNL d   1      61.130  -4.855  28.800  0.00  0.00     0.000 A 
ATOM     32  C   UNL d   1      60.675  -5.485  28.514  0.00  0.00     0.000 A 
ATOM     33  C   UNL d   1      59.858  -5.394  28.464  0.00  0.00     0.000 A 
ATOM     34  C   UNL d   1      59.489  -4.692  28.693  0.00  0.00     0.000 A 
ENDBRANCH   7  29
TORSDOF 8
ENDMDL
