MODEL 1
REMARK VINA RESULT:      51.0      0.000      0.000
REMARK  3 active torsions:
REMARK  status: ('A' for Active; 'I' for Inactive)
REMARK    1  A    between atoms: C_4  and  C_1 
REMARK    2  A    between atoms: N_2  and  C_9 
REMARK       I    between atoms: N_7  and  C_4 
REMARK    3  A    between atoms: C_11  and  N_7 
ROOT
ATOM      1  C   UNL d   1     -50.811  26.133  33.723  0.00  0.00     0.087 A 
ATOM      2  S   UNL d   1     -50.948  26.832  33.307  0.00  0.00    -0.082 SA
ATOM      3  C   UNL d   1     -50.220  26.271  34.269  0.00  0.00     0.012 A 
ATOM      4  C   UNL d   1     -49.978  27.062  34.203  0.00  0.00     0.008 A 
ATOM      5  C   UNL d   1     -50.441  27.419  33.591  0.00  0.00     0.030 A 
ATOM      6  C   UNL d   1     -49.304  28.286  34.406  0.00  0.00     0.127 A 
ATOM      7  C   UNL d   1     -49.421  27.502  34.596  0.00  0.00     0.024 A 
ATOM      8  C   UNL d   1     -50.322  28.196  33.406  0.00  0.00     0.008 A 
ATOM      9  C   UNL d   1     -49.767  28.643  33.794  0.00  0.00     0.024 A 
ENDROOT
BRANCH   1  10
ATOM     10  C   UNL d   1     -51.205  25.418  33.605  0.00  0.00     0.286 C 
ATOM     11  N   UNL d   1     -52.008  25.346  33.773  0.00  0.00    -0.189 NA
ATOM     12  O   UNL d   1     -50.789  24.751  33.309  0.00  0.00    -0.265 OA
BRANCH  11  13
ATOM     13  C   UNL d   1     -52.418  24.638  33.660  0.00  0.00     0.166 A 
ATOM     14  N   UNL d   1     -53.243  24.631  33.790  0.00  0.00    -0.225 NA
ATOM     15  C   UNL d   1     -53.668  23.932  33.682  0.00  0.00     0.101 A 
ATOM     16  C   UNL d   1     -53.270  23.234  33.443  0.00  0.00     0.021 A 
ATOM     17  C   UNL d   1     -52.467  23.246  33.317  0.00  0.00     0.005 A 
ATOM     18  C   UNL d   1     -52.037  23.955  33.427  0.00  0.00     0.039 A 
ENDBRANCH  11  13
ENDBRANCH   1  10
BRANCH   6  19
ATOM     19  N   UNL d   1     -48.728  28.761  34.804  0.00  0.00    -0.114 N 
ATOM     20  O   UNL d   1     -48.109  28.430  35.212  0.00  0.00    -0.532 OA
ATOM     21  O   UNL d   1     -48.806  29.585  34.773  0.00  0.00    -0.532 OA
ENDBRANCH   6  19
TORSDOF 3
ENDMDL
MODEL 2
REMARK VINA RESULT:      53.8      1.418      5.001
REMARK  3 active torsions:
REMARK  status: ('A' for Active; 'I' for Inactive)
REMARK    1  A    between atoms: C_4  and  C_1 
REMARK    2  A    between atoms: N_2  and  C_9 
REMARK       I    between atoms: N_7  and  C_4 
REMARK    3  A    between atoms: C_11  and  N_7 
ROOT
ATOM      1  C   UNL d   1     -50.415  26.274  33.849  0.00  0.00     0.087 A 
ATOM      2  S   UNL d   1     -50.149  25.542  33.578  0.00  0.00    -0.082 SA
ATOM      3  C   UNL d   1     -51.211  26.214  34.017  0.00  0.00     0.012 A 
ATOM      4  C   UNL d   1     -51.458  25.438  33.853  0.00  0.00     0.008 A 
ATOM      5  C   UNL d   1     -50.782  25.010  33.574  0.00  0.00     0.030 A 
ATOM      6  C   UNL d   1     -52.252  24.280  33.707  0.00  0.00     0.127 A 
ATOM      7  C   UNL d   1     -52.175  25.064  33.913  0.00  0.00     0.024 A 
ATOM      8  C   UNL d   1     -50.862  24.233  33.370  0.00  0.00     0.008 A 
ATOM      9  C   UNL d   1     -51.576  23.852  33.428  0.00  0.00     0.024 A 
ENDROOT
BRANCH   1  10
ATOM     10  C   UNL d   1     -49.951  26.951  33.934  0.00  0.00     0.286 C 
ATOM     11  N   UNL d   1     -49.480  27.059  34.602  0.00  0.00    -0.189 NA
ATOM     12  O   UNL d   1     -49.953  27.542  33.338  0.00  0.00    -0.265 OA
BRANCH  11  13
ATOM     13  C   UNL d   1     -49.010  27.730  34.704  0.00  0.00     0.166 A 
ATOM     14  N   UNL d   1     -48.736  27.911  35.472  0.00  0.00    -0.225 NA
ATOM     15  C   UNL d   1     -48.265  28.578  35.591  0.00  0.00     0.101 A 
ATOM     16  C   UNL d   1     -48.065  29.069  34.942  0.00  0.00     0.021 A 
ATOM     17  C   UNL d   1     -48.334  28.889  34.196  0.00  0.00     0.005 A 
ATOM     18  C   UNL d   1     -48.811  28.213  34.076  0.00  0.00     0.039 A 
ENDBRANCH  11  13
ENDBRANCH   1  10
BRANCH   6  19
ATOM     19  N   UNL d   1     -52.991  23.873  33.763  0.00  0.00    -0.114 N 
ATOM     20  O   UNL d   1     -53.587  24.134  34.247  0.00  0.00    -0.532 OA
ATOM     21  O   UNL d   1     -53.101  23.189  33.307  0.00  0.00    -0.532 OA
ENDBRANCH   6  19
TORSDOF 3
ENDMDL
