MODEL 1
REMARK VINA RESULT:       9.6      0.000      0.000
REMARK  5 active torsions:
REMARK  status: ('A' for Active; 'I' for Inactive)
REMARK    1  A    between atoms: N_2  and  S_1 
REMARK    2  A    between atoms: C_6  and  S_1 
REMARK    3  A    between atoms: C_3  and  N_2 
REMARK    4  A    between atoms: N_7  and  C_3 
REMARK    5  A    between atoms: C_9  and  N_7 
ROOT
ATOM      1  N   UNL d   1      46.294 -17.274  43.646  0.00  0.00    -0.128 NA
ENDROOT
BRANCH   1   2
ATOM      2  S   UNL d   1      46.356 -18.031  43.311  0.00  0.00     0.287 S 
ATOM      3  O   UNL d   1      46.240 -17.714  42.547  0.00  0.00    -0.198 OA
ATOM      4  O   UNL d   1      46.473 -18.365  44.062  0.00  0.00    -0.198 OA
BRANCH   2   5
ATOM      5  C   UNL d   1      46.419 -18.792  42.974  0.00  0.00     0.105 A 
ATOM      6  C   UNL d   1      46.323 -19.469  43.452  0.00  0.00     0.013 A 
ATOM      7  C   UNL d   1      46.385 -20.219  43.120  0.00  0.00     0.001 A 
ATOM      8  C   UNL d   1      46.541 -20.303  42.316  0.00  0.00     0.000 A 
ATOM      9  C   UNL d   1      46.638 -19.633  41.837  0.00  0.00     0.001 A 
ATOM     10  C   UNL d   1      46.576 -18.881  42.170  0.00  0.00     0.013 A 
ENDBRANCH   2   5
ENDBRANCH   1   2
BRANCH   1  11
ATOM     11  C   UNL d   1      45.887 -16.733  44.137  0.00  0.00     0.232 C 
ATOM     12  S   UNL d   1      45.897 -16.837  44.955  0.00  0.00    -0.036 SA
BRANCH  11  13
ATOM     13  N   UNL d   1      45.478 -16.100  43.798  0.00  0.00    -0.217 NA
BRANCH  13  14
ATOM     14  C   UNL d   1      45.465 -15.366  44.179  0.00  0.00     0.084 A 
ATOM     15  C   UNL d   1      44.788 -15.121  44.577  0.00  0.00     0.019 A 
ATOM     16  C   UNL d   1      44.774 -14.394  44.955  0.00  0.00     0.002 A 
ATOM     17  C   UNL d   1      45.434 -13.905  44.940  0.00  0.00     0.000 A 
ATOM     18  C   UNL d   1      46.115 -14.149  44.541  0.00  0.00     0.002 A 
ATOM     19  C   UNL d   1      46.133 -14.880  44.160  0.00  0.00     0.019 A 
ENDBRANCH  13  14
ENDBRANCH  11  13
ENDBRANCH   1  11
TORSDOF 5
ENDMDL
MODEL 2
REMARK VINA RESULT:      10.0      1.018      4.576
REMARK  5 active torsions:
REMARK  status: ('A' for Active; 'I' for Inactive)
REMARK    1  A    between atoms: N_2  and  S_1 
REMARK    2  A    between atoms: C_6  and  S_1 
REMARK    3  A    between atoms: C_3  and  N_2 
REMARK    4  A    between atoms: N_7  and  C_3 
REMARK    5  A    between atoms: C_9  and  N_7 
ROOT
ATOM      1  N   UNL d   1      45.769 -16.824  44.138  0.00  0.00    -0.128 NA
ENDROOT
BRANCH   1   2
ATOM      2  S   UNL d   1      45.696 -16.023  44.340  0.00  0.00     0.287 S 
ATOM      3  O   UNL d   1      46.232 -15.810  43.736  0.00  0.00    -0.198 OA
ATOM      4  O   UNL d   1      45.162 -16.214  44.946  0.00  0.00    -0.198 OA
BRANCH   2   5
ATOM      5  C   UNL d   1      45.623 -15.216  44.544  0.00  0.00     0.105 A 
ATOM      6  C   UNL d   1      46.294 -14.722  44.538  0.00  0.00     0.013 A 
ATOM      7  C   UNL d   1      46.221 -13.927  44.739  0.00  0.00     0.001 A 
ATOM      8  C   UNL d   1      45.487 -13.620  44.947  0.00  0.00     0.000 A 
ATOM      9  C   UNL d   1      44.816 -14.108  44.955  0.00  0.00     0.001 A 
ATOM     10  C   UNL d   1      44.889 -14.904  44.753  0.00  0.00     0.013 A 
ENDBRANCH   2   5
ENDBRANCH   1   2
BRANCH   1  11
ATOM     11  C   UNL d   1      46.173 -17.553  44.209  0.00  0.00     0.232 C 
ATOM     12  S   UNL d   1      46.180 -17.946  44.934  0.00  0.00    -0.036 SA
BRANCH  11  13
ATOM     13  N   UNL d   1      46.561 -17.873  43.553  0.00  0.00    -0.217 NA
BRANCH  13  14
ATOM     14  C   UNL d   1      46.449 -18.667  43.354  0.00  0.00     0.084 A 
ATOM     15  C   UNL d   1      46.408 -18.891  42.564  0.00  0.00     0.019 A 
ATOM     16  C   UNL d   1      46.297 -19.678  42.364  0.00  0.00     0.002 A 
ATOM     17  C   UNL d   1      46.226 -20.249  42.952  0.00  0.00     0.000 A 
ATOM     18  C   UNL d   1      46.268 -20.027  43.746  0.00  0.00     0.002 A 
ATOM     19  C   UNL d   1      46.380 -19.236  43.950  0.00  0.00     0.019 A 
ENDBRANCH  13  14
ENDBRANCH  11  13
ENDBRANCH   1  11
TORSDOF 5
ENDMDL
