MODEL 1
REMARK VINA RESULT:      -3.6      0.000      0.000
REMARK  5 active torsions:
REMARK  status: ('A' for Active; 'I' for Inactive)
REMARK    1  A    between atoms: C_10  and  C_4 
REMARK    2  A    between atoms: N_12  and  C_5 
REMARK    3  A    between atoms: N_11  and  C_22 
REMARK    4  A    between atoms: C_21  and  N_12 
REMARK    5  A    between atoms: C_22  and  C_21 
ROOT
ATOM      1  N   UNL d   1     -41.380-122.644 -52.065  0.00  0.00    -0.195 N 
ATOM      2  C   UNL d   1     -41.466-122.065 -52.645  0.00  0.00     0.167 A 
ATOM      3  N   UNL d   1     -41.492-123.373 -52.420  0.00  0.00    -0.163 NA
ATOM      4  C   UNL d   1     -41.631-122.441 -53.353  0.00  0.00     0.055 A 
ATOM      5  C   UNL d   1     -41.209-122.429 -51.288  0.00  0.00     0.167 A 
ATOM      6  C   UNL d   1     -41.647-123.238 -53.217  0.00  0.00     0.104 A 
ATOM      7  N   UNL d   1     -41.382-121.269 -52.449  0.00  0.00    -0.227 NA
ATOM      8  C   UNL d   1     -41.124-121.625 -51.090  0.00  0.00     0.058 A 
ATOM      9  C   UNL d   1     -41.210-121.051 -51.664  0.00  0.00     0.086 A 
ATOM     10  C   UNL d   1     -41.796-123.817 -53.792  0.00  0.00     0.023 C 
ATOM     11  C   UNL d   1     -41.123-120.246 -51.452  0.00  0.00     0.021 C 
ENDROOT
BRANCH   5  12
ATOM     12  N   UNL d   1     -41.123-123.008 -50.709  0.00  0.00    -0.224 NA
BRANCH  12  13
ATOM     13  C   UNL d   1     -41.610-123.005 -50.046  0.00  0.00     0.120 C 
BRANCH  13  14
ATOM     14  C   UNL d   1     -41.462-123.529 -49.415  0.00  0.00     0.101 C 
BRANCH  14  15
ATOM     15  N   UNL d   1     -41.826-123.407 -48.689  0.00  0.00    -0.298 N 
ATOM     16  C   UNL d   1     -42.572-123.738 -48.542  0.00  0.00     0.107 A 
ATOM     17  C   UNL d   1     -42.936-123.616 -47.816  0.00  0.00     0.142 A 
ATOM     18  O   UNL d   1     -42.566-123.164 -47.223  0.00  0.00    -0.300 OA
ATOM     19  C   UNL d   1     -41.817-122.832 -47.371  0.00  0.00     0.142 A 
ATOM     20  C   UNL d   1     -41.448-122.953 -48.102  0.00  0.00     0.107 A 
ENDBRANCH  14  15
ENDBRANCH  13  14
ENDBRANCH  12  13
ENDBRANCH   5  12
BRANCH   4  21
ATOM     21  C   UNL d   1     -41.771-122.147 -54.116  0.00  0.00     0.004 A 
ATOM     22  C   UNL d   1     -42.543-121.948 -54.342  0.00  0.00     0.001 A 
ATOM     23  C   UNL d   1     -42.681-121.656 -55.101  0.00  0.00     0.011 A 
ATOM     24  C   UNL d   1     -42.053-121.564 -55.627  0.00  0.00     0.058 A 
ATOM     25  C   UNL d   1     -41.285-121.760 -55.407  0.00  0.00     0.011 A 
ATOM     26 CL   UNL d   1     -42.199-121.269 -56.391  0.00  0.00    -0.082 Cl
ATOM     27  C   UNL d   1     -41.145-122.054 -54.645  0.00  0.00     0.001 A 
ENDBRANCH   4  21
TORSDOF 5
ENDMDL
