MODEL 1
REMARK VINA RESULT:      55.2      0.000      0.000
REMARK  5 active torsions:
REMARK  status: ('A' for Active; 'I' for Inactive)
REMARK    1  A    between atoms: N_3  and  C_1 
REMARK       I    between atoms: C_7  and  N_3 
REMARK    2  A    between atoms: S_9  and  C_4 
REMARK    3  A    between atoms: C_8  and  C_7 
REMARK    4  A    between atoms: C_13  and  S_9 
REMARK    5  A    between atoms: C_16  and  C_13 
ROOT
ATOM      1  C   UNL d   1     -48.854  27.920  34.197  0.00  0.00     0.219 A 
ATOM      2  S   UNL d   1     -49.439  27.624  33.641  0.00  0.00    -0.019 SA
ATOM      3  C   UNL d   1     -49.490  26.767  33.781  0.00  0.00     0.165 A 
ATOM      4  N   UNL d   1     -48.641  27.340  34.556  0.00  0.00    -0.120 NA
ATOM      5  N   UNL d   1     -49.044  26.626  34.289  0.00  0.00    -0.133 NA
ENDROOT
BRANCH   1   6
ATOM      6  N   UNL d   1     -48.586  28.797  34.285  0.00  0.00    -0.181 NA
ATOM      7  C   UNL d   1     -48.086  29.039  34.935  0.00  0.00     0.281 C 
ATOM      8  O   UNL d   1     -47.891  28.554  35.391  0.00  0.00    -0.265 OA
BRANCH   7   9
ATOM      9  C   UNL d   1     -47.782  29.777  35.122  0.00  0.00     0.058 A 
ATOM     10  C   UNL d   1     -47.780  30.373  34.555  0.00  0.00     0.006 A 
ATOM     11  C   UNL d   1     -47.471  31.120  34.749  0.00  0.00     0.012 A 
ATOM     12  C   UNL d   1     -47.170  31.252  35.513  0.00  0.00     0.058 A 
ATOM     13  C   UNL d   1     -47.182  30.641  36.067  0.00  0.00     0.012 A 
ATOM     14 CL   UNL d   1     -46.866  32.070  35.625  0.00  0.00    -0.082 Cl
ATOM     15  C   UNL d   1     -47.488  29.906  35.868  0.00  0.00     0.006 A 
ENDBRANCH   7   9
ENDBRANCH   1   6
BRANCH   3  16
ATOM     16  S   UNL d   1     -49.978  26.099  33.412  0.00  0.00    -0.059 SA
BRANCH  16  17
ATOM     17  C   UNL d   1     -50.701  26.276  33.383  0.00  0.00     0.037 C 
BRANCH  17  18
ATOM     18  C   UNL d   1     -51.267  25.687  33.381  0.00  0.00     0.007 A 
ATOM     19  C   UNL d   1     -51.056  24.895  33.380  0.00  0.00     0.001 A 
ATOM     20  C   UNL d   1     -51.630  24.298  33.378  0.00  0.00     0.007 A 
ATOM     21  C   UNL d   1     -52.430  24.510  33.377  0.00  0.00     0.035 A 
ATOM     22  C   UNL d   1     -52.654  25.323  33.379  0.00  0.00     0.007 A 
ATOM     23 BR   UNL d   1     -53.161  23.800  33.375  0.00  0.00    -0.049 Br
ATOM     24  C   UNL d   1     -52.048  25.895  33.381  0.00  0.00     0.001 A 
ENDBRANCH  17  18
ENDBRANCH  16  17
ENDBRANCH   3  16
TORSDOF 5
ENDMDL
MODEL 2
REMARK VINA RESULT:      57.4      3.323      6.406
REMARK  5 active torsions:
REMARK  status: ('A' for Active; 'I' for Inactive)
REMARK    1  A    between atoms: N_3  and  C_1 
REMARK       I    between atoms: C_7  and  N_3 
REMARK    2  A    between atoms: S_9  and  C_4 
REMARK    3  A    between atoms: C_8  and  C_7 
REMARK    4  A    between atoms: C_13  and  S_9 
REMARK    5  A    between atoms: C_16  and  C_13 
ROOT
ATOM      1  C   UNL d   1     -50.230  27.062  34.016  0.00  0.00     0.219 A 
ATOM      2  S   UNL d   1     -49.837  27.370  34.716  0.00  0.00    -0.019 SA
ATOM      3  C   UNL d   1     -49.187  27.868  34.425  0.00  0.00     0.165 A 
ATOM      4  N   UNL d   1     -49.863  27.340  33.470  0.00  0.00    -0.120 NA
ATOM      5  N   UNL d   1     -49.214  27.842  33.736  0.00  0.00    -0.133 NA
ENDROOT
BRANCH   1   6
ATOM      6  N   UNL d   1     -50.960  26.501  34.007  0.00  0.00    -0.181 NA
ATOM      7  C   UNL d   1     -50.925  25.742  33.616  0.00  0.00     0.281 C 
ATOM      8  O   UNL d   1     -50.330  25.565  33.307  0.00  0.00    -0.265 OA
BRANCH   7   9
ATOM      9  C   UNL d   1     -51.496  25.160  33.538  0.00  0.00     0.058 A 
ATOM     10  C   UNL d   1     -51.277  24.366  33.564  0.00  0.00     0.006 A 
ATOM     11  C   UNL d   1     -51.859  23.779  33.485  0.00  0.00     0.012 A 
ATOM     12  C   UNL d   1     -52.654  24.002  33.381  0.00  0.00     0.058 A 
ATOM     13  C   UNL d   1     -52.852  24.803  33.358  0.00  0.00     0.012 A 
ATOM     14 CL   UNL d   1     -53.197  23.314  33.306  0.00  0.00    -0.082 Cl
ATOM     15  C   UNL d   1     -52.272  25.377  33.436  0.00  0.00     0.006 A 
ENDBRANCH   7   9
ENDBRANCH   1   6
BRANCH   3  16
ATOM     16  S   UNL d   1     -48.546  28.364  34.832  0.00  0.00    -0.059 SA
BRANCH  16  17
ATOM     17  C   UNL d   1     -48.417  28.997  34.463  0.00  0.00     0.037 C 
BRANCH  17  18
ATOM     18  C   UNL d   1     -48.058  29.626  34.840  0.00  0.00     0.007 A 
ATOM     19  C   UNL d   1     -48.169  30.396  34.583  0.00  0.00     0.001 A 
ATOM     20  C   UNL d   1     -47.804  31.033  34.965  0.00  0.00     0.007 A 
ATOM     21  C   UNL d   1     -47.318  30.885  35.619  0.00  0.00     0.035 A 
ATOM     22  C   UNL d   1     -47.199  30.095  35.888  0.00  0.00     0.007 A 
ATOM     23 BR   UNL d   1     -46.854  31.646  36.111  0.00  0.00    -0.049 Br
ATOM     24  C   UNL d   1     -47.583  29.480  35.477  0.00  0.00     0.001 A 
ENDBRANCH  17  18
ENDBRANCH  16  17
ENDBRANCH   3  16
TORSDOF 5
ENDMDL
