MODEL 1
REMARK VINA RESULT:      -4.9      0.000      0.000
REMARK  4 active torsions:
REMARK  status: ('A' for Active; 'I' for Inactive)
REMARK    1  A    between atoms: C_14  and  N_1 
REMARK    2  A    between atoms: S_12  and  C_2 
REMARK    3  A    between atoms: C_9  and  C_17 
REMARK    4  A    between atoms: C_17  and  S_12 
ROOT
ATOM      1  S   UNL d   1      58.542  -0.398  29.973  0.00  0.00    -0.045 SA
ENDROOT
BRANCH   1   2
ATOM      2  C   UNL d   1      59.083  -0.151  29.408  0.00  0.00     0.219 A 
ATOM      3  N   UNL d   1      59.530  -0.640  28.935  0.00  0.00    -0.186 N 
ATOM      4  N   UNL d   1      59.992  -0.172  28.455  0.00  0.00    -0.038 NA
ATOM      5  N   UNL d   1      59.832   0.612  28.630  0.00  0.00    -0.022 NA
ATOM      6  N   UNL d   1      59.261   0.622  29.229  0.00  0.00    -0.101 NA
BRANCH   3   7
ATOM      7  C   UNL d   1      59.518  -1.462  28.939  0.00  0.00     0.087 A 
ATOM      8  C   UNL d   1      60.095  -1.880  29.350  0.00  0.00     0.019 A 
ATOM      9  C   UNL d   1      60.083  -2.699  29.354  0.00  0.00     0.002 A 
ATOM     10  C   UNL d   1      59.493  -3.107  28.948  0.00  0.00     0.000 A 
ATOM     11  C   UNL d   1      58.917  -2.688  28.538  0.00  0.00     0.002 A 
ATOM     12  C   UNL d   1      58.929  -1.866  28.533  0.00  0.00     0.019 A 
ENDBRANCH   3   7
ENDBRANCH   1   2
BRANCH   1  13
ATOM     13  C   UNL d   1      58.033   0.135  30.289  0.00  0.00     0.059 C 
BRANCH  13  14
ATOM     14  C   UNL d   1      57.612  -0.063  30.957  0.00  0.00     0.107 A 
ATOM     15  N   UNL d   1      57.058  -0.687  31.008  0.00  0.00    -0.226 NA
ATOM     16  C   UNL d   1      56.758  -0.686  31.811  0.00  0.00     0.148 A 
ATOM     17  C   UNL d   1      56.192  -1.178  32.192  0.00  0.00     0.037 A 
ATOM     18  N   UNL d   1      57.133  -0.065  32.231  0.00  0.00    -0.289 N 
ATOM     19  C   UNL d   1      56.012  -1.037  32.996  0.00  0.00     0.005 A 
ATOM     20  C   UNL d   1      56.387  -0.416  33.416  0.00  0.00     0.018 A 
ATOM     21  C   UNL d   1      56.945   0.068  33.034  0.00  0.00     0.066 A 
ATOM     22  C   UNL d   1      57.316   0.682  33.449  0.00  0.00     0.019 C 
ATOM     23  C   UNL d   1      57.669   0.325  31.692  0.00  0.00     0.101 A 
ENDBRANCH  13  14
ENDBRANCH   1  13
TORSDOF 4
ENDMDL
