MODEL 1
REMARK VINA RESULT:     -10.7      0.000      0.000
REMARK  3 active torsions:
REMARK  status: ('A' for Active; 'I' for Inactive)
REMARK    1  A    between atoms: C_7  and  N_1 
REMARK    2  A    between atoms: C_8  and  C_2 
REMARK    3  A    between atoms: N_4  and  C_9 
ROOT
ATOM      1  N   UNL d   1      52.776  31.730  53.064  0.00  0.00    -0.211 N 
ATOM      2  C   UNL d   1      53.487  31.609  53.471  0.00  0.00     0.105 A 
ATOM      3  N   UNL d   1      52.578  31.020  52.680  0.00  0.00    -0.060 NA
ATOM      4  N   UNL d   1      53.166  30.464  52.850  0.00  0.00    -0.127 NA
ATOM      5  C   UNL d   1      53.724  30.833  53.338  0.00  0.00     0.143 A 
ENDROOT
BRANCH   1   6
ATOM      6  C   UNL d   1      52.341  32.429  53.043  0.00  0.00     0.085 A 
ATOM      7  C   UNL d   1      51.712  32.539  53.565  0.00  0.00     0.021 A 
ATOM      8  C   UNL d   1      51.274  33.236  53.548  0.00  0.00     0.025 A 
ATOM      9  C   UNL d   1      51.467  33.827  53.002  0.00  0.00     0.127 A 
ATOM     10  C   UNL d   1      52.094  33.721  52.480  0.00  0.00     0.025 A 
ATOM     11  C   UNL d   1      52.532  33.022  52.499  0.00  0.00     0.021 A 
BRANCH   9  12
ATOM     12  N   UNL d   1      51.026  34.527  52.985  0.00  0.00    -0.114 N 
ATOM     13  O   UNL d   1      50.287  34.535  52.618  0.00  0.00    -0.532 OA
ATOM     14  O   UNL d   1      51.321  35.207  53.330  0.00  0.00    -0.532 OA
ENDBRANCH   9  12
ENDBRANCH   1   6
BRANCH   2  15
ATOM     15  C   UNL d   1      53.885  32.169  53.927  0.00  0.00     0.019 A 
ATOM     16  C   UNL d   1      54.457  32.653  53.580  0.00  0.00     0.002 A 
ATOM     17  C   UNL d   1      54.855  33.211  54.032  0.00  0.00     0.011 A 
ATOM     18  C   UNL d   1      54.684  33.292  54.843  0.00  0.00     0.058 A 
ATOM     19  C   UNL d   1      54.107  32.804  55.191  0.00  0.00     0.011 A 
ATOM     20 CL   UNL d   1      55.082  33.849  55.293  0.00  0.00    -0.082 Cl
ATOM     21  C   UNL d   1      53.710  32.246  54.737  0.00  0.00     0.002 A 
ENDBRANCH   2  15
TORSDOF 3
ENDMDL
MODEL 2
REMARK VINA RESULT:     -10.2      2.026      3.093
REMARK  3 active torsions:
REMARK  status: ('A' for Active; 'I' for Inactive)
REMARK    1  A    between atoms: C_7  and  N_1 
REMARK    2  A    between atoms: C_8  and  C_2 
REMARK    3  A    between atoms: N_4  and  C_9 
ROOT
ATOM      1  N   UNL d   1      53.422  31.599  53.516  0.00  0.00    -0.211 N 
ATOM      2  C   UNL d   1      52.714  31.701  53.101  0.00  0.00     0.105 A 
ATOM      3  N   UNL d   1      53.654  30.806  53.435  0.00  0.00    -0.060 NA
ATOM      4  N   UNL d   1      53.090  30.419  52.970  0.00  0.00    -0.127 NA
ATOM      5  C   UNL d   1      52.512  30.976  52.768  0.00  0.00     0.143 A 
ENDROOT
BRANCH   1   6
ATOM      6  C   UNL d   1      53.827  32.181  53.936  0.00  0.00     0.085 A 
ATOM      7  C   UNL d   1      53.671  32.294  54.738  0.00  0.00     0.021 A 
ATOM      8  C   UNL d   1      54.073  32.875  55.162  0.00  0.00     0.025 A 
ATOM      9  C   UNL d   1      54.637  33.344  54.780  0.00  0.00     0.127 A 
ATOM     10  C   UNL d   1      54.795  33.234  53.980  0.00  0.00     0.025 A 
ATOM     11  C   UNL d   1      54.391  32.652  53.557  0.00  0.00     0.021 A 
BRANCH   9  12
ATOM     12  N   UNL d   1      55.041  33.927  55.207  0.00  0.00    -0.114 N 
ATOM     13  O   UNL d   1      54.614  34.482  55.643  0.00  0.00    -0.532 OA
ATOM     14  O   UNL d   1      55.857  33.952  55.196  0.00  0.00    -0.532 OA
ENDBRANCH   9  12
ENDBRANCH   1   6
BRANCH   2  15
ATOM     15  C   UNL d   1      52.287  32.404  53.035  0.00  0.00     0.019 A 
ATOM     16  C   UNL d   1      52.490  32.955  52.455  0.00  0.00     0.002 A 
ATOM     17  C   UNL d   1      52.067  33.656  52.387  0.00  0.00     0.011 A 
ATOM     18  C   UNL d   1      51.432  33.813  52.902  0.00  0.00     0.058 A 
ATOM     19  C   UNL d   1      51.229  33.256  53.486  0.00  0.00     0.011 A 
ATOM     20 CL   UNL d   1      51.010  34.513  52.833  0.00  0.00    -0.082 Cl
ATOM     21  C   UNL d   1      51.654  32.556  53.552  0.00  0.00     0.002 A 
ENDBRANCH   2  15
TORSDOF 3
ENDMDL
MODEL 3
REMARK VINA RESULT:      -9.9      1.819      2.519
REMARK  3 active torsions:
REMARK  status: ('A' for Active; 'I' for Inactive)
REMARK    1  A    between atoms: C_7  and  N_1 
REMARK    2  A    between atoms: C_8  and  C_2 
REMARK    3  A    between atoms: N_4  and  C_9 
ROOT
ATOM      1  N   UNL d   1      53.716  34.051  54.471  0.00  0.00    -0.211 N 
ATOM      2  C   UNL d   1      54.165  33.367  54.590  0.00  0.00     0.105 A 
ATOM      3  N   UNL d   1      54.054  34.661  54.923  0.00  0.00    -0.060 NA
ATOM      4  N   UNL d   1      54.710  34.353  55.320  0.00  0.00    -0.127 NA
ATOM      5  C   UNL d   1      54.774  33.554  55.111  0.00  0.00     0.143 A 
ENDROOT
BRANCH   1   6
ATOM      6  C   UNL d   1      53.051  34.119  53.989  0.00  0.00     0.085 A 
ATOM      7  C   UNL d   1      53.129  34.396  53.216  0.00  0.00     0.021 A 
ATOM      8  C   UNL d   1      52.467  34.465  52.730  0.00  0.00     0.025 A 
ATOM      9  C   UNL d   1      51.721  34.254  53.022  0.00  0.00     0.127 A 
ATOM     10  C   UNL d   1      51.641  33.977  53.793  0.00  0.00     0.025 A 
ATOM     11  C   UNL d   1      52.304  33.909  54.277  0.00  0.00     0.021 A 
BRANCH   9  12
ATOM     12  N   UNL d   1      51.057  34.324  52.534  0.00  0.00    -0.114 N 
ATOM     13  O   UNL d   1      50.323  34.504  52.866  0.00  0.00    -0.532 OA
ATOM     14  O   UNL d   1      51.127  34.214  51.728  0.00  0.00    -0.532 OA
ENDBRANCH   9  12
ENDBRANCH   1   6
BRANCH   2  15
ATOM     15  C   UNL d   1      54.026  32.630  54.248  0.00  0.00     0.019 A 
ATOM     16  C   UNL d   1      53.568  32.071  54.646  0.00  0.00     0.002 A 
ATOM     17  C   UNL d   1      53.428  31.336  54.307  0.00  0.00     0.011 A 
ATOM     18  C   UNL d   1      53.747  31.151  53.561  0.00  0.00     0.058 A 
ATOM     19  C   UNL d   1      54.208  31.717  53.161  0.00  0.00     0.011 A 
ATOM     20 CL   UNL d   1      53.607  30.417  53.224  0.00  0.00    -0.082 Cl
ATOM     21  C   UNL d   1      54.347  32.451  53.502  0.00  0.00     0.002 A 
ENDBRANCH   2  15
TORSDOF 3
ENDMDL
MODEL 4
REMARK VINA RESULT:      -9.4      2.540      3.680
REMARK  3 active torsions:
REMARK  status: ('A' for Active; 'I' for Inactive)
REMARK    1  A    between atoms: C_7  and  N_1 
REMARK    2  A    between atoms: C_8  and  C_2 
REMARK    3  A    between atoms: N_4  and  C_9 
ROOT
ATOM      1  N   UNL d   1      53.602  33.704  54.388  0.00  0.00    -0.211 N 
ATOM      2  C   UNL d   1      53.085  34.317  54.183  0.00  0.00     0.105 A 
ATOM      3  N   UNL d   1      54.131  33.997  54.959  0.00  0.00    -0.060 NA
ATOM      4  N   UNL d   1      53.939  34.788  55.105  0.00  0.00    -0.127 NA
ATOM      5  C   UNL d   1      53.294  34.980  54.624  0.00  0.00     0.143 A 
ENDROOT
BRANCH   1   6
ATOM      6  C   UNL d   1      53.596  32.940  54.083  0.00  0.00     0.085 A 
ATOM      7  C   UNL d   1      53.159  32.349  54.458  0.00  0.00     0.021 A 
ATOM      8  C   UNL d   1      53.150  31.583  54.155  0.00  0.00     0.025 A 
ATOM      9  C   UNL d   1      53.582  31.407  53.472  0.00  0.00     0.127 A 
ATOM     10  C   UNL d   1      54.019  31.994  53.095  0.00  0.00     0.025 A 
ATOM     11  C   UNL d   1      54.027  32.760  53.399  0.00  0.00     0.021 A 
BRANCH   9  12
ATOM     12  N   UNL d   1      53.572  30.637  53.169  0.00  0.00    -0.114 N 
ATOM     13  O   UNL d   1      53.099  30.462  52.515  0.00  0.00    -0.532 OA
ATOM     14  O   UNL d   1      54.027  30.054  53.515  0.00  0.00    -0.532 OA
ENDBRANCH   9  12
ENDBRANCH   1   6
BRANCH   2  15
ATOM     15  C   UNL d   1      52.471  34.269  53.634  0.00  0.00     0.019 A 
ATOM     16  C   UNL d   1      52.603  34.485  52.849  0.00  0.00     0.002 A 
ATOM     17  C   UNL d   1      51.994  34.438  52.301  0.00  0.00     0.011 A 
ATOM     18  C   UNL d   1      51.240  34.174  52.534  0.00  0.00     0.058 A 
ATOM     19  C   UNL d   1      51.109  33.958  53.327  0.00  0.00     0.011 A 
ATOM     20 CL   UNL d   1      50.632  34.128  51.986  0.00  0.00    -0.082 Cl
ATOM     21  C   UNL d   1      51.720  34.005  53.873  0.00  0.00     0.002 A 
ENDBRANCH   2  15
TORSDOF 3
ENDMDL
MODEL 5
REMARK VINA RESULT:      -9.0      2.088      2.988
REMARK  3 active torsions:
REMARK  status: ('A' for Active; 'I' for Inactive)
REMARK    1  A    between atoms: C_7  and  N_1 
REMARK    2  A    between atoms: C_8  and  C_2 
REMARK    3  A    between atoms: N_4  and  C_9 
ROOT
ATOM      1  N   UNL d   1      52.326  32.901  52.823  0.00  0.00    -0.211 N 
ATOM      2  C   UNL d   1      52.696  33.547  53.181  0.00  0.00     0.105 A 
ATOM      3  N   UNL d   1      51.780  33.194  52.269  0.00  0.00    -0.060 NA
ATOM      4  N   UNL d   1      51.814  34.020  52.288  0.00  0.00    -0.127 NA
ATOM      5  C   UNL d   1      52.381  34.232  52.852  0.00  0.00     0.143 A 
ENDROOT
BRANCH   1   6
ATOM      6  C   UNL d   1      52.472  32.106  52.984  0.00  0.00     0.085 A 
ATOM      7  C   UNL d   1      51.998  31.702  53.524  0.00  0.00     0.021 A 
ATOM      8  C   UNL d   1      52.140  30.907  53.689  0.00  0.00     0.025 A 
ATOM      9  C   UNL d   1      52.762  30.515  53.308  0.00  0.00     0.127 A 
ATOM     10  C   UNL d   1      53.237  30.916  52.768  0.00  0.00     0.025 A 
ATOM     11  C   UNL d   1      53.093  31.711  52.605  0.00  0.00     0.021 A 
BRANCH   9  12
ATOM     12  N   UNL d   1      52.904  29.717  53.474  0.00  0.00    -0.114 N 
ATOM     13  O   UNL d   1      53.472  29.512  54.036  0.00  0.00    -0.532 OA
ATOM     14  O   UNL d   1      52.484  29.135  53.083  0.00  0.00    -0.532 OA
ENDBRANCH   9  12
ENDBRANCH   1   6
BRANCH   2  15
ATOM     15  C   UNL d   1      53.278  33.511  53.765  0.00  0.00     0.019 A 
ATOM     16  C   UNL d   1      53.067  33.560  54.561  0.00  0.00     0.002 A 
ATOM     17  C   UNL d   1      53.644  33.524  55.144  0.00  0.00     0.011 A 
ATOM     18  C   UNL d   1      54.445  33.437  54.935  0.00  0.00     0.058 A 
ATOM     19  C   UNL d   1      54.656  33.387  54.132  0.00  0.00     0.011 A 
ATOM     20 CL   UNL d   1      55.020  33.401  55.518  0.00  0.00    -0.082 Cl
ATOM     21  C   UNL d   1      54.077  33.424  53.551  0.00  0.00     0.002 A 
ENDBRANCH   2  15
TORSDOF 3
ENDMDL
MODEL 6
REMARK VINA RESULT:      -7.9      2.384      3.361
REMARK  3 active torsions:
REMARK  status: ('A' for Active; 'I' for Inactive)
REMARK    1  A    between atoms: C_7  and  N_1 
REMARK    2  A    between atoms: C_8  and  C_2 
REMARK    3  A    between atoms: N_4  and  C_9 
ROOT
ATOM      1  N   UNL d   1      52.482  33.778  53.173  0.00  0.00    -0.211 N 
ATOM      2  C   UNL d   1      52.115  33.136  52.803  0.00  0.00     0.105 A 
ATOM      3  N   UNL d   1      52.126  34.474  52.890  0.00  0.00    -0.060 NA
ATOM      4  N   UNL d   1      51.541  34.260  52.347  0.00  0.00    -0.127 NA
ATOM      5  C   UNL d   1      51.538  33.433  52.297  0.00  0.00     0.143 A 
ENDROOT
BRANCH   1   6
ATOM      6  C   UNL d   1      53.093  33.738  53.724  0.00  0.00     0.085 A 
ATOM      7  C   UNL d   1      52.921  33.738  54.530  0.00  0.00     0.021 A 
ATOM      8  C   UNL d   1      53.528  33.698  55.086  0.00  0.00     0.025 A 
ATOM      9  C   UNL d   1      54.314  33.657  54.830  0.00  0.00     0.127 A 
ATOM     10  C   UNL d   1      54.490  33.657  54.026  0.00  0.00     0.025 A 
ATOM     11  C   UNL d   1      53.880  33.697  53.472  0.00  0.00     0.021 A 
BRANCH   9  12
ATOM     12  N   UNL d   1      54.924  33.617  55.388  0.00  0.00    -0.114 N 
ATOM     13  O   UNL d   1      54.839  33.131  56.050  0.00  0.00    -0.532 OA
ATOM     14  O   UNL d   1      55.605  34.056  55.285  0.00  0.00    -0.532 OA
ENDBRANCH   9  12
ENDBRANCH   1   6
BRANCH   2  15
ATOM     15  C   UNL d   1      52.296  32.340  52.922  0.00  0.00     0.019 A 
ATOM     16  C   UNL d   1      52.933  31.999  52.523  0.00  0.00     0.002 A 
ATOM     17  C   UNL d   1      53.116  31.207  52.640  0.00  0.00     0.011 A 
ATOM     18  C   UNL d   1      52.659  30.744  53.159  0.00  0.00     0.058 A 
ATOM     19  C   UNL d   1      52.017  31.090  53.560  0.00  0.00     0.011 A 
ATOM     20 CL   UNL d   1      52.842  29.953  53.275  0.00  0.00    -0.082 Cl
ATOM     21  C   UNL d   1      51.837  31.882  53.442  0.00  0.00     0.002 A 
ENDBRANCH   2  15
TORSDOF 3
ENDMDL
