MODEL 1
REMARK VINA RESULT:      -9.4      0.000      0.000
REMARK  5 active torsions:
REMARK  status: ('A' for Active; 'I' for Inactive)
REMARK    1  A    between atoms: C_10  and  C_1 
REMARK    2  A    between atoms: C_16  and  C_2 
REMARK    3  A    between atoms: C_7  and  C_14 
REMARK    4  A    between atoms: C_13  and  C_10 
REMARK    5  A    between atoms: C_14  and  C_13 
ROOT
ATOM      1  C   UNL d   1      52.188  33.529  53.028  0.00  0.00     0.097 A 
ATOM      2  C   UNL d   1      52.731  33.723  53.648  0.00  0.00     0.009 A 
ATOM      3  C   UNL d   1      52.105  32.752  52.779  0.00  0.00     0.282 A 
ATOM      4  C   UNL d   1      53.157  33.121  53.978  0.00  0.00     0.019 A 
ATOM      5  N   UNL d   1      52.563  32.137  53.139  0.00  0.00    -0.208 NA
ATOM      6  C   UNL d   1      53.075  32.345  53.729  0.00  0.00     0.085 A 
ATOM      7  C   UNL d   1      53.693  33.319  54.591  0.00  0.00     0.013 A 
ATOM      8  C   UNL d   1      53.525  31.733  54.082  0.00  0.00     0.020 A 
ATOM      9  O   UNL d   1      51.568  32.554  52.165  0.00  0.00    -0.265 OA
ATOM     10  C   UNL d   1      54.151  32.704  54.951  0.00  0.00     0.058 A 
ATOM     11  C   UNL d   1      54.068  31.927  54.702  0.00  0.00     0.013 A 
ATOM     12 CL   UNL d   1      54.687  32.902  55.565  0.00  0.00    -0.082 Cl
ENDROOT
BRANCH   1  13
ATOM     13  C   UNL d   1      51.736  34.141  52.673  0.00  0.00     0.200 C 
ATOM     14  O   UNL d   1      52.088  34.659  52.090  0.00  0.00    -0.286 OA
BRANCH  13  15
ATOM     15  C   UNL d   1      50.950  34.256  52.876  0.00  0.00     0.045 C 
BRANCH  15  16
ATOM     16  C   UNL d   1      50.344  34.406  52.319  0.00  0.00     0.042 C 
BRANCH  16  17
ATOM     17  C   UNL d   1      49.658  34.840  52.525  0.00  0.00     0.163 A 
ATOM     18  N   UNL d   1      49.447  35.225  53.210  0.00  0.00    -0.225 NA
ATOM     19  C   UNL d   1      48.706  35.551  53.079  0.00  0.00     0.101 A 
ATOM     20  C   UNL d   1      48.228  35.997  53.578  0.00  0.00     0.021 A 
ATOM     21  C   UNL d   1      48.465  35.377  52.345  0.00  0.00     0.101 A 
ATOM     22  C   UNL d   1      47.481  36.263  53.292  0.00  0.00     0.002 A 
ATOM     23  C   UNL d   1      47.262  36.065  52.528  0.00  0.00     0.002 A 
ATOM     24  C   UNL d   1      47.776  35.617  52.069  0.00  0.00     0.021 A 
ATOM     25  N   UNL d   1      49.069  34.911  51.957  0.00  0.00    -0.225 NA
ENDBRANCH  16  17
ENDBRANCH  15  16
ENDBRANCH  13  15
ENDBRANCH   1  13
BRANCH   2  26
ATOM     26  C   UNL d   1      52.816  34.534  53.907  0.00  0.00     0.000 A 
ATOM     27  C   UNL d   1      53.337  35.018  53.487  0.00  0.00     0.000 A 
ATOM     28  C   UNL d   1      53.449  35.801  53.703  0.00  0.00     0.000 A 
ATOM     29  C   UNL d   1      52.980  36.079  54.402  0.00  0.00     0.000 A 
ATOM     30  C   UNL d   1      52.489  35.594  54.787  0.00  0.00     0.000 A 
ATOM     31  C   UNL d   1      52.403  34.784  54.527  0.00  0.00     0.000 A 
ENDBRANCH   2  26
TORSDOF 5
ENDMDL
MODEL 2
REMARK VINA RESULT:      -8.8      0.969      2.070
REMARK  5 active torsions:
REMARK  status: ('A' for Active; 'I' for Inactive)
REMARK    1  A    between atoms: C_10  and  C_1 
REMARK    2  A    between atoms: C_16  and  C_2 
REMARK    3  A    between atoms: C_7  and  C_14 
REMARK    4  A    between atoms: C_13  and  C_10 
REMARK    5  A    between atoms: C_14  and  C_13 
ROOT
ATOM      1  C   UNL d   1      52.419  34.114  53.279  0.00  0.00     0.097 A 
ATOM      2  C   UNL d   1      52.754  33.432  53.652  0.00  0.00     0.009 A 
ATOM      3  C   UNL d   1      52.641  34.866  53.517  0.00  0.00     0.282 A 
ATOM      4  C   UNL d   1      53.292  33.552  54.243  0.00  0.00     0.019 A 
ATOM      5  N   UNL d   1      53.206  34.968  54.138  0.00  0.00    -0.208 NA
ATOM      6  C   UNL d   1      53.513  34.304  54.481  0.00  0.00     0.085 A 
ATOM      7  C   UNL d   1      53.620  32.874  54.610  0.00  0.00     0.013 A 
ATOM      8  C   UNL d   1      54.073  34.410  55.096  0.00  0.00     0.020 A 
ATOM      9  O   UNL d   1      52.311  35.545  53.149  0.00  0.00    -0.265 OA
ATOM     10  C   UNL d   1      54.186  32.976  55.232  0.00  0.00     0.058 A 
ATOM     11  C   UNL d   1      54.408  33.728  55.470  0.00  0.00     0.013 A 
ATOM     12 CL   UNL d   1      54.515  32.297  55.599  0.00  0.00    -0.082 Cl
ENDROOT
BRANCH   1  13
ATOM     13  C   UNL d   1      51.859  34.008  52.663  0.00  0.00     0.200 C 
ATOM     14  O   UNL d   1      52.103  33.717  51.896  0.00  0.00    -0.286 OA
BRANCH  13  15
ATOM     15  C   UNL d   1      51.065  34.180  52.781  0.00  0.00     0.045 C 
BRANCH  15  16
ATOM     16  C   UNL d   1      50.505  34.233  52.162  0.00  0.00     0.042 C 
BRANCH  16  17
ATOM     17  C   UNL d   1      49.778  34.638  52.262  0.00  0.00     0.163 A 
ATOM     18  N   UNL d   1      49.457  35.020  52.906  0.00  0.00    -0.225 NA
ATOM     19  C   UNL d   1      48.728  35.311  52.666  0.00  0.00     0.101 A 
ATOM     20  C   UNL d   1      48.166  35.741  53.087  0.00  0.00     0.021 A 
ATOM     21  C   UNL d   1      48.601  35.121  51.909  0.00  0.00     0.101 A 
ATOM     22  C   UNL d   1      47.457  35.970  52.694  0.00  0.00     0.002 A 
ATOM     23  C   UNL d   1      47.357  35.757  51.910  0.00  0.00     0.002 A 
ATOM     24  C   UNL d   1      47.949  35.328  51.535  0.00  0.00     0.021 A 
ATOM     25  N   UNL d   1      49.273  34.678  51.616  0.00  0.00    -0.225 NA
ENDBRANCH  16  17
ENDBRANCH  15  16
ENDBRANCH  13  15
ENDBRANCH   1  13
BRANCH   2  26
ATOM     26  C   UNL d   1      52.522  32.646  53.404  0.00  0.00     0.000 A 
ATOM     27  C   UNL d   1      53.007  32.258  52.860  0.00  0.00     0.000 A 
ATOM     28  C   UNL d   1      52.822  31.504  52.596  0.00  0.00     0.000 A 
ATOM     29  C   UNL d   1      52.082  31.150  52.931  0.00  0.00     0.000 A 
ATOM     30  C   UNL d   1      51.636  31.544  53.451  0.00  0.00     0.000 A 
ATOM     31  C   UNL d   1      51.867  32.329  53.699  0.00  0.00     0.000 A 
ENDBRANCH   2  26
TORSDOF 5
ENDMDL
MODEL 3
REMARK VINA RESULT:      -7.2      1.506      2.200
REMARK  5 active torsions:
REMARK  status: ('A' for Active; 'I' for Inactive)
REMARK    1  A    between atoms: C_10  and  C_1 
REMARK    2  A    between atoms: C_16  and  C_2 
REMARK    3  A    between atoms: C_7  and  C_14 
REMARK    4  A    between atoms: C_13  and  C_10 
REMARK    5  A    between atoms: C_14  and  C_13 
ROOT
ATOM      1  C   UNL d   1      52.858  32.055  52.995  0.00  0.00     0.097 A 
ATOM      2  C   UNL d   1      53.295  31.733  53.645  0.00  0.00     0.009 A 
ATOM      3  C   UNL d   1      52.434  31.561  52.497  0.00  0.00     0.282 A 
ATOM      4  C   UNL d   1      53.278  30.933  53.751  0.00  0.00     0.019 A 
ATOM      5  N   UNL d   1      52.430  30.725  52.627  0.00  0.00    -0.208 NA
ATOM      6  C   UNL d   1      52.854  30.438  53.252  0.00  0.00     0.085 A 
ATOM      7  C   UNL d   1      53.712  30.619  54.395  0.00  0.00     0.013 A 
ATOM      8  C   UNL d   1      52.847  29.610  53.377  0.00  0.00     0.020 A 
ATOM      9  O   UNL d   1      52.000  31.876  51.852  0.00  0.00    -0.265 OA
ATOM     10  C   UNL d   1      53.708  29.782  54.526  0.00  0.00     0.058 A 
ATOM     11  C   UNL d   1      53.284  29.288  54.027  0.00  0.00     0.013 A 
ATOM     12 CL   UNL d   1      54.142  29.467  55.170  0.00  0.00    -0.082 Cl
ENDROOT
BRANCH   1  13
ATOM     13  C   UNL d   1      52.865  32.885  52.870  0.00  0.00     0.200 C 
ATOM     14  O   UNL d   1      53.553  33.269  52.536  0.00  0.00    -0.286 OA
BRANCH  13  15
ATOM     15  C   UNL d   1      52.215  33.346  53.063  0.00  0.00     0.045 C 
BRANCH  15  16
ATOM     16  C   UNL d   1      51.972  34.014  52.623  0.00  0.00     0.042 C 
BRANCH  16  17
ATOM     17  C   UNL d   1      51.194  34.319  52.682  0.00  0.00     0.163 A 
ATOM     18  N   UNL d   1      50.786  34.640  53.309  0.00  0.00    -0.225 NA
ATOM     19  C   UNL d   1      50.041  34.840  53.027  0.00  0.00     0.101 A 
ATOM     20  C   UNL d   1      49.403  35.182  53.417  0.00  0.00     0.021 A 
ATOM     21  C   UNL d   1      49.988  34.654  52.260  0.00  0.00     0.101 A 
ATOM     22  C   UNL d   1      48.696  35.328  52.983  0.00  0.00     0.002 A 
ATOM     23  C   UNL d   1      48.673  35.123  52.191  0.00  0.00     0.002 A 
ATOM     24  C   UNL d   1      49.339  34.784  51.848  0.00  0.00     0.021 A 
ATOM     25  N   UNL d   1      50.729  34.310  52.005  0.00  0.00    -0.225 NA
ENDBRANCH  16  17
ENDBRANCH  15  16
ENDBRANCH  13  15
ENDBRANCH   1  13
BRANCH   2  26
ATOM     26  C   UNL d   1      53.737  32.249  54.166  0.00  0.00     0.000 A 
ATOM     27  C   UNL d   1      54.494  32.477  53.928  0.00  0.00     0.000 A 
ATOM     28  C   UNL d   1      54.952  32.970  54.397  0.00  0.00     0.000 A 
ATOM     29  C   UNL d   1      54.579  33.231  55.157  0.00  0.00     0.000 A 
ATOM     30  C   UNL d   1      53.852  32.998  55.361  0.00  0.00     0.000 A 
ATOM     31  C   UNL d   1      53.411  32.483  54.841  0.00  0.00     0.000 A 
ENDBRANCH   2  26
TORSDOF 5
ENDMDL
MODEL 4
REMARK VINA RESULT:      -7.2      2.211      5.197
REMARK  5 active torsions:
REMARK  status: ('A' for Active; 'I' for Inactive)
REMARK    1  A    between atoms: C_10  and  C_1 
REMARK    2  A    between atoms: C_16  and  C_2 
REMARK    3  A    between atoms: C_7  and  C_14 
REMARK    4  A    between atoms: C_13  and  C_10 
REMARK    5  A    between atoms: C_14  and  C_13 
ROOT
ATOM      1  C   UNL d   1      53.083  33.071  53.312  0.00  0.00     0.097 A 
ATOM      2  C   UNL d   1      53.306  33.701  53.832  0.00  0.00     0.009 A 
ATOM      3  C   UNL d   1      52.409  33.134  52.850  0.00  0.00     0.282 A 
ATOM      4  C   UNL d   1      52.833  34.356  53.854  0.00  0.00     0.019 A 
ATOM      5  N   UNL d   1      51.928  33.830  52.889  0.00  0.00    -0.208 NA
ATOM      6  C   UNL d   1      52.158  34.419  53.392  0.00  0.00     0.085 A 
ATOM      7  C   UNL d   1      53.057  34.977  54.370  0.00  0.00     0.013 A 
ATOM      8  C   UNL d   1      51.680  35.106  53.428  0.00  0.00     0.020 A 
ATOM      9  O   UNL d   1      52.185  32.512  52.334  0.00  0.00    -0.265 OA
ATOM     10  C   UNL d   1      52.576  35.673  54.409  0.00  0.00     0.058 A 
ATOM     11  C   UNL d   1      51.902  35.736  53.948  0.00  0.00     0.013 A 
ATOM     12 CL   UNL d   1      52.800  36.295  54.926  0.00  0.00    -0.082 Cl
ENDROOT
BRANCH   1  13
ATOM     13  C   UNL d   1      53.562  32.383  53.277  0.00  0.00     0.200 C 
ATOM     14  O   UNL d   1      54.284  32.378  52.817  0.00  0.00    -0.286 OA
BRANCH  13  15
ATOM     15  C   UNL d   1      53.351  31.701  53.680  0.00  0.00     0.045 C 
BRANCH  15  16
ATOM     16  C   UNL d   1      53.506  30.928  53.398  0.00  0.00     0.042 C 
BRANCH  16  17
ATOM     17  C   UNL d   1      53.456  30.260  53.902  0.00  0.00     0.163 A 
ATOM     18  N   UNL d   1      53.159  30.173  54.654  0.00  0.00    -0.225 NA
ATOM     19  C   UNL d   1      53.265  29.385  54.858  0.00  0.00     0.101 A 
ATOM     20  C   UNL d   1      53.069  28.986  55.551  0.00  0.00     0.021 A 
ATOM     21  C   UNL d   1      53.612  28.999  54.261  0.00  0.00     0.101 A 
ATOM     22  C   UNL d   1      53.245  28.165  55.608  0.00  0.00     0.002 A 
ATOM     23  C   UNL d   1      53.605  27.796  54.972  0.00  0.00     0.002 A 
ATOM     24  C   UNL d   1      53.780  28.239  54.302  0.00  0.00     0.021 A 
ATOM     25  N   UNL d   1      53.750  29.548  53.618  0.00  0.00    -0.225 NA
ENDBRANCH  16  17
ENDBRANCH  15  16
ENDBRANCH  13  15
ENDBRANCH   1  13
BRANCH   2  26
ATOM     26  C   UNL d   1      54.010  33.635  54.314  0.00  0.00     0.000 A 
ATOM     27  C   UNL d   1      53.919  33.373  55.092  0.00  0.00     0.000 A 
ATOM     28  C   UNL d   1      54.567  33.296  55.588  0.00  0.00     0.000 A 
ATOM     29  C   UNL d   1      55.351  33.509  55.232  0.00  0.00     0.000 A 
ATOM     30  C   UNL d   1      55.410  33.757  54.484  0.00  0.00     0.000 A 
ATOM     31  C   UNL d   1      54.706  33.823  54.003  0.00  0.00     0.000 A 
ENDBRANCH   2  26
TORSDOF 5
ENDMDL
MODEL 5
REMARK VINA RESULT:      -6.8      2.374      5.054
REMARK  5 active torsions:
REMARK  status: ('A' for Active; 'I' for Inactive)
REMARK    1  A    between atoms: C_10  and  C_1 
REMARK    2  A    between atoms: C_16  and  C_2 
REMARK    3  A    between atoms: C_7  and  C_14 
REMARK    4  A    between atoms: C_13  and  C_10 
REMARK    5  A    between atoms: C_14  and  C_13 
ROOT
ATOM      1  C   UNL d   1      53.368  33.200  53.493  0.00  0.00     0.097 A 
ATOM      2  C   UNL d   1      52.837  33.848  53.613  0.00  0.00     0.009 A 
ATOM      3  C   UNL d   1      54.121  33.216  53.818  0.00  0.00     0.282 A 
ATOM      4  C   UNL d   1      53.099  34.473  54.054  0.00  0.00     0.019 A 
ATOM      5  N   UNL d   1      54.374  33.882  54.276  0.00  0.00    -0.208 NA
ATOM      6  C   UNL d   1      53.852  34.489  54.379  0.00  0.00     0.085 A 
ATOM      7  C   UNL d   1      52.570  35.112  54.170  0.00  0.00     0.013 A 
ATOM      8  C   UNL d   1      54.107  35.146  54.833  0.00  0.00     0.020 A 
ATOM      9  O   UNL d   1      54.651  32.576  53.701  0.00  0.00    -0.265 OA
ATOM     10  C   UNL d   1      52.823  35.778  54.629  0.00  0.00     0.058 A 
ATOM     11  C   UNL d   1      53.575  35.794  54.954  0.00  0.00     0.013 A 
ATOM     12 CL   UNL d   1      52.293  36.418  54.746  0.00  0.00    -0.082 Cl
ENDROOT
BRANCH   1  13
ATOM     13  C   UNL d   1      53.114  32.543  53.038  0.00  0.00     0.200 C 
ATOM     14  O   UNL d   1      53.116  32.578  52.183  0.00  0.00    -0.286 OA
BRANCH  13  15
ATOM     15  C   UNL d   1      52.857  31.853  53.400  0.00  0.00     0.045 C 
BRANCH  15  16
ATOM     16  C   UNL d   1      53.028  31.086  53.112  0.00  0.00     0.042 C 
BRANCH  16  17
ATOM     17  C   UNL d   1      53.103  30.431  53.629  0.00  0.00     0.163 A 
ATOM     18  N   UNL d   1      52.856  30.317  54.396  0.00  0.00    -0.225 NA
ATOM     19  C   UNL d   1      53.091  29.560  54.609  0.00  0.00     0.101 A 
ATOM     20  C   UNL d   1      52.989  29.154  55.317  0.00  0.00     0.021 A 
ATOM     21  C   UNL d   1      53.467  29.218  54.002  0.00  0.00     0.101 A 
ATOM     22  C   UNL d   1      53.292  28.370  55.380  0.00  0.00     0.002 A 
ATOM     23  C   UNL d   1      53.676  28.046  54.734  0.00  0.00     0.002 A 
ATOM     24  C   UNL d   1      53.752  28.494  54.049  0.00  0.00     0.021 A 
ATOM     25  N   UNL d   1      53.491  29.766  53.345  0.00  0.00    -0.225 NA
ENDBRANCH  16  17
ENDBRANCH  15  16
ENDBRANCH  13  15
ENDBRANCH   1  13
BRANCH   2  26
ATOM     26  C   UNL d   1      52.052  33.831  53.274  0.00  0.00     0.000 A 
ATOM     27  C   UNL d   1      51.954  34.147  52.518  0.00  0.00     0.000 A 
ATOM     28  C   UNL d   1      51.218  34.151  52.156  0.00  0.00     0.000 A 
ATOM     29  C   UNL d   1      50.555  33.799  52.629  0.00  0.00     0.000 A 
ATOM     30  C   UNL d   1      50.677  33.504  53.351  0.00  0.00     0.000 A 
ATOM     31  C   UNL d   1      51.462  33.521  53.690  0.00  0.00     0.000 A 
ENDBRANCH   2  26
TORSDOF 5
ENDMDL
