MODEL 1
REMARK VINA RESULT:      85.3      0.000      0.000
REMARK  4 active torsions:
REMARK  status: ('A' for Active; 'I' for Inactive)
REMARK    1  A    between atoms: N_5  and  C_1 
REMARK    2  A    between atoms: C_8  and  C_2 
REMARK       I    between atoms: C_7  and  N_5 
REMARK    3  A    between atoms: C_10  and  C_7 
REMARK    4  A    between atoms: N_9  and  C_8 
ROOT
ATOM      1  C   UNL d   1      60.481  47.990  50.650  0.00  0.00     0.115 A 
ATOM      2  C   UNL d   1      59.777  48.415  50.625  0.00  0.00     0.042 A 
ATOM      3  S   UNL d   1      61.025  48.423  51.116  0.00  0.00    -0.068 SA
ATOM      4  C   UNL d   1      59.881  49.108  51.072  0.00  0.00     0.009 A 
ATOM      5  C   UNL d   1      60.655  49.098  51.368  0.00  0.00     0.031 A 
ATOM      6  C   UNL d   1      59.322  49.703  51.203  0.00  0.00     0.001 C 
ATOM      7  C   UNL d   1      61.003  49.680  51.845  0.00  0.00     0.007 C 
ENDROOT
BRANCH   1   8
ATOM      8  N   UNL d   1      60.543  47.270  50.252  0.00  0.00    -0.201 NA
ATOM      9  C   UNL d   1      61.160  46.753  50.427  0.00  0.00     0.280 C 
ATOM     10  O   UNL d   1      61.714  46.957  51.001  0.00  0.00    -0.265 OA
BRANCH   9  11
ATOM     11  C   UNL d   1      61.222  46.033  50.029  0.00  0.00     0.058 A 
ATOM     12  C   UNL d   1      61.549  46.007  49.274  0.00  0.00     0.007 A 
ATOM     13  C   UNL d   1      61.612  45.279  48.872  0.00  0.00     0.030 A 
ATOM     14  C   UNL d   1      61.347  44.586  49.228  0.00  0.00     0.140 A 
ATOM     15  C   UNL d   1      61.020  44.613  49.984  0.00  0.00     0.030 A 
ATOM     16  F   UNL d   1      61.410  43.867  48.830  0.00  0.00    -0.204 F 
ATOM     17  C   UNL d   1      60.957  45.340  50.386  0.00  0.00     0.007 A 
ENDBRANCH   9  11
ENDBRANCH   1   8
BRANCH   2  18
ATOM     18  C   UNL d   1      59.082  48.191  50.222  0.00  0.00     0.082 C 
BRANCH  18  19
ATOM     19  N   UNL d   1      58.394  48.641  50.303  0.00  0.00    -0.302 N 
ATOM     20  C   UNL d   1      58.144  48.951  49.580  0.00  0.00     0.080 A 
ATOM     21  C   UNL d   1      57.493  49.422  49.423  0.00  0.00     0.019 A 
ATOM     22  C   UNL d   1      56.923  49.707  49.947  0.00  0.00     0.002 A 
ATOM     23  C   UNL d   1      56.864  49.589  50.761  0.00  0.00     0.002 A 
ATOM     24  C   UNL d   1      57.369  49.153  51.252  0.00  0.00     0.019 A 
ATOM     25  C   UNL d   1      58.046  48.733  51.050  0.00  0.00     0.080 A 
ENDBRANCH  18  19
ENDBRANCH   2  18
TORSDOF 4
ENDMDL
