MODEL 1
REMARK VINA RESULT:      37.5      0.000      0.000
REMARK  4 active torsions:
REMARK  status: ('A' for Active; 'I' for Inactive)
REMARK    1  A    between atoms: C_2  and  S_1 
REMARK    2  A    between atoms: N_5  and  S_1 
REMARK    3  A    between atoms: C_10  and  N_5 
REMARK    4  A    between atoms: C_11  and  C_10 
ROOT
ATOM      1  S   UNL d   1      58.642  49.678  50.579  0.00  0.00     0.291 S 
ATOM      2  O   UNL d   1      58.523  49.657  51.395  0.00  0.00    -0.198 OA
ATOM      3  O   UNL d   1      58.757  49.699  49.762  0.00  0.00    -0.198 OA
ENDROOT
BRANCH   1   4
ATOM      4  C   UNL d   1      57.827  49.650  50.455  0.00  0.00     0.135 A 
ATOM      5  S   UNL d   1      57.443  49.674  49.734  0.00  0.00    -0.074 SA
ATOM      6  C   UNL d   1      56.632  49.632  49.869  0.00  0.00     0.030 A 
ATOM      7  C   UNL d   1      56.034  49.639  49.297  0.00  0.00     0.007 C 
ATOM      8  C   UNL d   1      56.515  49.581  50.684  0.00  0.00     0.008 A 
ATOM      9  C   UNL d   1      57.253  49.592  51.048  0.00  0.00     0.020 A 
ENDBRANCH   1   4
BRANCH   1  10
ATOM     10  N   UNL d   1      59.451  49.706  50.690  0.00  0.00    -0.156 NA
BRANCH  10  11
ATOM     11  C   UNL d   1      59.806  49.230  51.261  0.00  0.00     0.112 C 
BRANCH  11  12
ATOM     12  C   UNL d   1      60.312  48.620  51.034  0.00  0.00     0.020 A 
ATOM     13  C   UNL d   1      60.182  47.849  51.317  0.00  0.00     0.002 A 
ATOM     14  C   UNL d   1      60.688  47.239  51.090  0.00  0.00     0.000 A 
ATOM     15  C   UNL d   1      61.324  47.398  50.581  0.00  0.00     0.000 A 
ATOM     16  C   UNL d   1      61.448  48.166  50.304  0.00  0.00     0.000 A 
ATOM     17  C   UNL d   1      61.831  46.788  50.354  0.00  0.00     0.000 C 
ATOM     18  C   UNL d   1      60.942  48.777  50.530  0.00  0.00     0.002 A 
ENDBRANCH  11  12
ENDBRANCH  10  11
ENDBRANCH   1  10
TORSDOF 4
ENDMDL
