MODEL 1
REMARK VINA RESULT:      49.3      0.000      0.000
REMARK  5 active torsions:
REMARK  status: ('A' for Active; 'I' for Inactive)
REMARK    1  A    between atoms: C_6  and  N_1 
REMARK    2  A    between atoms: C_8  and  C_4 
REMARK    3  A    between atoms: C_13  and  C_8 
REMARK    4  A    between atoms: O_20  and  C_11 
REMARK    5  A    between atoms: O_21  and  C_16 
ROOT
ATOM      1  N   UNL d   1     -51.559  24.818  33.319  0.00  0.00    -0.231 N 
ATOM      2  C   UNL d   1     -50.762  24.596  33.319  0.00  0.00     0.204 A 
ATOM      3  C   UNL d   1     -51.592  25.643  33.321  0.00  0.00     0.274 A 
ATOM      4  C   UNL d   1     -50.814  25.931  33.323  0.00  0.00     0.089 A 
ATOM      5  S   UNL d   1     -50.309  25.281  33.322  0.00  0.00    -0.043 SA
ATOM      6  N   UNL d   1     -50.481  23.818  33.318  0.00  0.00    -0.121 N 
ATOM      7  O   UNL d   1     -52.281  26.103  33.321  0.00  0.00    -0.266 OA
ENDROOT
BRANCH   4   8
ATOM      8  C   UNL d   1     -50.595  26.720  33.326  0.00  0.00     0.011 C 
BRANCH   8   9
ATOM      9  C   UNL d   1     -50.185  27.032  33.967  0.00  0.00     0.003 A 
ATOM     10  C   UNL d   1     -49.613  27.616  33.854  0.00  0.00     0.026 A 
ATOM     11  C   UNL d   1     -49.204  27.927  34.492  0.00  0.00     0.116 A 
ATOM     12  C   UNL d   1     -49.362  27.656  35.263  0.00  0.00     0.116 A 
ATOM     13  C   UNL d   1     -49.938  27.069  35.373  0.00  0.00     0.026 A 
ATOM     14  C   UNL d   1     -50.347  26.758  34.735  0.00  0.00     0.002 A 
BRANCH  11  15
ATOM     15  O   UNL d   1     -48.633  28.511  34.371  0.00  0.00    -0.326 OA
ATOM     16  C   UNL d   1     -48.095  28.694  34.978  0.00  0.00     0.181 C 
ENDBRANCH  11  15
BRANCH  12  17
ATOM     17  O   UNL d   1     -48.958  27.962  35.905  0.00  0.00    -0.326 OA
ATOM     18  C   UNL d   1     -49.306  27.964  36.654  0.00  0.00     0.181 C 
ENDBRANCH  12  17
ENDBRANCH   8   9
ENDBRANCH   4   8
BRANCH   1  19
ATOM     19  C   UNL d   1     -52.210  24.313  33.316  0.00  0.00     0.183 A 
ATOM     20  N   UNL d   1     -52.999  24.532  33.322  0.00  0.00    -0.220 NA
ATOM     21  C   UNL d   1     -53.459  23.850  33.317  0.00  0.00     0.108 A 
ATOM     22  C   UNL d   1     -52.946  23.200  33.307  0.00  0.00     0.059 A 
ATOM     23  S   UNL d   1     -52.178  23.489  33.307  0.00  0.00    -0.048 SA
ENDBRANCH   1  19
TORSDOF 5
ENDMDL
