MODEL 1
REMARK VINA RESULT:      -4.9      0.000      0.000
REMARK  3 active torsions:
REMARK  status: ('A' for Active; 'I' for Inactive)
REMARK    1  A    between atoms: C_4  and  C_1 
REMARK    2  A    between atoms: O_10  and  C_4 
REMARK    3  A    between atoms: C_13  and  O_10 
ROOT
ATOM      1  C   UNL d   1     -41.412-122.411 -53.146  0.00  0.00     0.121 A 
ATOM      2  C   UNL d   1     -41.401-123.054 -52.602  0.00  0.00     0.204 A 
ATOM      3  C   UNL d   1     -41.309-122.900 -51.807  0.00  0.00     0.057 A 
ATOM      4  N   UNL d   1     -41.239-121.513 -52.052  0.00  0.00    -0.244 NA
ATOM      5  C   UNL d   1     -41.331-121.640 -52.870  0.00  0.00     0.107 A 
ATOM      6  C   UNL d   1     -41.228-122.129 -51.532  0.00  0.00     0.085 A 
ATOM      7  O   UNL d   1     -41.481-123.817 -52.875  0.00  0.00    -0.286 OA
ATOM      8  C   UNL d   1     -41.297-123.540 -51.272  0.00  0.00     0.005 A 
ATOM      9  C   UNL d   1     -41.136-121.999 -50.722  0.00  0.00     0.019 A 
ATOM     10  C   UNL d   1     -41.204-123.394 -50.456  0.00  0.00     0.000 A 
ATOM     11  C   UNL d   1     -41.123-122.622 -50.181  0.00  0.00     0.002 A 
ENDROOT
BRANCH   1  12
ATOM     12  C   UNL d   1     -41.506-122.558 -53.959  0.00  0.00     0.305 C 
ATOM     13  O   UNL d   1     -41.132-123.207 -54.311  0.00  0.00    -0.259 OA
BRANCH  12  14
ATOM     14  O   UNL d   1     -41.962-122.067 -54.405  0.00  0.00    -0.271 OA
BRANCH  14  15
ATOM     15  C   UNL d   1     -41.988-122.162 -55.223  0.00  0.00     0.126 C 
ATOM     16  C   UNL d   1     -42.583-121.787 -55.670  0.00  0.00     0.029 C 
ENDBRANCH  14  15
ENDBRANCH  12  14
ENDBRANCH   1  12
TORSDOF 3
ENDMDL
MODEL 2
REMARK VINA RESULT:      -4.8      1.025      1.359
REMARK  3 active torsions:
REMARK  status: ('A' for Active; 'I' for Inactive)
REMARK    1  A    between atoms: C_4  and  C_1 
REMARK    2  A    between atoms: O_10  and  C_4 
REMARK    3  A    between atoms: C_13  and  O_10 
ROOT
ATOM      1  C   UNL d   1     -41.553-122.699 -53.572  0.00  0.00     0.121 A 
ATOM      2  C   UNL d   1     -41.590-122.214 -52.885  0.00  0.00     0.204 A 
ATOM      3  C   UNL d   1     -41.456-122.549 -52.154  0.00  0.00     0.057 A 
ATOM      4  N   UNL d   1     -41.252-123.816 -52.739  0.00  0.00    -0.244 NA
ATOM      5  C   UNL d   1     -41.384-123.501 -53.499  0.00  0.00     0.107 A 
ATOM      6  C   UNL d   1     -41.287-123.351 -52.081  0.00  0.00     0.085 A 
ATOM      7  O   UNL d   1     -41.757-121.420 -52.958  0.00  0.00    -0.286 OA
ATOM      8  C   UNL d   1     -41.493-122.065 -51.476  0.00  0.00     0.005 A 
ATOM      9  C   UNL d   1     -41.156-123.667 -51.330  0.00  0.00     0.019 A 
ATOM     10  C   UNL d   1     -41.358-122.398 -50.724  0.00  0.00     0.000 A 
ATOM     11  C   UNL d   1     -41.189-123.200 -50.650  0.00  0.00     0.002 A 
ENDROOT
BRANCH   1  12
ATOM     12  C   UNL d   1     -41.688-122.366 -54.322  0.00  0.00     0.305 C 
ATOM     13  O   UNL d   1     -41.146-121.829 -54.643  0.00  0.00    -0.259 OA
BRANCH  12  14
ATOM     14  O   UNL d   1     -42.348-122.567 -54.737  0.00  0.00    -0.271 OA
BRANCH  14  15
ATOM     15  C   UNL d   1     -42.469-122.256 -55.490  0.00  0.00     0.126 C 
ATOM     16  C   UNL d   1     -43.170-122.428 -55.906  0.00  0.00     0.029 C 
ENDBRANCH  14  15
ENDBRANCH  12  14
ENDBRANCH   1  12
TORSDOF 3
ENDMDL
MODEL 3
REMARK VINA RESULT:      -4.8      1.337      1.814
REMARK  3 active torsions:
REMARK  status: ('A' for Active; 'I' for Inactive)
REMARK    1  A    between atoms: C_4  and  C_1 
REMARK    2  A    between atoms: O_10  and  C_4 
REMARK    3  A    between atoms: C_13  and  O_10 
ROOT
ATOM      1  C   UNL d   1     -41.515-122.679 -51.946  0.00  0.00     0.121 A 
ATOM      2  C   UNL d   1     -41.911-122.337 -51.287  0.00  0.00     0.204 A 
ATOM      3  C   UNL d   1     -41.900-122.725 -50.571  0.00  0.00     0.057 A 
ATOM      4  N   UNL d   1     -41.128-123.772 -51.116  0.00  0.00    -0.244 NA
ATOM      5  C   UNL d   1     -41.123-123.397 -51.860  0.00  0.00     0.107 A 
ATOM      6  C   UNL d   1     -41.508-123.443 -50.485  0.00  0.00     0.085 A 
ATOM      7  O   UNL d   1     -42.299-121.625 -51.372  0.00  0.00    -0.286 OA
ATOM      8  C   UNL d   1     -42.294-122.382 -49.921  0.00  0.00     0.005 A 
ATOM      9  C   UNL d   1     -41.511-123.817 -49.749  0.00  0.00     0.019 A 
ATOM     10  C   UNL d   1     -42.289-122.771 -49.183  0.00  0.00     0.000 A 
ATOM     11  C   UNL d   1     -41.897-123.490 -49.097  0.00  0.00     0.002 A 
ENDROOT
BRANCH   1  12
ATOM     12  C   UNL d   1     -41.521-122.290 -52.681  0.00  0.00     0.305 C 
ATOM     13  O   UNL d   1     -41.123-121.570 -52.775  0.00  0.00    -0.259 OA
BRANCH  12  14
ATOM     14  O   UNL d   1     -41.915-122.615 -53.303  0.00  0.00    -0.271 OA
BRANCH  14  15
ATOM     15  C   UNL d   1     -41.747-122.366 -54.070  0.00  0.00     0.126 C 
ATOM     16  C   UNL d   1     -42.132-122.720 -54.719  0.00  0.00     0.029 C 
ENDBRANCH  14  15
ENDBRANCH  12  14
ENDBRANCH   1  12
TORSDOF 3
ENDMDL
MODEL 4
REMARK VINA RESULT:      -3.8      2.118      4.120
REMARK  3 active torsions:
REMARK  status: ('A' for Active; 'I' for Inactive)
REMARK    1  A    between atoms: C_4  and  C_1 
REMARK    2  A    between atoms: O_10  and  C_4 
REMARK    3  A    between atoms: C_13  and  O_10 
ROOT
ATOM      1  C   UNL d   1     -42.123-123.033 -50.228  0.00  0.00     0.121 A 
ATOM      2  C   UNL d   1     -42.130-122.388 -50.769  0.00  0.00     0.204 A 
ATOM      3  C   UNL d   1     -41.796-122.484 -51.506  0.00  0.00     0.057 A 
ATOM      4  N   UNL d   1     -41.447-123.817 -51.209  0.00  0.00    -0.244 NA
ATOM      5  C   UNL d   1     -41.781-123.749 -50.449  0.00  0.00     0.107 A 
ATOM      6  C   UNL d   1     -41.455-123.199 -51.727  0.00  0.00     0.085 A 
ATOM      7  O   UNL d   1     -42.468-121.680 -50.551  0.00  0.00    -0.286 OA
ATOM      8  C   UNL d   1     -41.806-121.842 -52.039  0.00  0.00     0.005 A 
ATOM      9  C   UNL d   1     -41.123-123.271 -52.479  0.00  0.00     0.019 A 
ATOM     10  C   UNL d   1     -41.467-121.929 -52.796  0.00  0.00     0.000 A 
ATOM     11  C   UNL d   1     -41.125-122.644 -53.017  0.00  0.00     0.002 A 
ENDROOT
BRANCH   1  12
ATOM     12  C   UNL d   1     -42.461-122.945 -49.474  0.00  0.00     0.305 C 
ATOM     13  O   UNL d   1     -43.283-122.896 -49.388  0.00  0.00    -0.259 OA
BRANCH  12  14
ATOM     14  O   UNL d   1     -41.987-122.908 -48.824  0.00  0.00    -0.271 OA
BRANCH  14  15
ATOM     15  C   UNL d   1     -42.298-123.072 -48.079  0.00  0.00     0.126 C 
ATOM     16  C   UNL d   1     -41.790-123.257 -47.445  0.00  0.00     0.029 C 
ENDBRANCH  14  15
ENDBRANCH  12  14
ENDBRANCH   1  12
TORSDOF 3
ENDMDL
