MODEL 1
REMARK VINA RESULT:      -2.7      0.000      0.000
REMARK  4 active torsions:
REMARK  status: ('A' for Active; 'I' for Inactive)
REMARK    1  A    between atoms: C_3  and  C_1 
REMARK       I    between atoms: N_8  and  C_3 
REMARK    2  A    between atoms: C_10  and  C_7 
REMARK    3  A    between atoms: C_9  and  N_8 
REMARK    4  A    between atoms: O_14  and  C_10 
ROOT
ATOM      1  C   UNL d   1      58.571  -1.005  29.425  0.00  0.00     0.081 A 
ATOM      2  C   UNL d   1      58.216  -0.409  29.867  0.00  0.00     0.090 A 
ATOM      3  C   UNL d   1      58.955  -0.816  28.718  0.00  0.00     0.007 A 
ATOM      4  C   UNL d   1      58.243   0.376  29.607  0.00  0.00     0.019 A 
ATOM      5  C   UNL d   1      58.984  -0.032  28.455  0.00  0.00     0.000 A 
ATOM      6  C   UNL d   1      58.625   0.564  28.905  0.00  0.00     0.002 A 
ENDROOT
BRANCH   2   7
ATOM      7  N   UNL d   1      57.852  -0.659  30.557  0.00  0.00    -0.207 NA
ATOM      8  C   UNL d   1      57.462  -0.110  31.033  0.00  0.00     0.287 C 
ATOM      9  O   UNL d   1      57.441   0.681  30.817  0.00  0.00    -0.265 OA
BRANCH   8  10
ATOM     10  C   UNL d   1      57.092  -0.352  31.730  0.00  0.00     0.108 A 
ATOM     11  C   UNL d   1      57.169   0.003  32.472  0.00  0.00     0.094 A 
ATOM     12  N   UNL d   1      56.702  -0.422  33.004  0.00  0.00    -0.219 NA
ATOM     13  C   UNL d   1      57.628   0.662  32.646  0.00  0.00     0.021 C 
ATOM     14  C   UNL d   1      56.342  -1.032  32.593  0.00  0.00     0.215 A 
ATOM     15  S   UNL d   1      56.582  -0.991  31.807  0.00  0.00    -0.041 SA
ATOM     16  N   UNL d   1      55.826  -1.595  32.909  0.00  0.00    -0.120 N 
ENDBRANCH   8  10
ENDBRANCH   2   7
BRANCH   1  17
ATOM     17  C   UNL d   1      58.544  -1.784  29.684  0.00  0.00     0.297 C 
ATOM     18  O   UNL d   1      58.964  -2.004  30.352  0.00  0.00    -0.259 OA
BRANCH  17  19
ATOM     19  O   UNL d   1      58.098  -2.333  29.274  0.00  0.00    -0.296 OA
ATOM     20  C   UNL d   1      58.378  -3.104  29.184  0.00  0.00     0.185 C 
ENDBRANCH  17  19
ENDBRANCH   1  17
TORSDOF 4
ENDMDL
MODEL 2
REMARK VINA RESULT:      -1.3      1.470      1.999
REMARK  4 active torsions:
REMARK  status: ('A' for Active; 'I' for Inactive)
REMARK    1  A    between atoms: C_3  and  C_1 
REMARK       I    between atoms: N_8  and  C_3 
REMARK    2  A    between atoms: C_10  and  C_7 
REMARK    3  A    between atoms: C_9  and  N_8 
REMARK    4  A    between atoms: O_14  and  C_10 
ROOT
ATOM      1  C   UNL d   1      58.705   0.287  30.096  0.00  0.00     0.081 A 
ATOM      2  C   UNL d   1      57.945   0.425  30.380  0.00  0.00     0.090 A 
ATOM      3  C   UNL d   1      58.854   0.340  29.286  0.00  0.00     0.007 A 
ATOM      4  C   UNL d   1      57.333   0.615  29.858  0.00  0.00     0.019 A 
ATOM      5  C   UNL d   1      58.243   0.530  28.760  0.00  0.00     0.000 A 
ATOM      6  C   UNL d   1      57.480   0.667  29.052  0.00  0.00     0.002 A 
ENDROOT
BRANCH   2   7
ATOM      7  N   UNL d   1      57.861   0.357  31.193  0.00  0.00    -0.207 NA
ATOM      8  C   UNL d   1      57.126   0.164  31.511  0.00  0.00     0.287 C 
ATOM      9  O   UNL d   1      56.483   0.040  31.016  0.00  0.00    -0.265 OA
BRANCH   8  10
ATOM     10  C   UNL d   1      57.031   0.094  32.328  0.00  0.00     0.108 A 
ATOM     11  C   UNL d   1      56.610  -0.498  32.721  0.00  0.00     0.094 A 
ATOM     12  N   UNL d   1      56.663  -0.350  33.531  0.00  0.00    -0.219 NA
ATOM     13  C   UNL d   1      56.211  -1.123  32.366  0.00  0.00     0.021 C 
ATOM     14  C   UNL d   1      57.112   0.327  33.635  0.00  0.00     0.215 A 
ATOM     15  S   UNL d   1      57.341   0.602  32.893  0.00  0.00    -0.041 SA
ATOM     16  N   UNL d   1      57.307   0.678  34.358  0.00  0.00    -0.120 N 
ENDBRANCH   8  10
ENDBRANCH   2   7
BRANCH   1  17
ATOM     17  C   UNL d   1      59.313   0.098  30.616  0.00  0.00     0.297 C 
ATOM     18  O   UNL d   1      59.581  -0.674  30.662  0.00  0.00    -0.259 OA
BRANCH  17  19
ATOM     19  O   UNL d   1      59.644   0.682  31.082  0.00  0.00    -0.296 OA
ATOM     20  C   UNL d   1      60.415   0.593  31.365  0.00  0.00     0.185 C 
ENDBRANCH  17  19
ENDBRANCH   1  17
TORSDOF 4
ENDMDL
MODEL 3
REMARK VINA RESULT:      -0.6      1.702      2.827
REMARK  4 active torsions:
REMARK  status: ('A' for Active; 'I' for Inactive)
REMARK    1  A    between atoms: C_3  and  C_1 
REMARK       I    between atoms: N_8  and  C_3 
REMARK    2  A    between atoms: C_10  and  C_7 
REMARK    3  A    between atoms: C_9  and  N_8 
REMARK    4  A    between atoms: O_14  and  C_10 
ROOT
ATOM      1  C   UNL d   1      59.359  -2.963  28.876  0.00  0.00     0.081 A 
ATOM      2  C   UNL d   1      59.600  -2.185  28.989  0.00  0.00     0.090 A 
ATOM      3  C   UNL d   1      59.908  -3.530  28.635  0.00  0.00     0.007 A 
ATOM      4  C   UNL d   1      60.387  -1.970  28.861  0.00  0.00     0.019 A 
ATOM      5  C   UNL d   1      60.698  -3.318  28.507  0.00  0.00     0.000 A 
ATOM      6  C   UNL d   1      60.935  -2.532  28.622  0.00  0.00     0.002 A 
ENDROOT
BRANCH   2   7
ATOM      7  N   UNL d   1      59.008  -1.670  29.228  0.00  0.00    -0.207 NA
ATOM      8  C   UNL d   1      59.205  -0.903  29.459  0.00  0.00     0.287 C 
ATOM      9  O   UNL d   1      59.988  -0.659  29.449  0.00  0.00    -0.265 OA
BRANCH   8  10
ATOM     10  C   UNL d   1      58.617  -0.378  29.701  0.00  0.00     0.108 A 
ATOM     11  C   UNL d   1      58.270   0.213  29.239  0.00  0.00     0.094 A 
ATOM     12  N   UNL d   1      57.711   0.602  29.706  0.00  0.00    -0.219 NA
ATOM     13  C   UNL d   1      58.451   0.380  28.455  0.00  0.00     0.021 C 
ATOM     14  C   UNL d   1      57.715   0.254  30.447  0.00  0.00     0.215 A 
ATOM     15  S   UNL d   1      58.273  -0.351  30.446  0.00  0.00    -0.041 SA
ATOM     16  N   UNL d   1      57.241   0.470  31.090  0.00  0.00    -0.120 N 
ENDBRANCH   8  10
ENDBRANCH   2   7
BRANCH   1  17
ATOM     17  C   UNL d   1      58.575  -3.176  29.003  0.00  0.00     0.297 C 
ATOM     18  O   UNL d   1      58.190  -2.919  29.678  0.00  0.00    -0.259 OA
BRANCH  17  19
ATOM     19  O   UNL d   1      58.188  -3.643  28.455  0.00  0.00    -0.296 OA
ATOM     20  C   UNL d   1      57.933  -4.399  28.666  0.00  0.00     0.185 C 
ENDBRANCH  17  19
ENDBRANCH   1  17
TORSDOF 4
ENDMDL
