MODEL 1
REMARK VINA RESULT:      27.5      0.000      0.000
REMARK  4 active torsions:
REMARK  status: ('A' for Active; 'I' for Inactive)
REMARK    1  A    between atoms: C_8  and  C_2 
REMARK    2  A    between atoms: O_6  and  C_8 
REMARK    3  A    between atoms: C_7  and  O_6 
REMARK    4  A    between atoms: O_10  and  C_9 
ROOT
ATOM      1  C   UNL d   1     -55.891 -98.886 -44.217  0.00  0.00     0.161 C 
ENDROOT
BRANCH   1   2
ATOM      2  O   UNL d   1     -55.339 -99.318 -44.516  0.00  0.00    -0.300 OA
BRANCH   2   3
ATOM      3  C   UNL d   1     -55.122-100.057 -44.155  0.00  0.00     0.122 A 
ATOM      4  C   UNL d   1     -54.924-100.682 -44.612  0.00  0.00     0.117 A 
ATOM      5  C   UNL d   1     -54.714-101.398 -44.249  0.00  0.00     0.026 A 
ATOM      6  C   UNL d   1     -54.713-101.455 -43.426  0.00  0.00     0.002 A 
ATOM      7  C   UNL d   1     -54.921-100.799 -42.937  0.00  0.00     0.002 A 
ATOM      8  C   UNL d   1     -55.129-100.087 -43.330  0.00  0.00     0.027 A 
BRANCH   4   9
ATOM      9  O   UNL d   1     -54.926-100.625 -45.431  0.00  0.00    -0.326 OA
ATOM     10  C   UNL d   1     -54.762-101.265 -45.889  0.00  0.00     0.181 C 
ENDBRANCH   4   9
ENDBRANCH   2   3
ENDBRANCH   1   2
BRANCH   1  11
ATOM     11  C   UNL d   1     -56.601 -98.849 -44.591  0.00  0.00     0.188 A 
ATOM     12  N   UNL d   1     -57.128 -98.807 -45.222  0.00  0.00    -0.224 NA
ATOM     13  C   UNL d   1     -57.882 -98.798 -44.936  0.00  0.00     0.101 A 
ATOM     14  C   UNL d   1     -57.839 -98.834 -44.113  0.00  0.00     0.101 A 
ATOM     15  C   UNL d   1     -58.615 -98.762 -45.278  0.00  0.00     0.021 A 
ATOM     16  C   UNL d   1     -58.531 -98.833 -43.663  0.00  0.00     0.021 A 
ATOM     17  N   UNL d   1     -57.059 -98.865 -43.906  0.00  0.00    -0.224 NA
ATOM     18  C   UNL d   1     -59.266 -98.796 -44.036  0.00  0.00     0.002 A 
ATOM     19  C   UNL d   1     -59.309 -98.760 -44.859  0.00  0.00     0.002 A 
ENDBRANCH   1  11
TORSDOF 4
ENDMDL
