MODEL 1
REMARK VINA RESULT:      -9.0      0.000      0.000
REMARK  2 active torsions:
REMARK  status: ('A' for Active; 'I' for Inactive)
REMARK    1  A    between atoms: C_7  and  C_1 
REMARK    2  A    between atoms: C_8  and  C_7 
ROOT
ATOM      1  C   UNL d   1      52.270  33.714  53.276  0.00  0.00     0.033 A 
ATOM      2  C   UNL d   1      53.212  33.011  53.897  0.00  0.00     0.100 A 
ATOM      3  C   UNL d   1      52.895  33.765  53.812  0.00  0.00     0.025 A 
ATOM      4  O   UNL d   1      52.785  32.495  53.415  0.00  0.00    -0.305 OA
ATOM      5  C   UNL d   1      52.203  32.934  53.033  0.00  0.00     0.123 A 
ATOM      6  C   UNL d   1      53.215  34.391  54.230  0.00  0.00     0.002 A 
ATOM      7  C   UNL d   1      53.856  32.876  54.405  0.00  0.00     0.025 A 
ATOM      8  C   UNL d   1      53.856  34.269  54.738  0.00  0.00     0.000 A 
ATOM      9  C   UNL d   1      54.177  33.509  54.825  0.00  0.00     0.002 A 
ATOM     10  C   UNL d   1      52.895  35.154  54.145  0.00  0.00     0.000 C 
ATOM     11  C   UNL d   1      54.817  33.387  55.333  0.00  0.00     0.000 C 
ENDROOT
BRANCH   1  12
ATOM     12  C   UNL d   1      51.798  34.343  53.031  0.00  0.00     0.072 C 
BRANCH  12  13
ATOM     13  C   UNL d   1      51.165  34.209  52.515  0.00  0.00     0.211 C 
ATOM     14  O   UNL d   1      50.407  34.053  52.819  0.00  0.00    -0.644 OA
ATOM     15  O   UNL d   1      51.286  34.231  51.699  0.00  0.00    -0.644 OA
ENDBRANCH  12  13
ENDBRANCH   1  12
TORSDOF 2
ENDMDL
MODEL 2
REMARK VINA RESULT:      -8.8      1.204      3.058
REMARK  2 active torsions:
REMARK  status: ('A' for Active; 'I' for Inactive)
REMARK    1  A    between atoms: C_7  and  C_1 
REMARK    2  A    between atoms: C_8  and  C_7 
ROOT
ATOM      1  C   UNL d   1      53.559  33.433  54.130  0.00  0.00     0.033 A 
ATOM      2  C   UNL d   1      52.633  33.154  53.219  0.00  0.00     0.100 A 
ATOM      3  C   UNL d   1      52.938  33.754  53.692  0.00  0.00     0.025 A 
ATOM      4  O   UNL d   1      53.063  32.465  53.364  0.00  0.00    -0.305 OA
ATOM      5  C   UNL d   1      53.636  32.642  53.928  0.00  0.00     0.123 A 
ATOM      6  C   UNL d   1      52.613  34.504  53.660  0.00  0.00     0.002 A 
ATOM      7  C   UNL d   1      51.994  33.301  52.707  0.00  0.00     0.025 A 
ATOM      8  C   UNL d   1      51.978  34.662  53.155  0.00  0.00     0.000 A 
ATOM      9  C   UNL d   1      51.668  34.059  52.677  0.00  0.00     0.002 A 
ATOM     10  C   UNL d   1      52.922  35.110  54.138  0.00  0.00     0.000 C 
ATOM     11  C   UNL d   1      51.034  34.217  52.172  0.00  0.00     0.000 C 
ENDROOT
BRANCH   1  12
ATOM     12  C   UNL d   1      54.021  33.844  54.675  0.00  0.00     0.072 C 
BRANCH  12  13
ATOM     13  C   UNL d   1      54.640  33.458  55.066  0.00  0.00     0.211 C 
ATOM     14  O   UNL d   1      55.424  33.571  54.815  0.00  0.00    -0.644 OA
ATOM     15  O   UNL d   1      54.479  32.963  55.706  0.00  0.00    -0.644 OA
ENDBRANCH  12  13
ENDBRANCH   1  12
TORSDOF 2
ENDMDL
MODEL 3
REMARK VINA RESULT:      -8.8      1.623      2.580
REMARK  2 active torsions:
REMARK  status: ('A' for Active; 'I' for Inactive)
REMARK    1  A    between atoms: C_7  and  C_1 
REMARK    2  A    between atoms: C_8  and  C_7 
ROOT
ATOM      1  C   UNL d   1      53.401  33.640  54.226  0.00  0.00     0.033 A 
ATOM      2  C   UNL d   1      53.785  32.380  54.048  0.00  0.00     0.100 A 
ATOM      3  C   UNL d   1      53.216  32.936  53.839  0.00  0.00     0.025 A 
ATOM      4  O   UNL d   1      54.321  32.739  54.563  0.00  0.00    -0.305 OA
ATOM      5  C   UNL d   1      54.079  33.519  54.670  0.00  0.00     0.123 A 
ATOM      6  C   UNL d   1      52.611  32.727  53.329  0.00  0.00     0.002 A 
ATOM      7  C   UNL d   1      53.754  31.606  53.746  0.00  0.00     0.025 A 
ATOM      8  C   UNL d   1      52.569  31.960  53.022  0.00  0.00     0.000 A 
ATOM      9  C   UNL d   1      53.142  31.398  53.232  0.00  0.00     0.002 A 
ATOM     10  C   UNL d   1      52.035  33.289  53.117  0.00  0.00     0.000 C 
ATOM     11  C   UNL d   1      53.100  30.632  52.926  0.00  0.00     0.000 C 
ENDROOT
BRANCH   1  12
ATOM     12  C   UNL d   1      52.973  34.342  54.171  0.00  0.00     0.072 C 
BRANCH  12  13
ATOM     13  C   UNL d   1      53.228  35.015  54.580  0.00  0.00     0.211 C 
ATOM     14  O   UNL d   1      53.099  35.078  55.398  0.00  0.00    -0.644 OA
ATOM     15  O   UNL d   1      53.611  35.623  54.175  0.00  0.00    -0.644 OA
ENDBRANCH  12  13
ENDBRANCH   1  12
TORSDOF 2
ENDMDL
MODEL 4
REMARK VINA RESULT:      -8.8      1.567      2.526
REMARK  2 active torsions:
REMARK  status: ('A' for Active; 'I' for Inactive)
REMARK    1  A    between atoms: C_7  and  C_1 
REMARK    2  A    between atoms: C_8  and  C_7 
ROOT
ATOM      1  C   UNL d   1      53.032  33.829  53.975  0.00  0.00     0.033 A 
ATOM      2  C   UNL d   1      52.542  32.805  53.284  0.00  0.00     0.100 A 
ATOM      3  C   UNL d   1      53.149  33.034  53.789  0.00  0.00     0.025 A 
ATOM      4  O   UNL d   1      52.051  33.456  53.158  0.00  0.00    -0.305 OA
ATOM      5  C   UNL d   1      52.358  34.088  53.588  0.00  0.00     0.123 A 
ATOM      6  C   UNL d   1      53.722  32.492  54.009  0.00  0.00     0.002 A 
ATOM      7  C   UNL d   1      52.502  32.027  52.993  0.00  0.00     0.025 A 
ATOM      8  C   UNL d   1      53.693  31.716  53.726  0.00  0.00     0.000 A 
ATOM      9  C   UNL d   1      53.081  31.483  53.217  0.00  0.00     0.002 A 
ATOM     10  C   UNL d   1      54.336  32.723  54.520  0.00  0.00     0.000 C 
ATOM     11  C   UNL d   1      53.052  30.708  52.934  0.00  0.00     0.000 C 
ENDROOT
BRANCH   1  12
ATOM     12  C   UNL d   1      53.515  34.280  54.468  0.00  0.00     0.072 C 
BRANCH  12  13
ATOM     13  C   UNL d   1      53.299  35.055  54.662  0.00  0.00     0.211 C 
ATOM     14  O   UNL d   1      52.932  35.215  55.390  0.00  0.00    -0.644 OA
ATOM     15  O   UNL d   1      53.448  35.669  54.131  0.00  0.00    -0.644 OA
ENDBRANCH  12  13
ENDBRANCH   1  12
TORSDOF 2
ENDMDL
MODEL 5
REMARK VINA RESULT:      -8.5      1.317      2.780
REMARK  2 active torsions:
REMARK  status: ('A' for Active; 'I' for Inactive)
REMARK    1  A    between atoms: C_7  and  C_1 
REMARK    2  A    between atoms: C_8  and  C_7 
ROOT
ATOM      1  C   UNL d   1      53.265  31.971  53.569  0.00  0.00     0.033 A 
ATOM      2  C   UNL d   1      52.772  33.170  53.277  0.00  0.00     0.100 A 
ATOM      3  C   UNL d   1      53.269  32.765  53.792  0.00  0.00     0.025 A 
ATOM      4  O   UNL d   1      52.461  32.629  52.737  0.00  0.00    -0.305 OA
ATOM      5  C   UNL d   1      52.769  31.887  52.921  0.00  0.00     0.123 A 
ATOM      6  C   UNL d   1      53.655  33.170  54.389  0.00  0.00     0.002 A 
ATOM      7  C   UNL d   1      52.656  33.989  53.355  0.00  0.00     0.025 A 
ATOM      8  C   UNL d   1      53.547  33.985  54.477  0.00  0.00     0.000 A 
ATOM      9  C   UNL d   1      53.046  34.395  53.958  0.00  0.00     0.002 A 
ATOM     10  C   UNL d   1      54.157  32.761  54.910  0.00  0.00     0.000 C 
ATOM     11  C   UNL d   1      52.939  35.210  54.047  0.00  0.00     0.000 C 
ENDROOT
BRANCH   1  12
ATOM     12  C   UNL d   1      53.689  31.369  53.938  0.00  0.00     0.072 C 
BRANCH  12  13
ATOM     13  C   UNL d   1      53.618  30.588  53.671  0.00  0.00     0.211 C 
ATOM     14  O   UNL d   1      53.079  30.072  54.037  0.00  0.00    -0.644 OA
ATOM     15  O   UNL d   1      54.083  30.324  53.043  0.00  0.00    -0.644 OA
ENDBRANCH  12  13
ENDBRANCH   1  12
TORSDOF 2
ENDMDL
