MODEL 1
REMARK VINA RESULT:      -8.2      0.000      0.000
REMARK  3 active torsions:
REMARK  status: ('A' for Active; 'I' for Inactive)
REMARK    1  A    between atoms: C_4  and  C_1 
REMARK    2  A    between atoms: C_5  and  C_6 
REMARK       I    between atoms: C_6  and  N_7 
REMARK    3  A    between atoms: N_7  and  C_8 
ROOT
ATOM      1  C   UNL d   1     -48.344  12.549  23.154  0.00  0.00     0.042 A 
ATOM      2  C   UNL d   1     -47.629  12.907  23.344  0.00  0.00     0.087 A 
ATOM      3  C   UNL d   1     -48.434  11.727  23.232  0.00  0.00     0.004 A 
ATOM      4  C   UNL d   1     -47.000  12.452  23.612  0.00  0.00     0.019 A 
ATOM      5  C   UNL d   1     -47.797  11.277  23.502  0.00  0.00     0.000 A 
ATOM      6  C   UNL d   1     -47.082  11.642  23.691  0.00  0.00     0.002 A 
ENDROOT
BRANCH   1   7
ATOM      7  C   UNL d   1     -48.980  12.999  22.884  0.00  0.00     0.112 A 
ATOM      8  N   UNL d   1     -49.350  13.647  23.213  0.00  0.00    -0.238 NA
ATOM      9  C   UNL d   1     -49.957  13.875  22.701  0.00  0.00     0.088 A 
ATOM     10  C   UNL d   1     -50.515  14.490  22.741  0.00  0.00     0.020 A 
ATOM     11  C   UNL d   1     -49.954  13.363  22.060  0.00  0.00     0.049 A 
ATOM     12  C   UNL d   1     -51.064  14.585  22.138  0.00  0.00     0.002 A 
ATOM     13  C   UNL d   1     -51.064  14.070  21.490  0.00  0.00     0.001 A 
ATOM     14  C   UNL d   1     -50.506  13.456  21.451  0.00  0.00     0.008 A 
ATOM     15  S   UNL d   1     -49.349  12.822  22.175  0.00  0.00    -0.066 SA
ENDBRANCH   1   7
BRANCH   2  16
ATOM     16  N   UNL d   1     -47.548  13.728  23.263  0.00  0.00    -0.206 NA
ATOM     17  C   UNL d   1     -46.859  14.043  22.914  0.00  0.00     0.304 C 
ATOM     18  O   UNL d   1     -46.779  14.859  22.834  0.00  0.00    -0.263 OA
BRANCH  17  19
ATOM     19  C   UNL d   1     -46.259  13.545  22.648  0.00  0.00     0.182 A 
ATOM     20  O   UNL d   1     -46.248  13.288  21.864  0.00  0.00    -0.296 OA
ATOM     21  C   UNL d   1     -45.647  12.788  21.599  0.00  0.00     0.150 A 
ATOM     22  C   UNL d   1     -45.056  12.546  22.118  0.00  0.00     0.149 A 
ATOM     23  O   UNL d   1     -45.067  12.803  22.903  0.00  0.00    -0.299 OA
ATOM     24  C   UNL d   1     -45.668  13.302  23.167  0.00  0.00     0.152 A 
ENDBRANCH  17  19
ENDBRANCH   2  16
TORSDOF 3
ENDMDL
MODEL 2
REMARK VINA RESULT:      -7.9      1.581      4.046
REMARK  3 active torsions:
REMARK  status: ('A' for Active; 'I' for Inactive)
REMARK    1  A    between atoms: C_4  and  C_1 
REMARK    2  A    between atoms: C_5  and  C_6 
REMARK       I    between atoms: C_6  and  N_7 
REMARK    3  A    between atoms: N_7  and  C_8 
ROOT
ATOM      1  C   UNL d   1     -48.691  13.038  21.952  0.00  0.00     0.042 A 
ATOM      2  C   UNL d   1     -48.965  13.808  21.863  0.00  0.00     0.087 A 
ATOM      3  C   UNL d   1     -49.197  12.395  21.815  0.00  0.00     0.004 A 
ATOM      4  C   UNL d   1     -49.744  13.943  21.638  0.00  0.00     0.019 A 
ATOM      5  C   UNL d   1     -49.978  12.538  21.589  0.00  0.00     0.000 A 
ATOM      6  C   UNL d   1     -50.249  13.313  21.501  0.00  0.00     0.002 A 
ENDROOT
BRANCH   1   7
ATOM      7  C   UNL d   1     -47.910  12.895  22.177  0.00  0.00     0.112 A 
ATOM      8  N   UNL d   1     -47.208  13.152  21.853  0.00  0.00    -0.238 NA
ATOM      9  C   UNL d   1     -46.593  12.837  22.306  0.00  0.00     0.088 A 
ATOM     10  C   UNL d   1     -45.767  12.905  22.246  0.00  0.00     0.020 A 
ATOM     11  C   UNL d   1     -46.926  12.387  22.907  0.00  0.00     0.049 A 
ATOM     12  C   UNL d   1     -45.283  12.522  22.787  0.00  0.00     0.002 A 
ATOM     13  C   UNL d   1     -45.615  12.068  23.394  0.00  0.00     0.001 A 
ATOM     14  C   UNL d   1     -46.441  12.000  23.454  0.00  0.00     0.008 A 
ATOM     15  S   UNL d   1     -47.741  12.424  22.825  0.00  0.00    -0.066 SA
ENDBRANCH   1   7
BRANCH   2  16
ATOM     16  N   UNL d   1     -48.453  14.444  22.002  0.00  0.00    -0.206 NA
ATOM     17  C   UNL d   1     -48.729  15.114  22.416  0.00  0.00     0.304 C 
ATOM     18  O   UNL d   1     -48.220  15.746  22.554  0.00  0.00    -0.263 OA
BRANCH  17  19
ATOM     19  C   UNL d   1     -49.506  15.148  22.687  0.00  0.00     0.182 A 
ATOM     20  O   UNL d   1     -49.703  14.838  23.427  0.00  0.00    -0.296 OA
ATOM     21  C   UNL d   1     -50.482  14.872  23.698  0.00  0.00     0.150 A 
ATOM     22  C   UNL d   1     -51.064  15.216  23.230  0.00  0.00     0.149 A 
ATOM     23  O   UNL d   1     -50.868  15.526  22.489  0.00  0.00    -0.299 OA
ATOM     24  C   UNL d   1     -50.089  15.491  22.219  0.00  0.00     0.152 A 
ENDBRANCH  17  19
ENDBRANCH   2  16
TORSDOF 3
ENDMDL
MODEL 3
REMARK VINA RESULT:      -7.7      1.758      4.176
REMARK  3 active torsions:
REMARK  status: ('A' for Active; 'I' for Inactive)
REMARK    1  A    between atoms: C_4  and  C_1 
REMARK    2  A    between atoms: C_5  and  C_6 
REMARK       I    between atoms: C_6  and  N_7 
REMARK    3  A    between atoms: N_7  and  C_8 
ROOT
ATOM      1  C   UNL d   1     -47.906  13.932  22.911  0.00  0.00     0.042 A 
ATOM      2  C   UNL d   1     -48.592  13.503  23.051  0.00  0.00     0.087 A 
ATOM      3  C   UNL d   1     -47.934  14.760  22.848  0.00  0.00     0.004 A 
ATOM      4  C   UNL d   1     -49.311  13.893  23.129  0.00  0.00     0.019 A 
ATOM      5  C   UNL d   1     -48.660  15.144  22.928  0.00  0.00     0.000 A 
ATOM      6  C   UNL d   1     -49.347  14.709  23.069  0.00  0.00     0.002 A 
ENDROOT
BRANCH   1   7
ATOM      7  C   UNL d   1     -47.180  13.548  22.831  0.00  0.00     0.112 A 
ATOM      8  N   UNL d   1     -46.858  12.928  23.252  0.00  0.00    -0.238 NA
ATOM      9  C   UNL d   1     -46.114  12.768  22.932  0.00  0.00     0.088 A 
ATOM     10  C   UNL d   1     -45.534  12.205  23.127  0.00  0.00     0.020 A 
ATOM     11  C   UNL d   1     -45.985  13.293  22.314  0.00  0.00     0.049 A 
ATOM     12  C   UNL d   1     -44.832  12.175  22.702  0.00  0.00     0.002 A 
ATOM     13  C   UNL d   1     -44.699  12.703  22.080  0.00  0.00     0.001 A 
ATOM     14  C   UNL d   1     -45.278  13.265  21.884  0.00  0.00     0.008 A 
ATOM     15  S   UNL d   1     -46.646  13.775  22.254  0.00  0.00    -0.066 SA
ENDBRANCH   1   7
BRANCH   2  16
ATOM     16  N   UNL d   1     -48.555  12.678  23.112  0.00  0.00    -0.206 NA
ATOM     17  C   UNL d   1     -49.136  12.208  22.741  0.00  0.00     0.304 C 
ATOM     18  O   UNL d   1     -49.099  11.388  22.802  0.00  0.00    -0.263 OA
BRANCH  17  19
ATOM     19  C   UNL d   1     -49.748  12.560  22.314  0.00  0.00     0.182 A 
ATOM     20  O   UNL d   1     -49.656  12.716  21.509  0.00  0.00    -0.296 OA
ATOM     21  C   UNL d   1     -50.269  13.068  21.082  0.00  0.00     0.150 A 
ATOM     22  C   UNL d   1     -50.973  13.264  21.460  0.00  0.00     0.149 A 
ATOM     23  O   UNL d   1     -51.064  13.107  22.266  0.00  0.00    -0.299 OA
ATOM     24  C   UNL d   1     -50.452  12.755  22.692  0.00  0.00     0.152 A 
ENDBRANCH  17  19
ENDBRANCH   2  16
TORSDOF 3
ENDMDL
MODEL 4
REMARK VINA RESULT:      -6.1      8.912     10.128
REMARK  3 active torsions:
REMARK  status: ('A' for Active; 'I' for Inactive)
REMARK    1  A    between atoms: C_4  and  C_1 
REMARK    2  A    between atoms: C_5  and  C_6 
REMARK       I    between atoms: C_6  and  N_7 
REMARK    3  A    between atoms: N_7  and  C_8 
ROOT
ATOM      1  C   UNL d   1     -38.612  15.055  19.205  0.00  0.00     0.042 A 
ATOM      2  C   UNL d   1     -39.020  14.706  18.583  0.00  0.00     0.087 A 
ATOM      3  C   UNL d   1     -38.071  15.668  19.060  0.00  0.00     0.004 A 
ATOM      4  C   UNL d   1     -38.894  14.965  17.813  0.00  0.00     0.019 A 
ATOM      5  C   UNL d   1     -37.949  15.921  18.284  0.00  0.00     0.000 A 
ATOM      6  C   UNL d   1     -38.361  15.568  17.663  0.00  0.00     0.002 A 
ENDROOT
BRANCH   1   7
ATOM      7  C   UNL d   1     -38.734  14.801  19.981  0.00  0.00     0.112 A 
ATOM      8  N   UNL d   1     -39.268  15.052  20.544  0.00  0.00    -0.238 NA
ATOM      9  C   UNL d   1     -39.143  14.602  21.225  0.00  0.00     0.088 A 
ATOM     10  C   UNL d   1     -39.512  14.606  21.969  0.00  0.00     0.020 A 
ATOM     11  C   UNL d   1     -38.530  14.076  21.073  0.00  0.00     0.049 A 
ATOM     12  C   UNL d   1     -39.266  14.084  22.553  0.00  0.00     0.002 A 
ATOM     13  C   UNL d   1     -38.650  13.553  22.403  0.00  0.00     0.001 A 
ATOM     14  C   UNL d   1     -38.280  13.549  21.659  0.00  0.00     0.008 A 
ATOM     15  S   UNL d   1     -38.280  14.202  20.302  0.00  0.00    -0.066 SA
ENDBRANCH   1   7
BRANCH   2  16
ATOM     16  N   UNL d   1     -39.558  14.096  18.736  0.00  0.00    -0.206 NA
ATOM     17  C   UNL d   1     -40.292  14.080  18.338  0.00  0.00     0.304 C 
ATOM     18  O   UNL d   1     -40.827  13.473  18.491  0.00  0.00    -0.263 OA
BRANCH  17  19
ATOM     19  C   UNL d   1     -40.485  14.668  17.793  0.00  0.00     0.182 A 
ATOM     20  O   UNL d   1     -40.911  15.333  18.033  0.00  0.00    -0.296 OA
ATOM     21  C   UNL d   1     -41.104  15.922  17.487  0.00  0.00     0.150 A 
ATOM     22  C   UNL d   1     -40.870  15.845  16.702  0.00  0.00     0.149 A 
ATOM     23  O   UNL d   1     -40.443  15.180  16.462  0.00  0.00    -0.299 OA
ATOM     24  C   UNL d   1     -40.251  14.592  17.008  0.00  0.00     0.152 A 
ENDBRANCH  17  19
ENDBRANCH   2  16
TORSDOF 3
ENDMDL
MODEL 5
REMARK VINA RESULT:      -6.1      8.166     10.102
REMARK  3 active torsions:
REMARK  status: ('A' for Active; 'I' for Inactive)
REMARK    1  A    between atoms: C_4  and  C_1 
REMARK    2  A    between atoms: C_5  and  C_6 
REMARK       I    between atoms: C_6  and  N_7 
REMARK    3  A    between atoms: N_7  and  C_8 
ROOT
ATOM      1  C   UNL d   1     -39.248  14.024  18.496  0.00  0.00     0.042 A 
ATOM      2  C   UNL d   1     -39.471  14.208  17.727  0.00  0.00     0.087 A 
ATOM      3  C   UNL d   1     -38.624  13.496  18.636  0.00  0.00     0.004 A 
ATOM      4  C   UNL d   1     -39.075  13.867  17.092  0.00  0.00     0.019 A 
ATOM      5  C   UNL d   1     -38.231  13.158  17.994  0.00  0.00     0.000 A 
ATOM      6  C   UNL d   1     -38.459  13.345  17.223  0.00  0.00     0.002 A 
ENDROOT
BRANCH   1   7
ATOM      7  C   UNL d   1     -39.641  14.362  19.138  0.00  0.00     0.112 A 
ATOM      8  N   UNL d   1     -40.414  14.288  19.387  0.00  0.00    -0.238 NA
ATOM      9  C   UNL d   1     -40.504  14.751  20.065  0.00  0.00     0.088 A 
ATOM     10  C   UNL d   1     -41.158  14.894  20.557  0.00  0.00     0.020 A 
ATOM     11  C   UNL d   1     -39.782  15.107  20.227  0.00  0.00     0.049 A 
ATOM     12  C   UNL d   1     -41.083  15.391  21.206  0.00  0.00     0.002 A 
ATOM     13  C   UNL d   1     -40.357  15.751  21.373  0.00  0.00     0.001 A 
ATOM     14  C   UNL d   1     -39.703  15.608  20.880  0.00  0.00     0.008 A 
ATOM     15  S   UNL d   1     -39.250  14.864  19.652  0.00  0.00    -0.066 SA
ENDBRANCH   1   7
BRANCH   2  16
ATOM     16  N   UNL d   1     -40.096  14.736  17.596  0.00  0.00    -0.206 NA
ATOM     17  C   UNL d   1     -40.019  15.333  17.018  0.00  0.00     0.304 C 
ATOM     18  O   UNL d   1     -40.639  15.858  16.888  0.00  0.00    -0.263 OA
BRANCH  17  19
ATOM     19  C   UNL d   1     -39.326  15.400  16.576  0.00  0.00     0.182 A 
ATOM     20  O   UNL d   1     -38.685  15.829  16.869  0.00  0.00    -0.296 OA
ATOM     21  C   UNL d   1     -37.992  15.896  16.427  0.00  0.00     0.150 A 
ATOM     22  C   UNL d   1     -37.940  15.534  15.690  0.00  0.00     0.149 A 
ATOM     23  O   UNL d   1     -38.581  15.104  15.396  0.00  0.00    -0.299 OA
ATOM     24  C   UNL d   1     -39.274  15.038  15.839  0.00  0.00     0.152 A 
ENDBRANCH  17  19
ENDBRANCH   2  16
TORSDOF 3
ENDMDL
MODEL 6
REMARK VINA RESULT:      -6.0      1.650      4.064
REMARK  3 active torsions:
REMARK  status: ('A' for Active; 'I' for Inactive)
REMARK    1  A    between atoms: C_4  and  C_1 
REMARK    2  A    between atoms: C_5  and  C_6 
REMARK       I    between atoms: C_6  and  N_7 
REMARK    3  A    between atoms: N_7  and  C_8 
ROOT
ATOM      1  C   UNL d   1     -47.289  11.772  23.417  0.00  0.00     0.042 A 
ATOM      2  C   UNL d   1     -47.541  12.552  23.461  0.00  0.00     0.087 A 
ATOM      3  C   UNL d   1     -47.839  11.151  23.454  0.00  0.00     0.004 A 
ATOM      4  C   UNL d   1     -48.341  12.721  23.543  0.00  0.00     0.019 A 
ATOM      5  C   UNL d   1     -48.641  11.328  23.536  0.00  0.00     0.000 A 
ATOM      6  C   UNL d   1     -48.889  12.114  23.580  0.00  0.00     0.002 A 
ENDROOT
BRANCH   1   7
ATOM      7  C   UNL d   1     -46.487  11.594  23.335  0.00  0.00     0.112 A 
ATOM      8  N   UNL d   1     -45.893  11.991  22.942  0.00  0.00    -0.238 NA
ATOM      9  C   UNL d   1     -45.195  11.561  23.044  0.00  0.00     0.088 A 
ATOM     10  C   UNL d   1     -44.419  11.689  22.776  0.00  0.00     0.020 A 
ATOM     11  C   UNL d   1     -45.368  10.901  23.502  0.00  0.00     0.049 A 
ATOM     12  C   UNL d   1     -43.825  11.156  22.969  0.00  0.00     0.002 A 
ATOM     13  C   UNL d   1     -43.996  10.491  23.429  0.00  0.00     0.001 A 
ATOM     14  C   UNL d   1     -44.772  10.363  23.697  0.00  0.00     0.008 A 
ATOM     15  S   UNL d   1     -46.168  10.925  23.680  0.00  0.00    -0.066 SA
ENDBRANCH   1   7
BRANCH   2  16
ATOM     16  N   UNL d   1     -46.986  13.166  23.424  0.00  0.00    -0.206 NA
ATOM     17  C   UNL d   1     -47.164  13.860  22.995  0.00  0.00     0.304 C 
ATOM     18  O   UNL d   1     -46.611  14.469  22.958  0.00  0.00    -0.263 OA
BRANCH  17  19
ATOM     19  C   UNL d   1     -47.888  13.939  22.610  0.00  0.00     0.182 A 
ATOM     20  O   UNL d   1     -47.980  13.664  21.837  0.00  0.00    -0.296 OA
ATOM     21  C   UNL d   1     -48.706  13.744  21.451  0.00  0.00     0.150 A 
ATOM     22  C   UNL d   1     -49.339  14.098  21.839  0.00  0.00     0.149 A 
ATOM     23  O   UNL d   1     -49.247  14.373  22.613  0.00  0.00    -0.299 OA
ATOM     24  C   UNL d   1     -48.521  14.293  22.997  0.00  0.00     0.152 A 
ENDBRANCH  17  19
ENDBRANCH   2  16
TORSDOF 3
ENDMDL
MODEL 7
REMARK VINA RESULT:      -5.2      7.946      9.609
REMARK  3 active torsions:
REMARK  status: ('A' for Active; 'I' for Inactive)
REMARK    1  A    between atoms: C_4  and  C_1 
REMARK    2  A    between atoms: C_5  and  C_6 
REMARK       I    between atoms: C_6  and  N_7 
REMARK    3  A    between atoms: N_7  and  C_8 
ROOT
ATOM      1  C   UNL d   1     -40.273  14.534  19.595  0.00  0.00     0.042 A 
ATOM      2  C   UNL d   1     -39.936  15.043  20.146  0.00  0.00     0.087 A 
ATOM      3  C   UNL d   1     -40.966  14.116  19.779  0.00  0.00     0.004 A 
ATOM      4  C   UNL d   1     -40.287  15.139  20.883  0.00  0.00     0.019 A 
ATOM      5  C   UNL d   1     -41.312  14.218  20.522  0.00  0.00     0.000 A 
ATOM      6  C   UNL d   1     -40.970  14.730  21.072  0.00  0.00     0.002 A 
ENDROOT
BRANCH   1   7
ATOM      7  C   UNL d   1     -39.927  14.433  18.853  0.00  0.00     0.112 A 
ATOM      8  N   UNL d   1     -39.354  13.910  18.601  0.00  0.00    -0.238 NA
ATOM      9  C   UNL d   1     -39.218  14.055  17.799  0.00  0.00     0.088 A 
ATOM     10  C   UNL d   1     -38.704  13.703  17.250  0.00  0.00     0.020 A 
ATOM     11  C   UNL d   1     -39.712  14.669  17.565  0.00  0.00     0.049 A 
ATOM     12  C   UNL d   1     -38.688  13.968  16.473  0.00  0.00     0.002 A 
ATOM     13  C   UNL d   1     -39.184  14.586  16.234  0.00  0.00     0.001 A 
ATOM     14  C   UNL d   1     -39.698  14.938  16.783  0.00  0.00     0.008 A 
ATOM     15  S   UNL d   1     -40.149  14.900  18.219  0.00  0.00    -0.066 SA
ENDBRANCH   1   7
BRANCH   2  16
ATOM     16  N   UNL d   1     -39.245  15.456  19.954  0.00  0.00    -0.206 NA
ATOM     17  C   UNL d   1     -38.627  15.511  20.512  0.00  0.00     0.304 C 
ATOM     18  O   UNL d   1     -37.939  15.922  20.321  0.00  0.00    -0.263 OA
BRANCH  17  19
ATOM     19  C   UNL d   1     -38.700  15.158  21.254  0.00  0.00     0.182 A 
ATOM     20  O   UNL d   1     -38.470  14.373  21.364  0.00  0.00    -0.296 OA
ATOM     21  C   UNL d   1     -38.543  14.019  22.106  0.00  0.00     0.150 A 
ATOM     22  C   UNL d   1     -38.847  14.450  22.738  0.00  0.00     0.149 A 
ATOM     23  O   UNL d   1     -39.077  15.236  22.627  0.00  0.00    -0.299 OA
ATOM     24  C   UNL d   1     -39.003  15.589  21.885  0.00  0.00     0.152 A 
ENDBRANCH  17  19
ENDBRANCH   2  16
TORSDOF 3
ENDMDL
