MODEL 1
REMARK VINA RESULT:      -9.0      0.000      0.000
REMARK  2 active torsions:
REMARK  status: ('A' for Active; 'I' for Inactive)
REMARK       I    between atoms: C_2  and  N_1 
REMARK       I    between atoms: N_8  and  C_2 
REMARK    1  A    between atoms: C_15  and  N_8 
REMARK    2  A    between atoms: C_9  and  C_15 
ROOT
ATOM      1  N   UNL d   1     -47.525  13.386  22.976  0.00  0.00    -0.258 N 
ATOM      2  C   UNL d   1     -47.776  14.163  22.853  0.00  0.00     0.354 C 
ATOM      3  S   UNL d   1     -47.056  11.818  23.233  0.00  0.00    -0.084 SA
ATOM      4  C   UNL d   1     -48.081  12.814  23.217  0.00  0.00     0.074 A 
ATOM      5  C   UNL d   1     -46.743  13.183  22.863  0.00  0.00     0.074 A 
ATOM      6  C   UNL d   1     -47.846  12.025  23.347  0.00  0.00     0.046 A 
ATOM      7  C   UNL d   1     -46.507  12.394  22.992  0.00  0.00     0.046 A 
ATOM      8  N   UNL d   1     -48.651  14.384  22.981  0.00  0.00    -0.189 NA
ATOM      9  O   UNL d   1     -47.168  14.781  22.590  0.00  0.00    -0.244 OA
ATOM     10  C   UNL d   1     -46.199  13.745  22.626  0.00  0.00     0.018 A 
ATOM     11  C   UNL d   1     -48.863  13.021  23.330  0.00  0.00     0.018 A 
ATOM     12  C   UNL d   1     -48.392  11.468  23.582  0.00  0.00     0.008 A 
ATOM     13  C   UNL d   1     -45.721  12.184  22.879  0.00  0.00     0.008 A 
ATOM     14  C   UNL d   1     -49.410  12.458  23.567  0.00  0.00     0.002 A 
ATOM     15  C   UNL d   1     -45.409  13.536  22.513  0.00  0.00     0.002 A 
ATOM     16  C   UNL d   1     -45.166  12.749  22.640  0.00  0.00     0.001 A 
ATOM     17  C   UNL d   1     -49.173  11.666  23.697  0.00  0.00     0.001 A 
ENDROOT
BRANCH   8  18
ATOM     18  C   UNL d   1     -48.897  15.161  22.856  0.00  0.00     0.128 C 
BRANCH  18  19
ATOM     19  C   UNL d   1     -49.685  15.375  22.996  0.00  0.00     0.119 A 
ATOM     20  O   UNL d   1     -50.315  15.285  22.469  0.00  0.00    -0.304 OA
ATOM     21  C   UNL d   1     -50.998  15.571  22.834  0.00  0.00     0.123 A 
ATOM     22  C   UNL d   1     -50.792  15.838  23.586  0.00  0.00     0.029 A 
ATOM     23  C   UNL d   1     -49.982  15.717  23.685  0.00  0.00     0.028 A 
ENDBRANCH  18  19
ENDBRANCH   8  18
TORSDOF 2
ENDMDL
MODEL 2
REMARK VINA RESULT:      -8.9      1.151      3.838
REMARK  2 active torsions:
REMARK  status: ('A' for Active; 'I' for Inactive)
REMARK       I    between atoms: C_2  and  N_1 
REMARK       I    between atoms: N_8  and  C_2 
REMARK    1  A    between atoms: C_15  and  N_8 
REMARK    2  A    between atoms: C_9  and  C_15 
ROOT
ATOM      1  N   UNL d   1     -49.036  13.940  23.226  0.00  0.00    -0.258 N 
ATOM      2  C   UNL d   1     -48.276  14.234  23.088  0.00  0.00     0.354 C 
ATOM      3  S   UNL d   1     -50.547  13.319  23.500  0.00  0.00    -0.084 SA
ATOM      4  C   UNL d   1     -49.150  13.117  23.277  0.00  0.00     0.074 A 
ATOM      5  C   UNL d   1     -49.665  14.453  23.310  0.00  0.00     0.074 A 
ATOM      6  C   UNL d   1     -49.909  12.803  23.415  0.00  0.00     0.046 A 
ATOM      7  C   UNL d   1     -50.425  14.140  23.448  0.00  0.00     0.046 A 
ATOM      8  N   UNL d   1     -47.576  13.657  22.995  0.00  0.00    -0.189 NA
ATOM      9  O   UNL d   1     -48.158  15.131  23.034  0.00  0.00    -0.244 OA
ATOM     10  C   UNL d   1     -49.553  15.261  23.259  0.00  0.00     0.018 A 
ATOM     11  C   UNL d   1     -48.516  12.608  23.192  0.00  0.00     0.018 A 
ATOM     12  C   UNL d   1     -50.017  11.997  23.465  0.00  0.00     0.008 A 
ATOM     13  C   UNL d   1     -51.063  14.650  23.533  0.00  0.00     0.008 A 
ATOM     14  C   UNL d   1     -48.628  11.797  23.243  0.00  0.00     0.002 A 
ATOM     15  C   UNL d   1     -50.192  15.775  23.345  0.00  0.00     0.002 A 
ATOM     16  C   UNL d   1     -50.955  15.469  23.483  0.00  0.00     0.001 A 
ATOM     17  C   UNL d   1     -49.391  11.483  23.382  0.00  0.00     0.001 A 
ENDROOT
BRANCH   8  18
ATOM     18  C   UNL d   1     -46.819  13.954  22.858  0.00  0.00     0.128 C 
BRANCH  18  19
ATOM     19  C   UNL d   1     -46.188  13.437  22.722  0.00  0.00     0.119 A 
ATOM     20  O   UNL d   1     -45.846  12.928  23.276  0.00  0.00    -0.304 OA
ATOM     21  C   UNL d   1     -45.235  12.515  22.904  0.00  0.00     0.123 A 
ATOM     22  C   UNL d   1     -45.199  12.767  22.120  0.00  0.00     0.029 A 
ATOM     23  C   UNL d   1     -45.786  13.336  22.008  0.00  0.00     0.028 A 
ENDBRANCH  18  19
ENDBRANCH   8  18
TORSDOF 2
ENDMDL
MODEL 3
REMARK VINA RESULT:      -8.6      2.024      4.687
REMARK  2 active torsions:
REMARK  status: ('A' for Active; 'I' for Inactive)
REMARK       I    between atoms: C_2  and  N_1 
REMARK       I    between atoms: N_8  and  C_2 
REMARK    1  A    between atoms: C_15  and  N_8 
REMARK    2  A    between atoms: C_9  and  C_15 
ROOT
ATOM      1  N   UNL d   1     -47.707  12.317  23.247  0.00  0.00    -0.258 N 
ATOM      2  C   UNL d   1     -47.336  11.611  23.462  0.00  0.00     0.354 C 
ATOM      3  S   UNL d   1     -48.419  13.748  22.812  0.00  0.00    -0.084 SA
ATOM      4  C   UNL d   1     -47.239  12.978  23.052  0.00  0.00     0.074 A 
ATOM      5  C   UNL d   1     -48.522  12.364  23.227  0.00  0.00     0.074 A 
ATOM      6  C   UNL d   1     -47.596  13.698  22.833  0.00  0.00     0.046 A 
ATOM      7  C   UNL d   1     -48.879  13.085  23.008  0.00  0.00     0.046 A 
ATOM      8  N   UNL d   1     -46.426  11.563  23.483  0.00  0.00    -0.189 NA
ATOM      9  O   UNL d   1     -47.851  10.895  23.673  0.00  0.00    -0.244 OA
ATOM     10  C   UNL d   1     -48.980  11.715  23.419  0.00  0.00     0.018 A 
ATOM     11  C   UNL d   1     -46.424  12.926  23.074  0.00  0.00     0.018 A 
ATOM     12  C   UNL d   1     -47.135  14.343  22.643  0.00  0.00     0.008 A 
ATOM     13  C   UNL d   1     -49.699  13.138  22.986  0.00  0.00     0.008 A 
ATOM     14  C   UNL d   1     -45.963  13.577  22.882  0.00  0.00     0.002 A 
ATOM     15  C   UNL d   1     -49.803  11.767  23.397  0.00  0.00     0.002 A 
ATOM     16  C   UNL d   1     -50.168  12.485  23.179  0.00  0.00     0.001 A 
ATOM     17  C   UNL d   1     -46.323  14.300  22.662  0.00  0.00     0.001 A 
ENDROOT
BRANCH   8  18
ATOM     18  C   UNL d   1     -46.060  10.857  23.698  0.00  0.00     0.128 C 
BRANCH  18  19
ATOM     19  C   UNL d   1     -45.249  10.753  23.569  0.00  0.00     0.119 A 
ATOM     20  O   UNL d   1     -44.715  11.335  23.327  0.00  0.00    -0.304 OA
ATOM     21  C   UNL d   1     -43.967  10.990  23.269  0.00  0.00     0.123 A 
ATOM     22  C   UNL d   1     -44.037  10.195  23.475  0.00  0.00     0.029 A 
ATOM     23  C   UNL d   1     -44.828  10.049  23.660  0.00  0.00     0.028 A 
ENDBRANCH  18  19
ENDBRANCH   8  18
TORSDOF 2
ENDMDL
MODEL 4
REMARK VINA RESULT:      -8.2      1.385      2.334
REMARK  2 active torsions:
REMARK  status: ('A' for Active; 'I' for Inactive)
REMARK       I    between atoms: C_2  and  N_1 
REMARK       I    between atoms: N_8  and  C_2 
REMARK    1  A    between atoms: C_15  and  N_8 
REMARK    2  A    between atoms: C_9  and  C_15 
ROOT
ATOM      1  N   UNL d   1     -47.618  12.624  23.126  0.00  0.00    -0.258 N 
ATOM      2  C   UNL d   1     -48.437  12.512  23.122  0.00  0.00     0.354 C 
ATOM      3  S   UNL d   1     -45.982  12.882  23.124  0.00  0.00    -0.084 SA
ATOM      4  C   UNL d   1     -47.311  13.375  22.938  0.00  0.00     0.074 A 
ATOM      5  C   UNL d   1     -47.120  12.005  23.312  0.00  0.00     0.074 A 
ATOM      6  C   UNL d   1     -46.488  13.506  22.936  0.00  0.00     0.046 A 
ATOM      7  C   UNL d   1     -46.296  12.136  23.311  0.00  0.00     0.046 A 
ATOM      8  N   UNL d   1     -48.990  13.205  22.914  0.00  0.00    -0.189 NA
ATOM      9  O   UNL d   1     -48.765  11.693  23.328  0.00  0.00    -0.244 OA
ATOM     10  C   UNL d   1     -47.422  11.269  23.497  0.00  0.00     0.018 A 
ATOM     11  C   UNL d   1     -47.815  13.991  22.752  0.00  0.00     0.018 A 
ATOM     12  C   UNL d   1     -46.190  14.242  22.752  0.00  0.00     0.008 A 
ATOM     13  C   UNL d   1     -45.789  11.517  23.497  0.00  0.00     0.008 A 
ATOM     14  C   UNL d   1     -47.512  14.730  22.567  0.00  0.00     0.002 A 
ATOM     15  C   UNL d   1     -46.914  10.647  23.684  0.00  0.00     0.002 A 
ATOM     16  C   UNL d   1     -46.089  10.770  23.685  0.00  0.00     0.001 A 
ATOM     17  C   UNL d   1     -46.685  14.861  22.566  0.00  0.00     0.001 A 
ENDROOT
BRANCH   8  18
ATOM     18  C   UNL d   1     -49.806  13.089  22.911  0.00  0.00     0.128 C 
BRANCH  18  19
ATOM     19  C   UNL d   1     -50.298  13.603  22.488  0.00  0.00     0.119 A 
ATOM     20  O   UNL d   1     -50.598  14.324  22.759  0.00  0.00    -0.304 OA
ATOM     21  C   UNL d   1     -51.061  14.652  22.158  0.00  0.00     0.123 A 
ATOM     22  C   UNL d   1     -51.047  14.135  21.516  0.00  0.00     0.029 A 
ATOM     23  C   UNL d   1     -50.576  13.488  21.720  0.00  0.00     0.028 A 
ENDBRANCH  18  19
ENDBRANCH   8  18
TORSDOF 2
ENDMDL
MODEL 5
REMARK VINA RESULT:      -6.8      1.340      3.885
REMARK  2 active torsions:
REMARK  status: ('A' for Active; 'I' for Inactive)
REMARK       I    between atoms: C_2  and  N_1 
REMARK       I    between atoms: N_8  and  C_2 
REMARK    1  A    between atoms: C_15  and  N_8 
REMARK    2  A    between atoms: C_9  and  C_15 
ROOT
ATOM      1  N   UNL d   1     -48.182  13.455  23.024  0.00  0.00    -0.258 N 
ATOM      2  C   UNL d   1     -47.358  13.402  23.014  0.00  0.00     0.354 C 
ATOM      3  S   UNL d   1     -49.837  13.528  23.056  0.00  0.00    -0.084 SA
ATOM      4  C   UNL d   1     -48.629  12.789  23.249  0.00  0.00     0.074 A 
ATOM      5  C   UNL d   1     -48.552  14.153  22.816  0.00  0.00     0.074 A 
ATOM      6  C   UNL d   1     -49.461  12.825  23.265  0.00  0.00     0.046 A 
ATOM      7  C   UNL d   1     -49.385  14.189  22.833  0.00  0.00     0.046 A 
ATOM      8  N   UNL d   1     -46.950  12.621  23.247  0.00  0.00    -0.189 NA
ATOM      9  O   UNL d   1     -46.877  14.130  22.768  0.00  0.00    -0.244 OA
ATOM     10  C   UNL d   1     -48.113  14.806  22.596  0.00  0.00     0.018 A 
ATOM     11  C   UNL d   1     -48.254  12.093  23.456  0.00  0.00     0.018 A 
ATOM     12  C   UNL d   1     -49.896  12.171  23.486  0.00  0.00     0.008 A 
ATOM     13  C   UNL d   1     -49.762  14.888  22.624  0.00  0.00     0.008 A 
ATOM     14  C   UNL d   1     -48.694  11.437  23.678  0.00  0.00     0.002 A 
ATOM     15  C   UNL d   1     -48.490  15.508  22.387  0.00  0.00     0.002 A 
ATOM     16  C   UNL d   1     -49.323  15.552  22.400  0.00  0.00     0.001 A 
ATOM     17  C   UNL d   1     -49.530  11.474  23.694  0.00  0.00     0.001 A 
ENDROOT
BRANCH   8  18
ATOM     18  C   UNL d   1     -46.127  12.572  23.235  0.00  0.00     0.128 C 
BRANCH  18  19
ATOM     19  C   UNL d   1     -45.752  11.842  23.344  0.00  0.00     0.119 A 
ATOM     20  O   UNL d   1     -44.981  11.651  23.118  0.00  0.00    -0.304 OA
ATOM     21  C   UNL d   1     -44.836  10.868  23.332  0.00  0.00     0.123 A 
ATOM     22  C   UNL d   1     -45.517  10.572  23.691  0.00  0.00     0.029 A 
ATOM     23  C   UNL d   1     -46.082  11.173  23.698  0.00  0.00     0.028 A 
ENDBRANCH  18  19
ENDBRANCH   8  18
TORSDOF 2
ENDMDL
MODEL 6
REMARK VINA RESULT:      -6.7      0.957      1.269
REMARK  2 active torsions:
REMARK  status: ('A' for Active; 'I' for Inactive)
REMARK       I    between atoms: C_2  and  N_1 
REMARK       I    between atoms: N_8  and  C_2 
REMARK    1  A    between atoms: C_15  and  N_8 
REMARK    2  A    between atoms: C_9  and  C_15 
ROOT
ATOM      1  N   UNL d   1     -47.878  12.489  23.310  0.00  0.00    -0.258 N 
ATOM      2  C   UNL d   1     -47.816  13.305  23.197  0.00  0.00     0.354 C 
ATOM      3  S   UNL d   1     -48.037  10.855  23.531  0.00  0.00    -0.084 SA
ATOM      4  C   UNL d   1     -48.631  12.133  23.292  0.00  0.00     0.074 A 
ATOM      5  C   UNL d   1     -47.209  12.040  23.436  0.00  0.00     0.074 A 
ATOM      6  C   UNL d   1     -48.712  11.311  23.403  0.00  0.00     0.046 A 
ATOM      7  C   UNL d   1     -47.290  11.217  23.547  0.00  0.00     0.046 A 
ATOM      8  N   UNL d   1     -48.567  13.803  23.057  0.00  0.00    -0.189 NA
ATOM      9  O   UNL d   1     -46.995  13.687  23.217  0.00  0.00    -0.244 OA
ATOM     10  C   UNL d   1     -46.471  12.389  23.453  0.00  0.00     0.018 A 
ATOM     11  C   UNL d   1     -49.298  12.587  23.165  0.00  0.00     0.018 A 
ATOM     12  C   UNL d   1     -49.450  10.966  23.386  0.00  0.00     0.008 A 
ATOM     13  C   UNL d   1     -46.620  10.760  23.675  0.00  0.00     0.008 A 
ATOM     14  C   UNL d   1     -50.040  12.237  23.148  0.00  0.00     0.002 A 
ATOM     15  C   UNL d   1     -45.797  11.931  23.581  0.00  0.00     0.002 A 
ATOM     16  C   UNL d   1     -45.870  11.108  23.693  0.00  0.00     0.001 A 
ATOM     17  C   UNL d   1     -50.120  11.412  23.260  0.00  0.00     0.001 A 
ENDROOT
BRANCH   8  18
ATOM     18  C   UNL d   1     -48.501  14.617  22.945  0.00  0.00     0.128 C 
BRANCH  18  19
ATOM     19  C   UNL d   1     -49.171  15.100  22.998  0.00  0.00     0.119 A 
ATOM     20  O   UNL d   1     -49.559  15.321  23.693  0.00  0.00    -0.304 OA
ATOM     21  C   UNL d   1     -50.198  15.803  23.489  0.00  0.00     0.123 A 
ATOM     22  C   UNL d   1     -50.205  15.881  22.668  0.00  0.00     0.029 A 
ATOM     23  C   UNL d   1     -49.572  15.447  22.366  0.00  0.00     0.028 A 
ENDBRANCH  18  19
ENDBRANCH   8  18
TORSDOF 2
ENDMDL
MODEL 7
REMARK VINA RESULT:      -6.6      1.492      4.119
REMARK  2 active torsions:
REMARK  status: ('A' for Active; 'I' for Inactive)
REMARK       I    between atoms: C_2  and  N_1 
REMARK       I    between atoms: N_8  and  C_2 
REMARK    1  A    between atoms: C_15  and  N_8 
REMARK    2  A    between atoms: C_9  and  C_15 
ROOT
ATOM      1  N   UNL d   1     -48.937  13.171  23.198  0.00  0.00    -0.258 N 
ATOM      2  C   UNL d   1     -48.211  12.794  23.315  0.00  0.00     0.354 C 
ATOM      3  S   UNL d   1     -50.375  13.956  22.954  0.00  0.00    -0.084 SA
ATOM      4  C   UNL d   1     -48.946  13.966  22.949  0.00  0.00     0.074 A 
ATOM      5  C   UNL d   1     -49.634  12.767  23.326  0.00  0.00     0.074 A 
ATOM      6  C   UNL d   1     -49.668  14.362  22.826  0.00  0.00     0.046 A 
ATOM      7  C   UNL d   1     -50.358  13.163  23.203  0.00  0.00     0.046 A 
ATOM      8  N   UNL d   1     -47.434  13.248  23.171  0.00  0.00    -0.189 NA
ATOM      9  O   UNL d   1     -48.208  11.929  23.586  0.00  0.00    -0.244 OA
ATOM     10  C   UNL d   1     -49.625  11.988  23.570  0.00  0.00     0.018 A 
ATOM     11  C   UNL d   1     -48.244  14.365  22.822  0.00  0.00     0.018 A 
ATOM     12  C   UNL d   1     -49.673  15.139  22.582  0.00  0.00     0.008 A 
ATOM     13  C   UNL d   1     -51.064  12.763  23.330  0.00  0.00     0.008 A 
ATOM     14  C   UNL d   1     -48.252  15.148  22.577  0.00  0.00     0.002 A 
ATOM     15  C   UNL d   1     -50.333  11.584  23.698  0.00  0.00     0.002 A 
ATOM     16  C   UNL d   1     -51.060  11.974  23.577  0.00  0.00     0.001 A 
ATOM     17  C   UNL d   1     -48.979  15.545  22.454  0.00  0.00     0.001 A 
ENDROOT
BRANCH   8  18
ATOM     18  C   UNL d   1     -46.712  12.869  23.289  0.00  0.00     0.128 C 
BRANCH  18  19
ATOM     19  C   UNL d   1     -46.065  13.046  22.805  0.00  0.00     0.119 A 
ATOM     20  O   UNL d   1     -45.610  13.736  22.832  0.00  0.00    -0.304 OA
ATOM     21  C   UNL d   1     -45.024  13.681  22.253  0.00  0.00     0.123 A 
ATOM     22  C   UNL d   1     -45.116  12.958  21.867  0.00  0.00     0.029 A 
ATOM     23  C   UNL d   1     -45.757  12.567  22.207  0.00  0.00     0.028 A 
ENDBRANCH  18  19
ENDBRANCH   8  18
TORSDOF 2
ENDMDL
MODEL 8
REMARK VINA RESULT:      -6.4      8.946     10.052
REMARK  2 active torsions:
REMARK  status: ('A' for Active; 'I' for Inactive)
REMARK       I    between atoms: C_2  and  N_1 
REMARK       I    between atoms: N_8  and  C_2 
REMARK    1  A    between atoms: C_15  and  N_8 
REMARK    2  A    between atoms: C_9  and  C_15 
ROOT
ATOM      1  N   UNL d   1     -39.899  14.644  18.577  0.00  0.00    -0.258 N 
ATOM      2  C   UNL d   1     -40.057  14.828  19.366  0.00  0.00     0.354 C 
ATOM      3  S   UNL d   1     -39.556  14.250  17.005  0.00  0.00    -0.084 SA
ATOM      4  C   UNL d   1     -39.308  14.083  18.402  0.00  0.00     0.074 A 
ATOM      5  C   UNL d   1     -40.317  15.007  17.978  0.00  0.00     0.074 A 
ATOM      6  C   UNL d   1     -39.135  13.884  17.612  0.00  0.00     0.046 A 
ATOM      7  C   UNL d   1     -40.144  14.809  17.187  0.00  0.00     0.046 A 
ATOM      8  N   UNL d   1     -39.587  14.420  20.032  0.00  0.00    -0.189 NA
ATOM      9  O   UNL d   1     -40.700  15.439  19.550  0.00  0.00    -0.244 OA
ATOM     10  C   UNL d   1     -40.896  15.557  18.150  0.00  0.00     0.018 A 
ATOM     11  C   UNL d   1     -38.892  13.721  19.006  0.00  0.00     0.018 A 
ATOM     12  C   UNL d   1     -38.556  13.335  17.444  0.00  0.00     0.008 A 
ATOM     13  C   UNL d   1     -40.562  15.171  16.579  0.00  0.00     0.008 A 
ATOM     14  C   UNL d   1     -38.310  13.169  18.834  0.00  0.00     0.002 A 
ATOM     15  C   UNL d   1     -41.316  15.922  17.541  0.00  0.00     0.002 A 
ATOM     16  C   UNL d   1     -41.149  15.729  16.748  0.00  0.00     0.001 A 
ATOM     17  C   UNL d   1     -38.137  12.970  18.040  0.00  0.00     0.001 A 
ENDROOT
BRANCH   8  18
ATOM     18  C   UNL d   1     -39.748  14.607  20.818  0.00  0.00     0.128 C 
BRANCH  18  19
ATOM     19  C   UNL d   1     -39.259  14.322  21.422  0.00  0.00     0.119 A 
ATOM     20  O   UNL d   1     -38.527  14.635  21.645  0.00  0.00    -0.304 OA
ATOM     21  C   UNL d   1     -38.233  14.181  22.269  0.00  0.00     0.123 A 
ATOM     22  C   UNL d   1     -38.781  13.588  22.433  0.00  0.00     0.029 A 
ATOM     23  C   UNL d   1     -39.414  13.675  21.910  0.00  0.00     0.028 A 
ENDBRANCH  18  19
ENDBRANCH   8  18
TORSDOF 2
ENDMDL
MODEL 9
REMARK VINA RESULT:      -6.2      8.548      9.866
REMARK  2 active torsions:
REMARK  status: ('A' for Active; 'I' for Inactive)
REMARK       I    between atoms: C_2  and  N_1 
REMARK       I    between atoms: N_8  and  C_2 
REMARK    1  A    between atoms: C_15  and  N_8 
REMARK    2  A    between atoms: C_9  and  C_15 
ROOT
ATOM      1  N   UNL d   1     -39.464  14.470  19.434  0.00  0.00    -0.258 N 
ATOM      2  C   UNL d   1     -38.919  14.038  19.882  0.00  0.00     0.354 C 
ATOM      3  S   UNL d   1     -40.568  15.348  18.567  0.00  0.00    -0.084 SA
ATOM      4  C   UNL d   1     -40.017  14.954  19.825  0.00  0.00     0.074 A 
ATOM      5  C   UNL d   1     -39.457  14.420  18.620  0.00  0.00     0.074 A 
ATOM      6  C   UNL d   1     -40.573  15.396  19.390  0.00  0.00     0.046 A 
ATOM      7  C   UNL d   1     -40.014  14.862  18.184  0.00  0.00     0.046 A 
ATOM      8  N   UNL d   1     -38.930  14.097  20.791  0.00  0.00    -0.189 NA
ATOM      9  O   UNL d   1     -38.320  13.512  19.451  0.00  0.00    -0.244 OA
ATOM     10  C   UNL d   1     -38.915  13.944  18.237  0.00  0.00     0.018 A 
ATOM     11  C   UNL d   1     -40.019  15.001  20.641  0.00  0.00     0.018 A 
ATOM     12  C   UNL d   1     -41.112  15.870  19.776  0.00  0.00     0.008 A 
ATOM     13  C   UNL d   1     -40.012  14.816  17.364  0.00  0.00     0.008 A 
ATOM     14  C   UNL d   1     -40.563  15.478  21.027  0.00  0.00     0.002 A 
ATOM     15  C   UNL d   1     -38.912  13.896  17.414  0.00  0.00     0.002 A 
ATOM     16  C   UNL d   1     -39.465  14.336  16.971  0.00  0.00     0.001 A 
ATOM     17  C   UNL d   1     -41.121  15.922  20.589  0.00  0.00     0.001 A 
ENDROOT
BRANCH   8  18
ATOM     18  C   UNL d   1     -38.385  13.665  21.234  0.00  0.00     0.128 C 
BRANCH  18  19
ATOM     19  C   UNL d   1     -38.340  13.769  22.054  0.00  0.00     0.119 A 
ATOM     20  O   UNL d   1     -37.941  14.375  22.448  0.00  0.00    -0.304 OA
ATOM     21  C   UNL d   1     -38.041  14.265  23.260  0.00  0.00     0.123 A 
ATOM     22  C   UNL d   1     -38.502  13.590  23.370  0.00  0.00     0.029 A 
ATOM     23  C   UNL d   1     -38.686  13.285  22.626  0.00  0.00     0.028 A 
ENDBRANCH  18  19
ENDBRANCH   8  18
TORSDOF 2
ENDMDL
