MODEL 1
REMARK VINA RESULT:      -3.9      0.000      0.000
REMARK  5 active torsions:
REMARK  status: ('A' for Active; 'I' for Inactive)
REMARK    1  A    between atoms: C_2  and  S_1 
REMARK    2  A    between atoms: N_3  and  S_1 
REMARK    3  A    between atoms: C_5  and  C_6 
REMARK       I    between atoms: N_10  and  C_5 
REMARK    4  A    between atoms: C_22  and  N_10 
REMARK    5  A    between atoms: C_21  and  C_22 
ROOT
ATOM      1  C   UNL d   1      31.597  16.804 -24.020  0.00  0.00     0.104 A 
ATOM      2  C   UNL d   1      31.798  17.597 -23.919  0.00  0.00     0.018 A 
ATOM      3  C   UNL d   1      32.584  17.836 -23.997  0.00  0.00     0.059 A 
ATOM      4  C   UNL d   1      32.183  16.249 -24.200  0.00  0.00     0.012 A 
ATOM      5  C   UNL d   1      33.168  17.283 -24.177  0.00  0.00     0.005 A 
ATOM      6  C   UNL d   1      32.965  16.482 -24.279  0.00  0.00     0.001 A 
ATOM      7  C   UNL d   1      31.990  15.453 -24.303  0.00  0.00     0.001 C 
ENDROOT
BRANCH   3   8
ATOM      8  C   UNL d   1      32.786  18.634 -23.896  0.00  0.00     0.279 C 
ATOM      9  N   UNL d   1      32.907  18.936 -23.140  0.00  0.00    -0.206 NA
ATOM     10  O   UNL d   1      32.866  19.128 -24.559  0.00  0.00    -0.265 OA
BRANCH   9  11
ATOM     11  C   UNL d   1      33.110  19.739 -23.045  0.00  0.00     0.102 C 
BRANCH  11  12
ATOM     12  C   UNL d   1      33.084  20.081 -22.283  0.00  0.00     0.021 A 
ATOM     13  C   UNL d   1      32.898  20.889 -22.197  0.00  0.00     0.028 A 
ATOM     14  C   UNL d   1      32.872  21.229 -21.447  0.00  0.00     0.119 A 
ATOM     15  O   UNL d   1      32.709  21.993 -21.191  0.00  0.00    -0.300 OA
ATOM     16  C   UNL d   1      33.029  20.768 -20.783  0.00  0.00     0.119 A 
ATOM     17  C   UNL d   1      32.766  22.004 -20.367  0.00  0.00     0.304 A 
ATOM     18  O   UNL d   1      32.963  21.252 -20.110  0.00  0.00    -0.300 OA
ATOM     19  C   UNL d   1      33.215  19.960 -20.869  0.00  0.00     0.026 A 
ATOM     20  C   UNL d   1      33.241  19.621 -21.619  0.00  0.00     0.004 A 
ENDBRANCH  11  12
ENDBRANCH   9  11
ENDBRANCH   3   8
BRANCH   1  21
ATOM     21  S   UNL d   1      30.802  16.553 -23.942  0.00  0.00     0.271 S 
ATOM     22  O   UNL d   1      30.642  16.854 -24.706  0.00  0.00    -0.200 OA
ATOM     23  O   UNL d   1      30.970  16.257 -23.187  0.00  0.00    -0.200 OA
BRANCH  21  24
ATOM     24  N   UNL d   1      30.012  16.305 -23.866  0.00  0.00    -0.229 N 
ATOM     25  C   UNL d   1      29.766  15.905 -23.176  0.00  0.00     0.092 A 
ATOM     26  C   UNL d   1      28.982  15.659 -23.100  0.00  0.00     0.020 A 
ATOM     27  C   UNL d   1      28.442  15.806 -23.705  0.00  0.00     0.003 A 
ATOM     28  C   UNL d   1      28.687  16.203 -24.390  0.00  0.00     0.020 A 
ATOM     29  C   UNL d   1      29.468  16.450 -24.469  0.00  0.00     0.092 A 
ENDBRANCH  21  24
ENDBRANCH   1  21
TORSDOF 5
ENDMDL
MODEL 2
REMARK VINA RESULT:      -1.9      1.594      5.713
REMARK  5 active torsions:
REMARK  status: ('A' for Active; 'I' for Inactive)
REMARK    1  A    between atoms: C_2  and  S_1 
REMARK    2  A    between atoms: N_3  and  S_1 
REMARK    3  A    between atoms: C_5  and  C_6 
REMARK       I    between atoms: N_10  and  C_5 
REMARK    4  A    between atoms: C_22  and  N_10 
REMARK    5  A    between atoms: C_21  and  C_22 
ROOT
ATOM      1  C   UNL d   1      32.922  20.461 -21.853  0.00  0.00     0.104 A 
ATOM      2  C   UNL d   1      32.827  20.173 -22.620  0.00  0.00     0.018 A 
ATOM      3  C   UNL d   1      32.939  19.369 -22.775  0.00  0.00     0.059 A 
ATOM      4  C   UNL d   1      33.128  19.947 -21.241  0.00  0.00     0.012 A 
ATOM      5  C   UNL d   1      33.145  18.856 -22.164  0.00  0.00     0.005 A 
ATOM      6  C   UNL d   1      33.241  19.148 -21.390  0.00  0.00     0.001 A 
ATOM      7  C   UNL d   1      33.225  20.227 -20.471  0.00  0.00     0.001 C 
ENDROOT
BRANCH   3   8
ATOM      8  C   UNL d   1      32.844  19.079 -23.546  0.00  0.00     0.279 C 
ATOM      9  N   UNL d   1      32.357  18.430 -23.685  0.00  0.00    -0.206 NA
ATOM     10  O   UNL d   1      33.241  19.445 -24.177  0.00  0.00    -0.265 OA
BRANCH   9  11
ATOM     11  C   UNL d   1      32.266  18.144 -24.462  0.00  0.00     0.102 C 
BRANCH  11  12
ATOM     12  C   UNL d   1      31.671  17.579 -24.624  0.00  0.00     0.021 A 
ATOM     13  C   UNL d   1      30.869  17.804 -24.611  0.00  0.00     0.028 A 
ATOM     14  C   UNL d   1      30.282  17.249 -24.770  0.00  0.00     0.119 A 
ATOM     15  O   UNL d   1      29.462  17.303 -24.798  0.00  0.00    -0.300 OA
ATOM     16  C   UNL d   1      30.490  16.471 -24.943  0.00  0.00     0.119 A 
ATOM     17  C   UNL d   1      29.163  16.558 -24.988  0.00  0.00     0.304 A 
ATOM     18  O   UNL d   1      29.791  16.041 -25.078  0.00  0.00    -0.300 OA
ATOM     19  C   UNL d   1      31.292  16.246 -24.956  0.00  0.00     0.026 A 
ATOM     20  C   UNL d   1      31.878  16.801 -24.797  0.00  0.00     0.004 A 
ENDBRANCH  11  12
ENDBRANCH   9  11
ENDBRANCH   3   8
BRANCH   1  21
ATOM     21  S   UNL d   1      32.810  21.274 -21.689  0.00  0.00     0.271 S 
ATOM     22  O   UNL d   1      32.427  21.068 -20.974  0.00  0.00    -0.200 OA
ATOM     23  O   UNL d   1      33.190  21.470 -22.398  0.00  0.00    -0.200 OA
BRANCH  21  24
ATOM     24  N   UNL d   1      32.699  22.082 -21.524  0.00  0.00    -0.229 N 
ATOM     25  C   UNL d   1      32.354  22.315 -20.800  0.00  0.00     0.092 A 
ATOM     26  C   UNL d   1      32.243  23.116 -20.636  0.00  0.00     0.020 A 
ATOM     27  C   UNL d   1      32.472  23.686 -21.186  0.00  0.00     0.003 A 
ATOM     28  C   UNL d   1      32.815  23.453 -21.904  0.00  0.00     0.020 A 
ATOM     29  C   UNL d   1      32.927  22.655 -22.071  0.00  0.00     0.092 A 
ENDBRANCH  21  24
ENDBRANCH   1  21
TORSDOF 5
ENDMDL
MODEL 3
REMARK VINA RESULT:      -1.7      1.407      5.423
REMARK  5 active torsions:
REMARK  status: ('A' for Active; 'I' for Inactive)
REMARK    1  A    between atoms: C_2  and  S_1 
REMARK    2  A    between atoms: N_3  and  S_1 
REMARK    3  A    between atoms: C_5  and  C_6 
REMARK       I    between atoms: N_10  and  C_5 
REMARK    4  A    between atoms: C_22  and  N_10 
REMARK    5  A    between atoms: C_21  and  C_22 
ROOT
ATOM      1  C   UNL d   1      32.649  18.714 -23.538  0.00  0.00     0.104 A 
ATOM      2  C   UNL d   1      32.301  17.986 -23.363  0.00  0.00     0.018 A 
ATOM      3  C   UNL d   1      32.194  17.426 -23.961  0.00  0.00     0.059 A 
ATOM      4  C   UNL d   1      32.890  18.881 -24.311  0.00  0.00     0.012 A 
ATOM      5  C   UNL d   1      32.435  17.593 -24.731  0.00  0.00     0.005 A 
ATOM      6  C   UNL d   1      32.787  18.328 -24.907  0.00  0.00     0.001 A 
ATOM      7  C   UNL d   1      33.239  19.606 -24.495  0.00  0.00     0.001 C 
ENDROOT
BRANCH   3   8
ATOM      8  C   UNL d   1      31.845  16.696 -23.785  0.00  0.00     0.279 C 
ATOM      9  N   UNL d   1      31.085  16.526 -24.053  0.00  0.00    -0.206 NA
ATOM     10  O   UNL d   1      32.263  16.135 -23.337  0.00  0.00    -0.265 OA
BRANCH   9  11
ATOM     11  C   UNL d   1      30.740  15.789 -23.873  0.00  0.00     0.102 C 
BRANCH  11  12
ATOM     12  C   UNL d   1      29.911  15.700 -23.931  0.00  0.00     0.021 A 
ATOM     13  C   UNL d   1      29.442  15.723 -23.243  0.00  0.00     0.028 A 
ATOM     14  C   UNL d   1      28.625  15.635 -23.297  0.00  0.00     0.119 A 
ATOM     15  O   UNL d   1      28.028  15.632 -22.731  0.00  0.00    -0.300 OA
ATOM     16  C   UNL d   1      28.273  15.524 -24.034  0.00  0.00     0.119 A 
ATOM     17  C   UNL d   1      27.308  15.520 -23.118  0.00  0.00     0.304 A 
ATOM     18  O   UNL d   1      27.452  15.453 -23.921  0.00  0.00    -0.300 OA
ATOM     19  C   UNL d   1      28.742  15.501 -24.722  0.00  0.00     0.026 A 
ATOM     20  C   UNL d   1      29.559  15.589 -24.666  0.00  0.00     0.004 A 
ENDBRANCH  11  12
ENDBRANCH   9  11
ENDBRANCH   3   8
BRANCH   1  21
ATOM     21  S   UNL d   1      32.761  19.287 -22.939  0.00  0.00     0.271 S 
ATOM     22  O   UNL d   1      32.275  19.816 -23.367  0.00  0.00    -0.200 OA
ATOM     23  O   UNL d   1      33.240  18.756 -22.522  0.00  0.00    -0.200 OA
BRANCH  21  24
ATOM     24  N   UNL d   1      32.871  19.857 -22.344  0.00  0.00    -0.229 N 
ATOM     25  C   UNL d   1      32.998  19.616 -21.555  0.00  0.00     0.092 A 
ATOM     26  C   UNL d   1      33.107  20.181 -20.964  0.00  0.00     0.020 A 
ATOM     27  C   UNL d   1      33.091  20.984 -21.152  0.00  0.00     0.003 A 
ATOM     28  C   UNL d   1      32.965  21.222 -21.936  0.00  0.00     0.020 A 
ATOM     29  C   UNL d   1      32.856  20.661 -22.528  0.00  0.00     0.092 A 
ENDBRANCH  21  24
ENDBRANCH   1  21
TORSDOF 5
ENDMDL
MODEL 4
REMARK VINA RESULT:      -1.6      2.156      6.360
REMARK  5 active torsions:
REMARK  status: ('A' for Active; 'I' for Inactive)
REMARK    1  A    between atoms: C_2  and  S_1 
REMARK    2  A    between atoms: N_3  and  S_1 
REMARK    3  A    between atoms: C_5  and  C_6 
REMARK       I    between atoms: N_10  and  C_5 
REMARK    4  A    between atoms: C_22  and  N_10 
REMARK    5  A    between atoms: C_21  and  C_22 
ROOT
ATOM      1  C   UNL d   1      32.649  22.152 -21.077  0.00  0.00     0.104 A 
ATOM      2  C   UNL d   1      32.825  21.347 -21.124  0.00  0.00     0.018 A 
ATOM      3  C   UNL d   1      32.856  20.974 -21.860  0.00  0.00     0.059 A 
ATOM      4  C   UNL d   1      32.505  22.584 -21.767  0.00  0.00     0.012 A 
ATOM      5  C   UNL d   1      32.712  21.404 -22.547  0.00  0.00     0.005 A 
ATOM      6  C   UNL d   1      32.534  22.217 -22.500  0.00  0.00     0.001 A 
ATOM      7  C   UNL d   1      32.328  23.389 -21.730  0.00  0.00     0.001 C 
ENDROOT
BRANCH   3   8
ATOM      8  C   UNL d   1      33.033  20.166 -21.906  0.00  0.00     0.279 C 
ATOM      9  N   UNL d   1      33.058  19.790 -22.638  0.00  0.00    -0.206 NA
ATOM     10  O   UNL d   1      33.185  19.735 -21.212  0.00  0.00    -0.265 OA
BRANCH   9  11
ATOM     11  C   UNL d   1      33.236  18.977 -22.677  0.00  0.00     0.102 C 
BRANCH  11  12
ATOM     12  C   UNL d   1      32.924  18.518 -23.302  0.00  0.00     0.021 A 
ATOM     13  C   UNL d   1      32.439  17.862 -23.134  0.00  0.00     0.028 A 
ATOM     14  C   UNL d   1      32.130  17.408 -23.748  0.00  0.00     0.119 A 
ATOM     15  O   UNL d   1      31.645  16.743 -23.757  0.00  0.00    -0.300 OA
ATOM     16  C   UNL d   1      32.302  17.605 -24.529  0.00  0.00     0.119 A 
ATOM     17  C   UNL d   1      31.518  16.530 -24.544  0.00  0.00     0.304 A 
ATOM     18  O   UNL d   1      31.920  17.057 -25.024  0.00  0.00    -0.300 OA
ATOM     19  C   UNL d   1      32.787  18.261 -24.697  0.00  0.00     0.026 A 
ATOM     20  C   UNL d   1      33.095  18.714 -24.083  0.00  0.00     0.004 A 
ENDBRANCH  11  12
ENDBRANCH   9  11
ENDBRANCH   3   8
BRANCH   1  21
ATOM     21  S   UNL d   1      32.616  22.538 -20.335  0.00  0.00     0.271 S 
ATOM     22  O   UNL d   1      33.241  23.038 -20.577  0.00  0.00    -0.200 OA
ATOM     23  O   UNL d   1      31.997  22.038 -20.104  0.00  0.00    -0.200 OA
BRANCH  21  24
ATOM     24  N   UNL d   1      32.583  22.922 -19.599  0.00  0.00    -0.229 N 
ATOM     25  C   UNL d   1      31.888  23.321 -19.367  0.00  0.00     0.092 A 
ATOM     26  C   UNL d   1      31.855  23.702 -18.636  0.00  0.00     0.020 A 
ATOM     27  C   UNL d   1      32.509  23.690 -18.134  0.00  0.00     0.003 A 
ATOM     28  C   UNL d   1      33.200  23.294 -18.365  0.00  0.00     0.020 A 
ATOM     29  C   UNL d   1      33.236  22.912 -19.093  0.00  0.00     0.092 A 
ENDBRANCH  21  24
ENDBRANCH   1  21
TORSDOF 5
ENDMDL
