MODEL 1
REMARK VINA RESULT:      14.1      0.000      0.000
REMARK  1 active torsions:
REMARK  status: ('A' for Active; 'I' for Inactive)
REMARK       I    between atoms: N_2  and  C_1 
REMARK    1  A    between atoms: C_4  and  N_2 
ROOT
ATOM      1  C   UNL d   1     -56.284 -99.362 -44.366  0.00  0.00     0.101 A 
ATOM      2  C   UNL d   1     -55.954-100.112 -44.268  0.00  0.00     0.031 A 
ATOM      3  C   UNL d   1     -55.174-100.255 -44.514  0.00  0.00     0.059 A 
ATOM      4 CL   UNL d   1     -54.844-101.005 -44.416  0.00  0.00    -0.082 Cl
ATOM      5  C   UNL d   1     -55.060 -98.900 -44.951  0.00  0.00     0.002 A 
ATOM      6  C   UNL d   1     -55.834 -98.755 -44.708  0.00  0.00     0.020 A 
ATOM      7  C   UNL d   1     -54.730 -99.649 -44.853  0.00  0.00     0.011 A 
ENDROOT
BRANCH   1   8
ATOM      8  N   UNL d   1     -57.059 -99.214 -44.124  0.00  0.00    -0.056 NA
ATOM      9  C   UNL d   1     -57.609 -98.913 -44.657  0.00  0.00     0.787 C 
ATOM     10  N   UNL d   1     -58.383 -98.764 -44.418  0.00  0.00     0.064 N 
ATOM     11  N   UNL d   1     -57.379 -98.760 -45.434  0.00  0.00     0.064 N 
ENDBRANCH   1   8
TORSDOF 1
ENDMDL
MODEL 2
REMARK VINA RESULT:      14.7      2.070      2.787
REMARK  1 active torsions:
REMARK  status: ('A' for Active; 'I' for Inactive)
REMARK       I    between atoms: N_2  and  C_1 
REMARK    1  A    between atoms: C_4  and  N_2 
ROOT
ATOM      1  C   UNL d   1     -55.336-100.358 -44.667  0.00  0.00     0.101 A 
ATOM      2  C   UNL d   1     -56.077-100.014 -44.782  0.00  0.00     0.031 A 
ATOM      3  C   UNL d   1     -56.193 -99.212 -44.596  0.00  0.00     0.059 A 
ATOM      4 CL   UNL d   1     -56.934 -98.868 -44.711  0.00  0.00    -0.082 Cl
ATOM      5  C   UNL d   1     -54.830 -99.107 -44.183  0.00  0.00     0.002 A 
ATOM      6  C   UNL d   1     -54.712 -99.901 -44.367  0.00  0.00     0.020 A 
ATOM      7  C   UNL d   1     -55.570 -98.762 -44.298  0.00  0.00     0.011 A 
ENDROOT
BRANCH   1   8
ATOM      8  N   UNL d   1     -55.214-101.153 -44.849  0.00  0.00    -0.056 NA
ATOM      9  C   UNL d   1     -54.906-101.666 -44.284  0.00  0.00     0.787 C 
ATOM     10  N   UNL d   1     -54.784-102.460 -44.464  0.00  0.00     0.064 N 
ATOM     11  N   UNL d   1     -54.720-101.378 -43.534  0.00  0.00     0.064 N 
ENDBRANCH   1   8
TORSDOF 1
ENDMDL
