MODEL 1
REMARK VINA RESULT:      -2.8      0.000      0.000
REMARK  5 active torsions:
REMARK  status: ('A' for Active; 'I' for Inactive)
REMARK    1  A    between atoms: C_2  and  C_1 
REMARK    2  A    between atoms: N_5  and  C_2 
REMARK    3  A    between atoms: C_12  and  C_4 
REMARK    4  A    between atoms: C_24  and  N_9 
REMARK    5  A    between atoms: C_19  and  C_24 
ROOT
ATOM      1  N   UNL d   1      27.267  15.453 -23.527  0.00  0.00    -0.191 NA
ATOM      2  C   UNL d   1      27.921  15.955 -23.503  0.00  0.00     0.103 C 
ATOM      3  C   UNL d   1      28.573  16.457 -23.476  0.00  0.00     0.097 C 
ENDROOT
BRANCH   3   4
ATOM      4  C   UNL d   1      28.937  16.689 -24.173  0.00  0.00     0.091 C 
BRANCH   4   5
ATOM      5  N   UNL d   1      29.758  16.793 -24.199  0.00  0.00    -0.299 N 
ATOM      6  C   UNL d   1      30.225  16.496 -23.589  0.00  0.00     0.100 A 
ATOM      7  C   UNL d   1      31.043  16.597 -23.612  0.00  0.00     0.100 A 
ATOM      8  N   UNL d   1      31.392  16.995 -24.245  0.00  0.00    -0.291 N 
ATOM      9  C   UNL d   1      30.927  17.294 -24.858  0.00  0.00     0.100 A 
ATOM     10  C   UNL d   1      30.106  17.190 -24.832  0.00  0.00     0.100 A 
BRANCH   8  11
ATOM     11  C   UNL d   1      32.205  17.093 -24.263  0.00  0.00     0.143 C 
ATOM     12  S   UNL d   1      32.692  16.472 -24.500  0.00  0.00    -0.057 SA
BRANCH  11  13
ATOM     13  C   UNL d   1      32.541  17.815 -24.045  0.00  0.00     0.126 A 
ATOM     14  O   UNL d   1      32.452  18.196 -23.321  0.00  0.00    -0.305 OA
ATOM     15  C   UNL d   1      32.884  18.902 -23.340  0.00  0.00     0.100 A 
ATOM     16  C   UNL d   1      33.241  18.953 -24.085  0.00  0.00     0.027 A 
ATOM     17  C   UNL d   1      33.029  18.282 -24.518  0.00  0.00     0.029 A 
BRANCH  15  18
ATOM     18  C   UNL d   1      32.949  19.455 -22.732  0.00  0.00     0.023 A 
ATOM     19  C   UNL d   1      33.173  19.213 -21.983  0.00  0.00     0.003 A 
ATOM     20  C   UNL d   1      33.238  19.762 -21.374  0.00  0.00     0.011 A 
ATOM     21  C   UNL d   1      33.077  20.565 -21.521  0.00  0.00     0.058 A 
ATOM     22  C   UNL d   1      32.850  20.805 -22.284  0.00  0.00     0.011 A 
ATOM     23 CL   UNL d   1      33.141  21.120 -20.915  0.00  0.00    -0.082 Cl
ATOM     24  C   UNL d   1      32.786  20.246 -22.888  0.00  0.00     0.003 A 
ENDBRANCH  15  18
ENDBRANCH  11  13
ENDBRANCH   8  11
ENDBRANCH   4   5
ENDBRANCH   3   4
TORSDOF 5
ENDMDL
MODEL 2
REMARK VINA RESULT:      -2.1      2.568      4.998
REMARK  5 active torsions:
REMARK  status: ('A' for Active; 'I' for Inactive)
REMARK    1  A    between atoms: C_2  and  C_1 
REMARK    2  A    between atoms: N_5  and  C_2 
REMARK    3  A    between atoms: C_12  and  C_4 
REMARK    4  A    between atoms: C_24  and  N_9 
REMARK    5  A    between atoms: C_19  and  C_24 
ROOT
ATOM      1  N   UNL d   1      32.512  22.793 -20.371  0.00  0.00    -0.191 NA
ATOM      2  C   UNL d   1      32.782  22.086 -20.701  0.00  0.00     0.103 C 
ATOM      3  C   UNL d   1      33.054  21.383 -21.029  0.00  0.00     0.097 C 
ENDROOT
BRANCH   3   4
ATOM      4  C   UNL d   1      32.535  20.756 -21.138  0.00  0.00     0.091 C 
BRANCH   4   5
ATOM      5  N   UNL d   1      32.603  20.270 -21.804  0.00  0.00    -0.299 N 
ATOM      6  C   UNL d   1      33.044  19.576 -21.757  0.00  0.00     0.100 A 
ATOM      7  C   UNL d   1      33.114  19.089 -22.419  0.00  0.00     0.100 A 
ATOM      8  N   UNL d   1      32.744  19.297 -23.126  0.00  0.00    -0.291 N 
ATOM      9  C   UNL d   1      32.301  19.993 -23.177  0.00  0.00     0.100 A 
ATOM     10  C   UNL d   1      32.233  20.479 -22.510  0.00  0.00     0.100 A 
BRANCH   8  11
ATOM     11  C   UNL d   1      32.816  18.811 -23.781  0.00  0.00     0.143 C 
ATOM     12  S   UNL d   1      33.241  19.065 -24.440  0.00  0.00    -0.057 SA
BRANCH  11  13
ATOM     13  C   UNL d   1      32.463  18.065 -23.785  0.00  0.00     0.126 A 
ATOM     14  O   UNL d   1      31.670  17.900 -23.929  0.00  0.00    -0.305 OA
ATOM     15  C   UNL d   1      31.557  17.082 -23.879  0.00  0.00     0.100 A 
ATOM     16  C   UNL d   1      32.291  16.742 -23.704  0.00  0.00     0.027 A 
ATOM     17  C   UNL d   1      32.848  17.349 -23.646  0.00  0.00     0.029 A 
BRANCH  15  18
ATOM     18  C   UNL d   1      30.848  16.676 -23.985  0.00  0.00     0.023 A 
ATOM     19  C   UNL d   1      30.628  16.094 -23.452  0.00  0.00     0.003 A 
ATOM     20  C   UNL d   1      29.921  15.688 -23.555  0.00  0.00     0.011 A 
ATOM     21  C   UNL d   1      29.428  15.868 -24.201  0.00  0.00     0.058 A 
ATOM     22  C   UNL d   1      29.656  16.460 -24.738  0.00  0.00     0.011 A 
ATOM     23 CL   UNL d   1      28.717  15.464 -24.309  0.00  0.00    -0.082 Cl
ATOM     24  C   UNL d   1      30.368  16.862 -24.626  0.00  0.00     0.003 A 
ENDBRANCH  15  18
ENDBRANCH  11  13
ENDBRANCH   8  11
ENDBRANCH   4   5
ENDBRANCH   3   4
TORSDOF 5
ENDMDL
