MODEL 1
REMARK VINA RESULT:      -3.0      0.000      0.000
REMARK  4 active torsions:
REMARK  status: ('A' for Active; 'I' for Inactive)
REMARK    1  A    between atoms: C_10  and  N_1 
REMARK    2  A    between atoms: C_14  and  C_10 
REMARK    3  A    between atoms: O_16  and  C_12 
REMARK    4  A    between atoms: C_19  and  O_16 
ROOT
ATOM      1  N   UNL d   1      32.355  17.380 -23.789  0.00  0.00    -0.260 N 
ATOM      2  C   UNL d   1      31.729  17.653 -24.202  0.00  0.00     0.174 A 
ATOM      3  C   UNL d   1      32.507  16.728 -23.349  0.00  0.00     0.348 A 
ATOM      4  O   UNL d   1      30.987  17.389 -24.350  0.00  0.00    -0.314 OA
ATOM      5  N   UNL d   1      32.092  16.085 -23.144  0.00  0.00    -0.216 NA
ATOM      6  C   UNL d   1      31.347  15.817 -23.292  0.00  0.00     0.137 A 
ATOM      7  C   UNL d   1      31.857  16.695 -23.594  0.00  0.00     0.079 A 
ATOM      8  C   UNL d   1      30.574  16.736 -24.139  0.00  0.00     0.116 A 
ATOM      9  C   UNL d   1      30.724  16.091 -23.703  0.00  0.00     0.025 A 
ATOM     10  O   UNL d   1      33.241  16.729 -23.051  0.00  0.00    -0.245 OA
ATOM     11  C   UNL d   1      29.853  16.826 -24.484  0.00  0.00     0.122 A 
ATOM     12  C   UNL d   1      31.726  18.348 -24.606  0.00  0.00     0.055 C 
ATOM     13  C   UNL d   1      30.164  15.527 -23.604  0.00  0.00    -0.000 A 
ATOM     14  C   UNL d   1      29.447  15.619 -23.948  0.00  0.00     0.002 A 
ATOM     15  C   UNL d   1      29.291  16.269 -24.389  0.00  0.00     0.027 A 
ENDROOT
BRANCH   1  16
ATOM     16  C   UNL d   1      33.087  17.755 -23.709  0.00  0.00     0.082 C 
BRANCH  16  17
ATOM     17  C   UNL d   1      33.135  18.478 -23.299  0.00  0.00     0.017 A 
ATOM     18  C   UNL d   1      33.179  19.190 -23.722  0.00  0.00     0.002 A 
ATOM     19  C   UNL d   1      33.226  19.914 -23.312  0.00  0.00     0.000 A 
ATOM     20  C   UNL d   1      33.229  19.920 -22.480  0.00  0.00     0.000 A 
ATOM     21  C   UNL d   1      33.185  19.200 -22.063  0.00  0.00     0.000 A 
ATOM     22  C   UNL d   1      33.138  18.485 -22.472  0.00  0.00     0.002 A 
ENDBRANCH  16  17
ENDBRANCH   1  16
BRANCH  11  23
ATOM     23  O   UNL d   1      29.695  17.498 -24.937  0.00  0.00    -0.303 OA
BRANCH  23  24
ATOM     24  C   UNL d   1      28.915  17.720 -25.086  0.00  0.00     0.123 C 
ATOM     25  C   UNL d   1      28.713  18.525 -25.097  0.00  0.00     0.029 C 
ENDBRANCH  23  24
ENDBRANCH  11  23
TORSDOF 4
ENDMDL
MODEL 2
REMARK VINA RESULT:      -2.6      1.747      4.617
REMARK  4 active torsions:
REMARK  status: ('A' for Active; 'I' for Inactive)
REMARK    1  A    between atoms: C_10  and  N_1 
REMARK    2  A    between atoms: C_14  and  C_10 
REMARK    3  A    between atoms: O_16  and  C_12 
REMARK    4  A    between atoms: C_19  and  O_16 
ROOT
ATOM      1  N   UNL d   1      33.186  18.896 -23.775  0.00  0.00    -0.260 N 
ATOM      2  C   UNL d   1      33.194  19.087 -23.000  0.00  0.00     0.174 A 
ATOM      3  C   UNL d   1      33.188  19.306 -24.463  0.00  0.00     0.348 A 
ATOM      4  O   UNL d   1      33.207  19.771 -22.583  0.00  0.00    -0.314 OA
ATOM      5  N   UNL d   1      33.197  20.076 -24.652  0.00  0.00    -0.216 NA
ATOM      6  C   UNL d   1      33.210  20.764 -24.236  0.00  0.00     0.137 A 
ATOM      7  C   UNL d   1      33.198  19.751 -23.928  0.00  0.00     0.079 A 
ATOM      8  C   UNL d   1      33.216  20.546 -22.782  0.00  0.00     0.116 A 
ATOM      9  C   UNL d   1      33.218  20.952 -23.464  0.00  0.00     0.025 A 
ATOM     10  O   UNL d   1      33.177  18.832 -25.097  0.00  0.00    -0.245 OA
ATOM     11  C   UNL d   1      33.226  20.941 -22.082  0.00  0.00     0.122 A 
ATOM     12  C   UNL d   1      33.190  18.546 -22.403  0.00  0.00     0.055 C 
ATOM     13  C   UNL d   1      33.229  21.753 -23.460  0.00  0.00    -0.000 A 
ATOM     14  C   UNL d   1      33.239  22.145 -22.761  0.00  0.00     0.002 A 
ATOM     15  C   UNL d   1      33.238  21.738 -22.071  0.00  0.00     0.027 A 
ENDROOT
BRANCH   1  16
ATOM     16  C   UNL d   1      33.174  18.131 -24.088  0.00  0.00     0.082 C 
BRANCH  16  17
ATOM     17  C   UNL d   1      32.460  17.702 -24.092  0.00  0.00     0.017 A 
ATOM     18  C   UNL d   1      31.908  17.822 -24.699  0.00  0.00     0.002 A 
ATOM     19  C   UNL d   1      31.195  17.393 -24.702  0.00  0.00     0.000 A 
ATOM     20  C   UNL d   1      31.037  16.844 -24.097  0.00  0.00     0.000 A 
ATOM     21  C   UNL d   1      31.597  16.729 -23.491  0.00  0.00     0.000 A 
ATOM     22  C   UNL d   1      32.303  17.156 -23.490  0.00  0.00     0.002 A 
ENDBRANCH  16  17
ENDBRANCH   1  16
BRANCH  11  23
ATOM     23  O   UNL d   1      33.225  20.519 -21.372  0.00  0.00    -0.303 OA
BRANCH  23  24
ATOM     24  C   UNL d   1      33.071  20.909 -20.663  0.00  0.00     0.123 C 
ATOM     25  C   UNL d   1      33.231  20.527 -19.942  0.00  0.00     0.029 C 
ENDBRANCH  23  24
ENDBRANCH  11  23
TORSDOF 4
ENDMDL
MODEL 3
REMARK VINA RESULT:      -2.2      1.374      3.829
REMARK  4 active torsions:
REMARK  status: ('A' for Active; 'I' for Inactive)
REMARK    1  A    between atoms: C_10  and  N_1 
REMARK    2  A    between atoms: C_14  and  C_10 
REMARK    3  A    between atoms: O_16  and  C_12 
REMARK    4  A    between atoms: C_19  and  O_16 
ROOT
ATOM      1  N   UNL d   1      29.986  16.745 -24.614  0.00  0.00    -0.260 N 
ATOM      2  C   UNL d   1      30.467  17.306 -24.313  0.00  0.00     0.174 A 
ATOM      3  C   UNL d   1      30.066  15.974 -24.815  0.00  0.00     0.348 A 
ATOM      4  O   UNL d   1      31.235  17.335 -24.086  0.00  0.00    -0.314 OA
ATOM      5  N   UNL d   1      30.663  15.453 -24.797  0.00  0.00    -0.216 NA
ATOM      6  C   UNL d   1      31.435  15.479 -24.570  0.00  0.00     0.137 A 
ATOM      7  C   UNL d   1      30.672  16.214 -24.573  0.00  0.00     0.079 A 
ATOM      8  C   UNL d   1      31.833  16.803 -24.071  0.00  0.00     0.116 A 
ATOM      9  C   UNL d   1      31.912  16.040 -24.270  0.00  0.00     0.025 A 
ATOM     10  O   UNL d   1      29.395  15.663 -25.097  0.00  0.00    -0.245 OA
ATOM     11  C   UNL d   1      32.462  17.206 -23.774  0.00  0.00     0.122 A 
ATOM     12  C   UNL d   1      30.235  18.062 -24.159  0.00  0.00     0.055 C 
ATOM     13  C   UNL d   1      32.615  15.667 -24.179  0.00  0.00    -0.000 A 
ATOM     14  C   UNL d   1      33.241  16.070 -23.883  0.00  0.00     0.002 A 
ATOM     15  C   UNL d   1      33.164  16.841 -23.681  0.00  0.00     0.027 A 
ENDROOT
BRANCH   1  16
ATOM     16  C   UNL d   1      29.189  16.840 -24.813  0.00  0.00     0.082 C 
BRANCH  16  17
ATOM     17  C   UNL d   1      28.615  16.848 -24.210  0.00  0.00     0.017 A 
ATOM     18  C   UNL d   1      28.383  17.567 -23.869  0.00  0.00     0.002 A 
ATOM     19  C   UNL d   1      27.808  17.574 -23.266  0.00  0.00     0.000 A 
ATOM     20  C   UNL d   1      27.468  16.861 -23.008  0.00  0.00     0.000 A 
ATOM     21  C   UNL d   1      27.706  16.142 -23.357  0.00  0.00     0.000 A 
ATOM     22  C   UNL d   1      28.276  16.138 -23.953  0.00  0.00     0.002 A 
ENDBRANCH  16  17
ENDBRANCH   1  16
BRANCH  11  23
ATOM     23  O   UNL d   1      32.380  18.001 -23.566  0.00  0.00    -0.303 OA
BRANCH  23  24
ATOM     24  C   UNL d   1      32.985  18.384 -23.157  0.00  0.00     0.123 C 
ATOM     25  C   UNL d   1      32.899  19.184 -22.952  0.00  0.00     0.029 C 
ENDBRANCH  23  24
ENDBRANCH  11  23
TORSDOF 4
ENDMDL
MODEL 4
REMARK VINA RESULT:      -0.6      3.370      5.341
REMARK  4 active torsions:
REMARK  status: ('A' for Active; 'I' for Inactive)
REMARK    1  A    between atoms: C_10  and  N_1 
REMARK    2  A    between atoms: C_14  and  C_10 
REMARK    3  A    between atoms: O_16  and  C_12 
REMARK    4  A    between atoms: C_19  and  O_16 
ROOT
ATOM      1  N   UNL d   1      33.241  22.407 -22.454  0.00  0.00    -0.260 N 
ATOM      2  C   UNL d   1      33.241  21.625 -22.294  0.00  0.00     0.174 A 
ATOM      3  C   UNL d   1      33.241  22.852 -23.120  0.00  0.00     0.348 A 
ATOM      4  O   UNL d   1      33.240  20.955 -22.733  0.00  0.00    -0.314 OA
ATOM      5  N   UNL d   1      33.240  22.693 -23.897  0.00  0.00    -0.216 NA
ATOM      6  C   UNL d   1      33.240  22.021 -24.340  0.00  0.00     0.137 A 
ATOM      7  C   UNL d   1      33.241  22.178 -23.292  0.00  0.00     0.079 A 
ATOM      8  C   UNL d   1      33.240  20.802 -23.519  0.00  0.00     0.116 A 
ATOM      9  C   UNL d   1      33.240  21.243 -24.178  0.00  0.00     0.025 A 
ATOM     10  O   UNL d   1      33.241  23.628 -22.965  0.00  0.00    -0.245 OA
ATOM     11  C   UNL d   1      33.240  20.000 -23.575  0.00  0.00     0.122 A 
ATOM     12  C   UNL d   1      33.241  21.318 -21.550  0.00  0.00     0.055 C 
ATOM     13  C   UNL d   1      33.240  20.895 -24.900  0.00  0.00    -0.000 A 
ATOM     14  C   UNL d   1      33.240  20.096 -24.954  0.00  0.00     0.002 A 
ATOM     15  C   UNL d   1      33.240  19.648 -24.290  0.00  0.00     0.027 A 
ENDROOT
BRANCH   1  16
ATOM     16  C   UNL d   1      33.241  23.018 -21.899  0.00  0.00     0.082 C 
BRANCH  16  17
ATOM     17  C   UNL d   1      32.568  23.141 -21.424  0.00  0.00     0.017 A 
ATOM     18  C   UNL d   1      31.899  23.512 -21.743  0.00  0.00     0.002 A 
ATOM     19  C   UNL d   1      31.226  23.634 -21.268  0.00  0.00     0.000 A 
ATOM     20  C   UNL d   1      31.226  23.384 -20.475  0.00  0.00     0.000 A 
ATOM     21  C   UNL d   1      31.903  23.011 -20.162  0.00  0.00     0.000 A 
ATOM     22  C   UNL d   1      32.567  22.891 -20.634  0.00  0.00     0.002 A 
ENDBRANCH  16  17
ENDBRANCH   1  16
BRANCH  11  23
ATOM     23  O   UNL d   1      33.240  19.540 -22.889  0.00  0.00    -0.303 OA
BRANCH  23  24
ATOM     24  C   UNL d   1      32.802  18.842 -22.862  0.00  0.00     0.123 C 
ATOM     25  C   UNL d   1      33.064  18.212 -22.388  0.00  0.00     0.029 C 
ENDBRANCH  23  24
ENDBRANCH  11  23
TORSDOF 4
ENDMDL
MODEL 5
REMARK VINA RESULT:      -0.2      1.135      1.903
REMARK  4 active torsions:
REMARK  status: ('A' for Active; 'I' for Inactive)
REMARK    1  A    between atoms: C_10  and  N_1 
REMARK    2  A    between atoms: C_14  and  C_10 
REMARK    3  A    between atoms: O_16  and  C_12 
REMARK    4  A    between atoms: C_19  and  O_16 
ROOT
ATOM      1  N   UNL d   1      31.788  17.064 -23.929  0.00  0.00    -0.260 N 
ATOM      2  C   UNL d   1      31.348  16.632 -23.421  0.00  0.00     0.174 A 
ATOM      3  C   UNL d   1      31.653  17.435 -24.626  0.00  0.00     0.348 A 
ATOM      4  O   UNL d   1      30.586  16.387 -23.395  0.00  0.00    -0.314 OA
ATOM      5  N   UNL d   1      31.021  17.523 -25.097  0.00  0.00    -0.216 NA
ATOM      6  C   UNL d   1      30.255  17.279 -25.073  0.00  0.00     0.137 A 
ATOM      7  C   UNL d   1      31.066  17.130 -24.409  0.00  0.00     0.079 A 
ATOM      8  C   UNL d   1      29.953  16.481 -23.876  0.00  0.00     0.116 A 
ATOM      9  C   UNL d   1      29.819  16.848 -24.566  0.00  0.00     0.025 A 
ATOM     10  O   UNL d   1      32.300  17.795 -24.906  0.00  0.00    -0.245 OA
ATOM     11  C   UNL d   1      29.354  16.086 -23.512  0.00  0.00     0.122 A 
ATOM     12  C   UNL d   1      31.633  16.314 -22.739  0.00  0.00     0.055 C 
ATOM     13  C   UNL d   1      29.093  16.829 -24.904  0.00  0.00    -0.000 A 
ATOM     14  C   UNL d   1      28.499  16.435 -24.539  0.00  0.00     0.002 A 
ATOM     15  C   UNL d   1      28.629  16.063 -23.842  0.00  0.00     0.027 A 
ENDROOT
BRANCH   1  16
ATOM     16  C   UNL d   1      32.587  17.253 -23.842  0.00  0.00     0.082 C 
BRANCH  16  17
ATOM     17  C   UNL d   1      32.803  17.938 -23.420  0.00  0.00     0.017 A 
ATOM     18  C   UNL d   1      32.849  18.668 -23.811  0.00  0.00     0.002 A 
ATOM     19  C   UNL d   1      33.065  19.352 -23.388  0.00  0.00     0.000 A 
ATOM     20  C   UNL d   1      33.233  19.303 -22.575  0.00  0.00     0.000 A 
ATOM     21  C   UNL d   1      33.184  18.565 -22.190  0.00  0.00     0.000 A 
ATOM     22  C   UNL d   1      32.970  17.889 -22.611  0.00  0.00     0.002 A 
ENDBRANCH  16  17
ENDBRANCH   1  16
BRANCH  11  23
ATOM     23  O   UNL d   1      29.493  15.703 -22.793  0.00  0.00    -0.303 OA
BRANCH  23  24
ATOM     24  C   UNL d   1      28.857  15.453 -22.332  0.00  0.00     0.123 C 
ATOM     25  C   UNL d   1      28.763  15.756 -21.564  0.00  0.00     0.029 C 
ENDBRANCH  23  24
ENDBRANCH  11  23
TORSDOF 4
ENDMDL
