MODEL 1
REMARK VINA RESULT:      -6.7      0.000      0.000
REMARK  3 active torsions:
REMARK  status: ('A' for Active; 'I' for Inactive)
REMARK    1  A    between atoms: N_2  and  S_1 
REMARK    2  A    between atoms: C_3  and  S_1 
REMARK    3  A    between atoms: C_5  and  N_4 
ROOT
ATOM      1  N   UNL d   1     -46.978  12.911  23.027  0.00  0.00    -0.226 N 
ATOM      2  N   UNL d   1     -45.813  11.777  23.246  0.00  0.00    -0.286 N 
ATOM      3  C   UNL d   1     -46.259  12.981  22.637  0.00  0.00     0.111 A 
ATOM      4  C   UNL d   1     -47.116  12.275  23.526  0.00  0.00     0.111 A 
ATOM      5  C   UNL d   1     -46.533  11.708  23.635  0.00  0.00     0.101 A 
ATOM      6  C   UNL d   1     -45.676  12.414  22.747  0.00  0.00     0.101 A 
ENDROOT
BRANCH   1   7
ATOM      7  S   UNL d   1     -47.575  13.487  22.918  0.00  0.00     0.277 S 
ATOM      8  O   UNL d   1     -48.011  12.951  22.453  0.00  0.00    -0.199 OA
ATOM      9  O   UNL d   1     -47.138  14.028  23.384  0.00  0.00    -0.199 OA
BRANCH   7  10
ATOM     10  C   UNL d   1     -48.172  14.064  22.809  0.00  0.00     0.133 A 
ATOM     11  S   UNL d   1     -48.983  13.955  22.937  0.00  0.00    -0.074 SA
ATOM     12  C   UNL d   1     -49.368  14.678  22.759  0.00  0.00     0.036 A 
ATOM     13  C   UNL d   1     -48.786  15.224  22.522  0.00  0.00     0.008 A 
ATOM     14  C   UNL d   1     -48.047  14.851  22.551  0.00  0.00     0.020 A 
ENDBRANCH   7  10
ENDBRANCH   1   7
BRANCH   2  15
ATOM     15  C   UNL d   1     -45.224  11.215  23.349  0.00  0.00     0.148 A 
ATOM     16  N   UNL d   1     -44.444  11.423  23.202  0.00  0.00    -0.227 NA
ATOM     17  C   UNL d   1     -43.849  10.868  23.303  0.00  0.00     0.101 A 
ATOM     18  C   UNL d   1     -44.034  10.103  23.550  0.00  0.00     0.021 A 
ATOM     19  C   UNL d   1     -44.821   9.902  23.696  0.00  0.00     0.005 A 
ATOM     20  C   UNL d   1     -45.416  10.456  23.596  0.00  0.00     0.037 A 
ENDBRANCH   2  15
TORSDOF 3
ENDMDL
MODEL 2
REMARK VINA RESULT:      -6.7      1.443      2.278
REMARK  3 active torsions:
REMARK  status: ('A' for Active; 'I' for Inactive)
REMARK    1  A    between atoms: N_2  and  S_1 
REMARK    2  A    between atoms: C_3  and  S_1 
REMARK    3  A    between atoms: C_5  and  N_4 
ROOT
ATOM      1  N   UNL d   1     -48.267  14.201  22.865  0.00  0.00    -0.226 N 
ATOM      2  N   UNL d   1     -46.808  13.479  22.665  0.00  0.00    -0.286 N 
ATOM      3  C   UNL d   1     -48.226  13.405  22.668  0.00  0.00     0.111 A 
ATOM      4  C   UNL d   1     -47.579  14.636  22.963  0.00  0.00     0.111 A 
ATOM      5  C   UNL d   1     -46.849  14.275  22.863  0.00  0.00     0.101 A 
ATOM      6  C   UNL d   1     -47.496  13.043  22.568  0.00  0.00     0.101 A 
ENDROOT
BRANCH   1   7
ATOM      7  S   UNL d   1     -49.009  14.573  22.968  0.00  0.00     0.277 S 
ATOM      8  O   UNL d   1     -48.789  15.167  22.428  0.00  0.00    -0.199 OA
ATOM      9  O   UNL d   1     -49.232  13.976  23.511  0.00  0.00    -0.199 OA
BRANCH   7  10
ATOM     10  C   UNL d   1     -49.752  14.945  23.071  0.00  0.00     0.133 A 
ATOM     11  S   UNL d   1     -50.443  14.778  22.646  0.00  0.00    -0.074 SA
ATOM     12  C   UNL d   1     -51.046  15.282  22.935  0.00  0.00     0.036 A 
ATOM     13  C   UNL d   1     -50.718  15.754  23.537  0.00  0.00     0.008 A 
ATOM     14  C   UNL d   1     -49.920  15.550  23.625  0.00  0.00     0.020 A 
ENDBRANCH   7  10
ENDBRANCH   1   7
BRANCH   2  15
ATOM     15  C   UNL d   1     -46.082  13.108  22.563  0.00  0.00     0.148 A 
ATOM     16  N   UNL d   1     -45.885  12.476  23.047  0.00  0.00    -0.227 NA
ATOM     17  C   UNL d   1     -45.163  12.100  22.953  0.00  0.00     0.101 A 
ATOM     18  C   UNL d   1     -44.636  12.356  22.372  0.00  0.00     0.021 A 
ATOM     19  C   UNL d   1     -44.841  12.993  21.889  0.00  0.00     0.005 A 
ATOM     20  C   UNL d   1     -45.563  13.369  21.984  0.00  0.00     0.037 A 
ENDBRANCH   2  15
TORSDOF 3
ENDMDL
MODEL 3
REMARK VINA RESULT:      -6.5      1.749      4.832
REMARK  3 active torsions:
REMARK  status: ('A' for Active; 'I' for Inactive)
REMARK    1  A    between atoms: N_2  and  S_1 
REMARK    2  A    between atoms: C_3  and  S_1 
REMARK    3  A    between atoms: C_5  and  N_4 
ROOT
ATOM      1  N   UNL d   1     -47.415  13.786  22.758  0.00  0.00    -0.226 N 
ATOM      2  N   UNL d   1     -48.876  14.491  22.998  0.00  0.00    -0.286 N 
ATOM      3  C   UNL d   1     -47.497  14.599  22.678  0.00  0.00     0.111 A 
ATOM      4  C   UNL d   1     -48.063  13.325  22.958  0.00  0.00     0.111 A 
ATOM      5  C   UNL d   1     -48.794  13.678  23.078  0.00  0.00     0.101 A 
ATOM      6  C   UNL d   1     -48.227  14.952  22.799  0.00  0.00     0.101 A 
ENDROOT
BRANCH   1   7
ATOM      7  S   UNL d   1     -46.671  13.422  22.636  0.00  0.00     0.277 S 
ATOM      8  O   UNL d   1     -46.420  13.679  23.387  0.00  0.00    -0.199 OA
ATOM      9  O   UNL d   1     -46.922  13.163  21.881  0.00  0.00    -0.199 OA
BRANCH   7  10
ATOM     10  C   UNL d   1     -45.927  13.058  22.514  0.00  0.00     0.133 A 
ATOM     11  S   UNL d   1     -45.636  12.398  22.922  0.00  0.00    -0.074 SA
ATOM     12  C   UNL d   1     -44.874  12.228  22.617  0.00  0.00     0.036 A 
ATOM     13  C   UNL d   1     -44.706  12.787  22.023  0.00  0.00     0.008 A 
ATOM     14  C   UNL d   1     -45.353  13.301  21.956  0.00  0.00     0.020 A 
ENDBRANCH   7  10
ENDBRANCH   1   7
BRANCH   2  15
ATOM     15  C   UNL d   1     -49.603  14.853  23.117  0.00  0.00     0.148 A 
ATOM     16  N   UNL d   1     -50.278  14.503  22.811  0.00  0.00    -0.227 NA
ATOM     17  C   UNL d   1     -51.009  14.857  22.924  0.00  0.00     0.101 A 
ATOM     18  C   UNL d   1     -51.064  15.565  23.344  0.00  0.00     0.021 A 
ATOM     19  C   UNL d   1     -50.380  15.913  23.649  0.00  0.00     0.005 A 
ATOM     20  C   UNL d   1     -49.650  15.558  23.536  0.00  0.00     0.037 A 
ENDBRANCH   2  15
TORSDOF 3
ENDMDL
MODEL 4
REMARK VINA RESULT:      -5.9      1.433      4.695
REMARK  3 active torsions:
REMARK  status: ('A' for Active; 'I' for Inactive)
REMARK    1  A    between atoms: N_2  and  S_1 
REMARK    2  A    between atoms: C_3  and  S_1 
REMARK    3  A    between atoms: C_5  and  N_4 
ROOT
ATOM      1  N   UNL d   1     -47.416  12.735  23.121  0.00  0.00    -0.226 N 
ATOM      2  N   UNL d   1     -48.668  13.776  22.927  0.00  0.00    -0.286 N 
ATOM      3  C   UNL d   1     -47.309  13.433  22.703  0.00  0.00     0.111 A 
ATOM      4  C   UNL d   1     -48.150  12.557  23.442  0.00  0.00     0.111 A 
ATOM      5  C   UNL d   1     -48.776  13.078  23.345  0.00  0.00     0.101 A 
ATOM      6  C   UNL d   1     -47.935  13.954  22.606  0.00  0.00     0.101 A 
ENDROOT
BRANCH   1   7
ATOM      7  S   UNL d   1     -46.780  12.201  23.223  0.00  0.00     0.277 S 
ATOM      8  O   UNL d   1     -46.244  12.837  23.232  0.00  0.00    -0.199 OA
ATOM      9  O   UNL d   1     -47.319  11.560  23.215  0.00  0.00    -0.199 OA
BRANCH   7  10
ATOM     10  C   UNL d   1     -46.144  11.665  23.325  0.00  0.00     0.133 A 
ATOM     11  S   UNL d   1     -46.190  10.918  23.679  0.00  0.00    -0.074 SA
ATOM     12  C   UNL d   1     -45.423  10.581  23.660  0.00  0.00     0.036 A 
ATOM     13  C   UNL d   1     -44.914  11.128  23.293  0.00  0.00     0.008 A 
ATOM     14  C   UNL d   1     -45.354  11.799  23.085  0.00  0.00     0.020 A 
ENDBRANCH   7  10
ENDBRANCH   1   7
BRANCH   2  15
ATOM     15  C   UNL d   1     -49.288  14.304  22.824  0.00  0.00     0.148 A 
ATOM     16  N   UNL d   1     -49.927  14.084  22.357  0.00  0.00    -0.227 NA
ATOM     17  C   UNL d   1     -50.550  14.605  22.249  0.00  0.00     0.101 A 
ATOM     18  C   UNL d   1     -50.537  15.348  22.607  0.00  0.00     0.021 A 
ATOM     19  C   UNL d   1     -49.891  15.562  23.075  0.00  0.00     0.005 A 
ATOM     20  C   UNL d   1     -49.268  15.041  23.184  0.00  0.00     0.037 A 
ENDBRANCH   2  15
TORSDOF 3
ENDMDL
MODEL 5
REMARK VINA RESULT:      -5.3      7.616      8.148
REMARK  3 active torsions:
REMARK  status: ('A' for Active; 'I' for Inactive)
REMARK    1  A    between atoms: N_2  and  S_1 
REMARK    2  A    between atoms: C_3  and  S_1 
REMARK    3  A    between atoms: C_5  and  N_4 
ROOT
ATOM      1  N   UNL d   1     -39.993  14.926  19.528  0.00  0.00    -0.226 N 
ATOM      2  N   UNL d   1     -39.443  14.594  21.037  0.00  0.00    -0.286 N 
ATOM      3  C   UNL d   1     -40.520  14.873  20.156  0.00  0.00     0.111 A 
ATOM      4  C   UNL d   1     -39.191  14.812  19.655  0.00  0.00     0.111 A 
ATOM      5  C   UNL d   1     -38.916  14.646  20.410  0.00  0.00     0.101 A 
ATOM      6  C   UNL d   1     -40.245  14.707  20.911  0.00  0.00     0.101 A 
ENDROOT
BRANCH   1   7
ATOM      7  S   UNL d   1     -40.269  15.095  18.757  0.00  0.00     0.277 S 
ATOM      8  O   UNL d   1     -40.569  14.321  18.691  0.00  0.00    -0.199 OA
ATOM      9  O   UNL d   1     -39.969  15.874  18.821  0.00  0.00    -0.199 OA
BRANCH   7  10
ATOM     10  C   UNL d   1     -40.545  15.265  17.985  0.00  0.00     0.133 A 
ATOM     11  S   UNL d   1     -41.000  15.922  17.765  0.00  0.00    -0.074 SA
ATOM     12  C   UNL d   1     -41.146  15.864  16.942  0.00  0.00     0.036 A 
ATOM     13  C   UNL d   1     -40.778  15.171  16.666  0.00  0.00     0.008 A 
ATOM     14  C   UNL d   1     -40.406  14.797  17.305  0.00  0.00     0.020 A 
ENDBRANCH   7  10
ENDBRANCH   1   7
BRANCH   2  15
ATOM     15  C   UNL d   1     -39.178  14.428  21.796  0.00  0.00     0.148 A 
ATOM     16  N   UNL d   1     -38.984  15.049  22.296  0.00  0.00    -0.227 NA
ATOM     17  C   UNL d   1     -38.719  14.893  23.056  0.00  0.00     0.101 A 
ATOM     18  C   UNL d   1     -38.646  14.113  23.317  0.00  0.00     0.021 A 
ATOM     19  C   UNL d   1     -38.842  13.494  22.808  0.00  0.00     0.005 A 
ATOM     20  C   UNL d   1     -39.108  13.650  22.049  0.00  0.00     0.037 A 
ENDBRANCH   2  15
TORSDOF 3
ENDMDL
