MODEL 1
REMARK VINA RESULT:      -3.3      0.000      0.000
REMARK  6 active torsions:
REMARK  status: ('A' for Active; 'I' for Inactive)
REMARK    1  A    between atoms: C_4  and  S_1 
REMARK    2  A    between atoms: C_5  and  S_1 
REMARK    3  A    between atoms: C_2  and  N_7 
REMARK    4  A    between atoms: N_3  and  C_2 
REMARK    5  A    between atoms: C_8  and  N_6 
REMARK    6  A    between atoms: N_7  and  C_14 
ROOT
ATOM      1  C   UNL d   1      32.943  17.973 -23.699  0.00  0.00     0.206 C 
ATOM      2  S   UNL d   1      33.164  18.000 -24.496  0.00  0.00    -0.038 SA
ENDROOT
BRANCH   1   3
ATOM      3  N   UNL d   1      32.689  17.262 -23.366  0.00  0.00    -0.218 NA
BRANCH   3   4
ATOM      4  C   UNL d   1      32.185  16.766 -23.789  0.00  0.00     0.085 A 
ATOM      5  C   UNL d   1      31.385  16.726 -23.591  0.00  0.00     0.031 A 
ATOM      6  C   UNL d   1      30.880  16.232 -24.012  0.00  0.00     0.094 A 
ATOM      7  C   UNL d   1      31.177  15.773 -24.638  0.00  0.00     0.012 A 
ATOM      8  C   UNL d   1      31.976  15.813 -24.836  0.00  0.00     0.002 A 
ATOM      9  C   UNL d   1      32.479  16.311 -24.409  0.00  0.00     0.019 A 
BRANCH   6  10
ATOM     10  S   UNL d   1      30.073  16.189 -23.815  0.00  0.00     0.262 S 
ATOM     11  O   UNL d   1      30.258  15.692 -23.183  0.00  0.00    -0.213 OA
ATOM     12  O   UNL d   1      29.900  16.689 -24.454  0.00  0.00    -0.213 OA
BRANCH  10  13
ATOM     13  C   UNL d   1      29.271  16.149 -23.623  0.00  0.00     0.364 C 
ATOM     14  F   UNL d   1      28.714  16.551 -24.083  0.00  0.00    -0.159 F 
ATOM     15  F   UNL d   1      29.023  15.704 -22.967  0.00  0.00    -0.159 F 
ENDBRANCH  10  13
ENDBRANCH   6  10
ENDBRANCH   3   4
ENDBRANCH   1   3
BRANCH   1  16
ATOM     16  N   UNL d   1      32.977  18.659 -23.237  0.00  0.00    -0.278 N 
ATOM     17  C   UNL d   1      32.780  19.390 -23.570  0.00  0.00     0.101 A 
ATOM     18  C   UNL d   1      32.815  20.068 -23.108  0.00  0.00     0.100 A 
ATOM     19  N   UNL d   1      33.042  20.030 -22.320  0.00  0.00    -0.301 N 
ATOM     20  C   UNL d   1      33.241  19.302 -21.980  0.00  0.00     0.100 A 
ATOM     21  C   UNL d   1      33.207  18.614 -22.446  0.00  0.00     0.101 A 
BRANCH  19  22
ATOM     22  C   UNL d   1      33.076  20.722 -21.856  0.00  0.00     0.065 A 
ATOM     23  C   UNL d   1      33.140  21.461 -22.220  0.00  0.00     0.029 A 
ATOM     24  C   UNL d   1      33.172  22.147 -21.762  0.00  0.00     0.059 A 
ATOM     25 CL   UNL d   1      33.236  22.886 -22.126  0.00  0.00    -0.082 Cl
ATOM     26  C   UNL d   1      33.141  22.092 -20.939  0.00  0.00     0.011 A 
ATOM     27  C   UNL d   1      33.077  21.353 -20.575  0.00  0.00     0.002 A 
ATOM     28  C   UNL d   1      33.045  20.667 -21.033  0.00  0.00     0.018 A 
ENDBRANCH  19  22
ENDBRANCH   1  16
TORSDOF 6
ENDMDL
MODEL 2
REMARK VINA RESULT:      -2.1      1.695      2.634
REMARK  6 active torsions:
REMARK  status: ('A' for Active; 'I' for Inactive)
REMARK    1  A    between atoms: C_4  and  S_1 
REMARK    2  A    between atoms: C_5  and  S_1 
REMARK    3  A    between atoms: C_2  and  N_7 
REMARK    4  A    between atoms: N_3  and  C_2 
REMARK    5  A    between atoms: C_8  and  N_6 
REMARK    6  A    between atoms: N_7  and  C_14 
ROOT
ATOM      1  C   UNL d   1      33.063  20.301 -22.727  0.00  0.00     0.206 C 
ATOM      2  S   UNL d   1      33.076  20.593 -23.501  0.00  0.00    -0.038 SA
ENDROOT
BRANCH   1   3
ATOM      3  N   UNL d   1      33.106  19.489 -22.592  0.00  0.00    -0.218 NA
BRANCH   3   4
ATOM      4  C   UNL d   1      32.953  18.961 -23.206  0.00  0.00     0.085 A 
ATOM      5  C   UNL d   1      32.512  18.279 -23.063  0.00  0.00     0.031 A 
ATOM      6  C   UNL d   1      32.358  17.750 -23.674  0.00  0.00     0.094 A 
ATOM      7  C   UNL d   1      32.648  17.904 -24.437  0.00  0.00     0.012 A 
ATOM      8  C   UNL d   1      33.090  18.586 -24.581  0.00  0.00     0.002 A 
ATOM      9  C   UNL d   1      33.241  19.114 -23.962  0.00  0.00     0.019 A 
BRANCH   6  10
ATOM     10  S   UNL d   1      31.913  17.061 -23.533  0.00  0.00     0.262 S 
ATOM     11  O   UNL d   1      32.464  16.828 -22.965  0.00  0.00    -0.213 OA
ATOM     12  O   UNL d   1      31.368  17.308 -24.107  0.00  0.00    -0.213 OA
BRANCH  10  13
ATOM     13  C   UNL d   1      31.469  16.379 -23.396  0.00  0.00     0.364 C 
ATOM     14  F   UNL d   1      31.842  15.643 -23.350  0.00  0.00    -0.159 F 
ATOM     15  F   UNL d   1      30.646  16.432 -23.304  0.00  0.00    -0.159 F 
ENDBRANCH  10  13
ENDBRANCH   6  10
ENDBRANCH   3   4
ENDBRANCH   1   3
BRANCH   1  16
ATOM     16  N   UNL d   1      33.007  20.826 -22.089  0.00  0.00    -0.278 N 
ATOM     17  C   UNL d   1      33.241  20.583 -21.334  0.00  0.00     0.101 A 
ATOM     18  C   UNL d   1      33.184  21.107 -20.704  0.00  0.00     0.100 A 
ATOM     19  N   UNL d   1      32.897  21.868 -20.814  0.00  0.00    -0.301 N 
ATOM     20  C   UNL d   1      32.662  22.118 -21.566  0.00  0.00     0.100 A 
ATOM     21  C   UNL d   1      32.718  21.590 -22.206  0.00  0.00     0.101 A 
BRANCH  19  22
ATOM     22  C   UNL d   1      32.842  22.395 -20.169  0.00  0.00     0.065 A 
ATOM     23  C   UNL d   1      33.024  22.136 -19.406  0.00  0.00     0.029 A 
ATOM     24  C   UNL d   1      32.969  22.657 -18.769  0.00  0.00     0.059 A 
ATOM     25 CL   UNL d   1      33.152  22.398 -18.006  0.00  0.00    -0.082 Cl
ATOM     26  C   UNL d   1      32.732  23.437 -18.895  0.00  0.00     0.011 A 
ATOM     27  C   UNL d   1      32.550  23.696 -19.658  0.00  0.00     0.002 A 
ATOM     28  C   UNL d   1      32.604  23.175 -20.296  0.00  0.00     0.018 A 
ENDBRANCH  19  22
ENDBRANCH   1  16
TORSDOF 6
ENDMDL
