MODEL 1
REMARK VINA RESULT:      -8.3      0.000      0.000
REMARK  2 active torsions:
REMARK  status: ('A' for Active; 'I' for Inactive)
REMARK    1  A    between atoms: C_7  and  C_1 
REMARK    2  A    between atoms: C_8  and  C_7 
ROOT
ATOM      1  C   UNL d   1      53.846  32.936  53.960  0.00  0.00     0.118 A 
ATOM      2  N   UNL d   1      53.484  33.809  55.032  0.00  0.00    -0.178 NA
ATOM      3  N   UNL d   1      53.271  34.213  53.682  0.00  0.00    -0.178 NA
ATOM      4  C   UNL d   1      53.798  33.090  54.768  0.00  0.00     0.286 A 
ATOM      5  C   UNL d   1      53.585  33.493  53.418  0.00  0.00     0.286 A 
ATOM      6  C   UNL d   1      53.213  34.388  54.494  0.00  0.00     0.226 A 
ATOM      7  S   UNL d   1      52.902  35.103  54.756  0.00  0.00    -0.037 SA
ATOM      8  O   UNL d   1      54.062  32.527  55.328  0.00  0.00    -0.265 OA
ATOM      9  O   UNL d   1      53.631  33.343  52.596  0.00  0.00    -0.265 OA
ENDROOT
BRANCH   1  10
ATOM     10  C   UNL d   1      54.161  32.214  53.695  0.00  0.00     0.034 C 
BRANCH  10  11
ATOM     11  C   UNL d   1      53.657  31.592  53.533  0.00  0.00     0.100 A 
ATOM     12  O   UNL d   1      53.829  30.839  53.833  0.00  0.00    -0.307 OA
ATOM     13  C   UNL d   1      53.230  30.331  53.581  0.00  0.00     0.100 A 
ATOM     14  C   UNL d   1      53.173  29.523  53.751  0.00  0.00     0.027 C 
ATOM     15  C   UNL d   1      52.708  30.757  53.139  0.00  0.00     0.027 A 
ATOM     16  C   UNL d   1      52.953  31.544  53.096  0.00  0.00     0.027 A 
ENDBRANCH  10  11
ENDBRANCH   1  10
TORSDOF 2
ENDMDL
MODEL 2
REMARK VINA RESULT:      -8.2      2.018      2.784
REMARK  2 active torsions:
REMARK  status: ('A' for Active; 'I' for Inactive)
REMARK    1  A    between atoms: C_7  and  C_1 
REMARK    2  A    between atoms: C_8  and  C_7 
ROOT
ATOM      1  C   UNL d   1      52.671  33.580  53.117  0.00  0.00     0.118 A 
ATOM      2  N   UNL d   1      51.649  34.578  53.062  0.00  0.00    -0.178 NA
ATOM      3  N   UNL d   1      51.303  33.199  52.969  0.00  0.00    -0.178 NA
ATOM      4  C   UNL d   1      52.448  34.373  53.130  0.00  0.00     0.286 A 
ATOM      5  C   UNL d   1      52.102  32.994  53.037  0.00  0.00     0.286 A 
ATOM      6  C   UNL d   1      51.058  33.994  52.979  0.00  0.00     0.226 A 
ATOM      7  S   UNL d   1      50.263  34.198  52.912  0.00  0.00    -0.037 SA
ATOM      8  O   UNL d   1      53.022  34.977  53.211  0.00  0.00    -0.265 OA
ATOM      9  O   UNL d   1      52.320  32.186  53.023  0.00  0.00    -0.265 OA
ENDROOT
BRANCH   1  10
ATOM     10  C   UNL d   1      53.473  33.374  53.186  0.00  0.00     0.034 C 
BRANCH  10  11
ATOM     11  C   UNL d   1      53.794  33.249  53.926  0.00  0.00     0.100 A 
ATOM     12  O   UNL d   1      54.454  33.689  54.163  0.00  0.00    -0.307 OA
ATOM     13  C   UNL d   1      54.651  33.445  54.927  0.00  0.00     0.100 A 
ATOM     14  C   UNL d   1      55.277  33.735  55.384  0.00  0.00     0.027 C 
ATOM     15  C   UNL d   1      54.128  32.874  55.151  0.00  0.00     0.027 A 
ATOM     16  C   UNL d   1      53.586  32.736  54.545  0.00  0.00     0.027 A 
ENDBRANCH  10  11
ENDBRANCH   1  10
TORSDOF 2
ENDMDL
MODEL 3
REMARK VINA RESULT:      -8.1      1.927      3.457
REMARK  2 active torsions:
REMARK  status: ('A' for Active; 'I' for Inactive)
REMARK    1  A    between atoms: C_7  and  C_1 
REMARK    2  A    between atoms: C_8  and  C_7 
ROOT
ATOM      1  C   UNL d   1      53.425  32.447  53.164  0.00  0.00     0.118 A 
ATOM      2  N   UNL d   1      52.498  31.399  52.871  0.00  0.00    -0.178 NA
ATOM      3  N   UNL d   1      53.725  31.101  53.533  0.00  0.00    -0.178 NA
ATOM      4  C   UNL d   1      52.707  32.200  52.845  0.00  0.00     0.286 A 
ATOM      5  C   UNL d   1      53.934  31.902  53.507  0.00  0.00     0.286 A 
ATOM      6  C   UNL d   1      53.004  30.831  53.216  0.00  0.00     0.226 A 
ATOM      7  S   UNL d   1      52.797  30.035  53.243  0.00  0.00    -0.037 SA
ATOM      8  O   UNL d   1      52.182  32.749  52.494  0.00  0.00    -0.265 OA
ATOM      9  O   UNL d   1      54.665  32.146  53.832  0.00  0.00    -0.265 OA
ENDROOT
BRANCH   1  10
ATOM     10  C   UNL d   1      53.634  33.251  53.137  0.00  0.00     0.034 C 
BRANCH  10  11
ATOM     11  C   UNL d   1      53.456  33.734  53.772  0.00  0.00     0.100 A 
ATOM     12  O   UNL d   1      53.232  34.519  53.636  0.00  0.00    -0.307 OA
ATOM     13  C   UNL d   1      53.088  34.865  54.371  0.00  0.00     0.100 A 
ATOM     14  C   UNL d   1      52.850  35.646  54.504  0.00  0.00     0.027 C 
ATOM     15  C   UNL d   1      53.221  34.309  54.940  0.00  0.00     0.027 A 
ATOM     16  C   UNL d   1      53.451  33.599  54.591  0.00  0.00     0.027 A 
ENDBRANCH  10  11
ENDBRANCH   1  10
TORSDOF 2
ENDMDL
MODEL 4
REMARK VINA RESULT:      -8.1      2.050      2.978
REMARK  2 active torsions:
REMARK  status: ('A' for Active; 'I' for Inactive)
REMARK    1  A    between atoms: C_7  and  C_1 
REMARK    2  A    between atoms: C_8  and  C_7 
ROOT
ATOM      1  C   UNL d   1      53.166  34.060  53.582  0.00  0.00     0.118 A 
ATOM      2  N   UNL d   1      53.783  34.394  54.827  0.00  0.00    -0.178 NA
ATOM      3  N   UNL d   1      54.074  33.148  54.199  0.00  0.00    -0.178 NA
ATOM      4  C   UNL d   1      53.273  34.588  54.204  0.00  0.00     0.286 A 
ATOM      5  C   UNL d   1      53.564  33.342  53.577  0.00  0.00     0.286 A 
ATOM      6  C   UNL d   1      54.196  33.668  54.838  0.00  0.00     0.226 A 
ATOM      7  S   UNL d   1      54.703  33.475  55.457  0.00  0.00    -0.037 SA
ATOM      8  O   UNL d   1      52.871  35.323  54.217  0.00  0.00    -0.265 OA
ATOM      9  O   UNL d   1      53.460  32.801  52.948  0.00  0.00    -0.265 OA
ENDROOT
BRANCH   1  10
ATOM     10  C   UNL d   1      52.654  34.255  52.957  0.00  0.00     0.034 C 
BRANCH  10  11
ATOM     11  C   UNL d   1      51.864  34.051  53.006  0.00  0.00     0.100 A 
ATOM     12  O   UNL d   1      51.293  34.552  52.677  0.00  0.00    -0.307 OA
ATOM     13  C   UNL d   1      50.556  34.205  52.810  0.00  0.00     0.100 A 
ATOM     14  C   UNL d   1      49.824  34.512  52.576  0.00  0.00     0.027 C 
ATOM     15  C   UNL d   1      50.672  33.514  53.208  0.00  0.00     0.027 A 
ATOM     16  C   UNL d   1      51.477  33.398  53.341  0.00  0.00     0.027 A 
ENDBRANCH  10  11
ENDBRANCH   1  10
TORSDOF 2
ENDMDL
