MODEL 1
REMARK VINA RESULT:      38.9      0.000      0.000
REMARK  5 active torsions:
REMARK  status: ('A' for Active; 'I' for Inactive)
REMARK    1  A    between atoms: S_6  and  C_2 
REMARK    2  A    between atoms: C_8  and  C_4 
REMARK    3  A    between atoms: C_11  and  S_6 
REMARK    4  A    between atoms: C_7  and  C_11 
REMARK       I    between atoms: N_9  and  C_7 
REMARK    5  A    between atoms: C_15  and  N_9 
ROOT
ATOM      1  N   UNL d   1      44.254 -16.096  44.846  0.00  0.00    -0.244 NA
ATOM      2  C   UNL d   1      44.940 -15.632  44.840  0.00  0.00     0.125 A 
ATOM      3  N   UNL d   1      43.891 -14.816  44.928  0.00  0.00    -0.250 NA
ATOM      4  C   UNL d   1      44.721 -14.860  44.890  0.00  0.00     0.101 A 
ATOM      5  C   UNL d   1      43.541 -15.642  44.900  0.00  0.00     0.168 A 
ATOM      6  C   UNL d   1      42.864 -15.157  44.955  0.00  0.00     0.050 C 
ATOM      7  C   UNL d   1      43.456 -16.470  44.860  0.00  0.00     0.050 C 
ENDROOT
BRANCH   2   8
ATOM      8  S   UNL d   1      45.722 -15.914  44.792  0.00  0.00    -0.061 SA
BRANCH   8   9
ATOM      9  C   UNL d   1      45.878 -16.634  44.421  0.00  0.00     0.099 C 
BRANCH   9  10
ATOM     10  C   UNL d   1      46.297 -16.650  43.719  0.00  0.00     0.286 C 
ATOM     11  N   UNL d   1      46.550 -17.361  43.407  0.00  0.00    -0.208 NA
ATOM     12  O   UNL d   1      46.462 -15.948  43.330  0.00  0.00    -0.265 OA
BRANCH  11  13
ATOM     13  C   UNL d   1      46.387 -18.056  43.792  0.00  0.00     0.085 A 
ATOM     14  C   UNL d   1      45.966 -18.639  43.409  0.00  0.00     0.019 A 
ATOM     15  C   UNL d   1      45.793 -19.354  43.791  0.00  0.00     0.002 A 
ATOM     16  C   UNL d   1      46.051 -19.469  44.561  0.00  0.00     0.000 A 
ATOM     17  C   UNL d   1      46.477 -18.882  44.950  0.00  0.00     0.002 A 
ATOM     18  C   UNL d   1      46.643 -18.180  44.566  0.00  0.00     0.019 A 
ENDBRANCH  11  13
ENDBRANCH   9  10
ENDBRANCH   8   9
ENDBRANCH   2   8
BRANCH   4  19
ATOM     19  C   UNL d   1      45.197 -14.184  44.905  0.00  0.00     0.019 A 
ATOM     20  C   UNL d   1      44.851 -13.432  44.894  0.00  0.00     0.002 A 
ATOM     21  C   UNL d   1      45.319 -12.766  44.909  0.00  0.00     0.011 A 
ATOM     22  C   UNL d   1      46.158 -12.835  44.935  0.00  0.00     0.058 A 
ATOM     23  C   UNL d   1      46.487 -13.564  44.946  0.00  0.00     0.011 A 
ATOM     24 CL   UNL d   1      46.638 -12.151  44.950  0.00  0.00    -0.082 Cl
ATOM     25  C   UNL d   1      46.020 -14.254  44.931  0.00  0.00     0.002 A 
ENDBRANCH   4  19
TORSDOF 5
ENDMDL
MODEL 2
REMARK VINA RESULT:      40.8      1.326      1.564
REMARK  5 active torsions:
REMARK  status: ('A' for Active; 'I' for Inactive)
REMARK    1  A    between atoms: S_6  and  C_2 
REMARK    2  A    between atoms: C_8  and  C_4 
REMARK    3  A    between atoms: C_11  and  S_6 
REMARK    4  A    between atoms: C_7  and  C_11 
REMARK       I    between atoms: N_9  and  C_7 
REMARK    5  A    between atoms: C_15  and  N_9 
ROOT
ATOM      1  N   UNL d   1      44.412 -15.536  44.499  0.00  0.00    -0.244 NA
ATOM      2  C   UNL d   1      45.032 -15.191  44.072  0.00  0.00     0.125 A 
ATOM      3  N   UNL d   1      44.130 -14.244  44.325  0.00  0.00    -0.250 NA
ATOM      4  C   UNL d   1      44.862 -14.413  43.967  0.00  0.00     0.101 A 
ATOM      5  C   UNL d   1      43.796 -14.990  44.697  0.00  0.00     0.168 A 
ATOM      6  C   UNL d   1      43.211 -14.419  44.871  0.00  0.00     0.050 C 
ATOM      7  C   UNL d   1      43.695 -15.776  44.952  0.00  0.00     0.050 C 
ENDROOT
BRANCH   2   8
ATOM      8  S   UNL d   1      45.714 -15.582  43.798  0.00  0.00    -0.061 SA
BRANCH   8   9
ATOM      9  C   UNL d   1      45.733 -16.405  43.767  0.00  0.00     0.099 C 
BRANCH   9  10
ATOM     10  C   UNL d   1      46.241 -16.822  44.253  0.00  0.00     0.286 C 
ATOM     11  N   UNL d   1      46.486 -17.572  44.047  0.00  0.00    -0.208 NA
ATOM     12  O   UNL d   1      46.502 -16.482  44.951  0.00  0.00    -0.265 OA
BRANCH  11  13
ATOM     13  C   UNL d   1      46.228 -17.910  43.356  0.00  0.00     0.085 A 
ATOM     14  C   UNL d   1      45.746 -18.567  43.384  0.00  0.00     0.019 A 
ATOM     15  C   UNL d   1      45.475 -18.921  42.686  0.00  0.00     0.002 A 
ATOM     16  C   UNL d   1      45.698 -18.603  41.964  0.00  0.00     0.000 A 
ATOM     17  C   UNL d   1      46.184 -17.941  41.932  0.00  0.00     0.002 A 
ATOM     18  C   UNL d   1      46.447 -17.597  42.626  0.00  0.00     0.019 A 
ENDBRANCH  11  13
ENDBRANCH   9  10
ENDBRANCH   8   9
ENDBRANCH   2   8
BRANCH   4  19
ATOM     19  C   UNL d   1      45.303 -13.832  43.578  0.00  0.00     0.019 A 
ATOM     20  C   UNL d   1      45.375 -13.075  43.906  0.00  0.00     0.002 A 
ATOM     21  C   UNL d   1      45.809 -12.503  43.524  0.00  0.00     0.011 A 
ATOM     22  C   UNL d   1      46.189 -12.673  42.791  0.00  0.00     0.058 A 
ATOM     23  C   UNL d   1      46.115 -13.405  42.479  0.00  0.00     0.011 A 
ATOM     24 CL   UNL d   1      46.634 -12.085  42.399  0.00  0.00    -0.082 Cl
ATOM     25  C   UNL d   1      45.674 -14.002  42.859  0.00  0.00     0.002 A 
ENDBRANCH   4  19
TORSDOF 5
ENDMDL
