MODEL 1
REMARK VINA RESULT:      47.5      0.000      0.000
REMARK  6 active torsions:
REMARK  status: ('A' for Active; 'I' for Inactive)
REMARK    1  A    between atoms: N_2  and  S_1 
REMARK    2  A    between atoms: C_6  and  S_1 
REMARK    3  A    between atoms: N_4  and  C_3 
REMARK       I    between atoms: C_5  and  N_4 
REMARK       I    between atoms: N_10  and  C_5 
REMARK    4  A    between atoms: C_7  and  C_11 
REMARK    5  A    between atoms: O_20  and  C_7 
REMARK    6  A    between atoms: C_14  and  N_10 
ROOT
ATOM      1  N   UNL d   1      13.432  14.631  -3.921  0.00  0.00    -0.214 N 
ATOM      2  C   UNL d   1      13.188  13.861  -4.121  0.00  0.00     0.162 A 
ATOM      3  C   UNL d   1      13.171  15.142  -4.522  0.00  0.00     0.093 A 
ATOM      4  C   UNL d   1      12.778  13.898  -4.841  0.00  0.00     0.040 A 
ATOM      5  C   UNL d   1      12.769  14.680  -5.084  0.00  0.00     0.023 A 
ENDROOT
BRANCH   2   6
ATOM      6  N   UNL d   1      13.336  13.173  -3.666  0.00  0.00    -0.173 NA
ATOM      7  C   UNL d   1      13.503  12.463  -4.046  0.00  0.00     0.370 C 
ATOM      8  N   UNL d   1      13.650  11.781  -3.599  0.00  0.00    -0.191 NA
ATOM      9  O   UNL d   1      13.528  12.420  -4.871  0.00  0.00    -0.242 OA
BRANCH   8  10
ATOM     10  C   UNL d   1      13.627  11.815  -2.776  0.00  0.00     0.086 A 
ATOM     11  C   UNL d   1      14.330  11.858  -2.346  0.00  0.00     0.025 A 
ATOM     12  C   UNL d   1      14.307  11.893  -1.523  0.00  0.00     0.065 A 
ATOM     13  C   UNL d   1      13.578  11.884  -1.128  0.00  0.00     0.005 A 
ATOM     14  C   UNL d   1      12.879  11.841  -1.561  0.00  0.00     0.002 A 
ATOM     15  C   UNL d   1      12.901  11.806  -2.384  0.00  0.00     0.019 A 
BRANCH  12  16
ATOM     16  C   UNL d   1      15.016  11.936  -1.098  0.00  0.00     0.296 C 
ATOM     17  O   UNL d   1      15.732  11.796  -1.466  0.00  0.00    -0.259 OA
BRANCH  16  18
ATOM     18  O   UNL d   1      14.992  12.122  -0.294  0.00  0.00    -0.296 OA
ATOM     19  C   UNL d   1      15.336  12.809  -0.014  0.00  0.00     0.185 C 
ENDBRANCH  16  18
ENDBRANCH  12  16
ENDBRANCH   8  10
ENDBRANCH   2   6
BRANCH   1  20
ATOM     20  S   UNL d   1      13.851  14.938  -3.285  0.00  0.00     0.272 S 
ATOM     21  O   UNL d   1      13.188  15.011  -2.846  0.00  0.00    -0.200 OA
ATOM     22  O   UNL d   1      14.553  14.877  -3.707  0.00  0.00    -0.200 OA
BRANCH  20  23
ATOM     23  C   UNL d   1      14.269  15.250  -2.633  0.00  0.00     0.104 A 
ATOM     24  C   UNL d   1      14.280  14.844  -1.917  0.00  0.00     0.014 A 
ATOM     25  C   UNL d   1      14.690  15.156  -1.283  0.00  0.00     0.012 A 
ATOM     26  C   UNL d   1      15.096  15.878  -1.353  0.00  0.00     0.058 A 
ATOM     27  C   UNL d   1      15.085  16.284  -2.068  0.00  0.00     0.012 A 
ATOM     28 CL   UNL d   1      15.511  16.191  -0.709  0.00  0.00    -0.082 Cl
ATOM     29  C   UNL d   1      14.668  15.969  -2.718  0.00  0.00     0.014 A 
ENDBRANCH  20  23
ENDBRANCH   1  20
TORSDOF 6
ENDMDL
