MODEL 1
REMARK VINA RESULT:      -5.5      0.000      0.000
REMARK  6 active torsions:
REMARK  status: ('A' for Active; 'I' for Inactive)
REMARK    1  A    between atoms: S_5  and  C_2 
REMARK    2  A    between atoms: C_13  and  S_5 
REMARK    3  A    between atoms: N_17  and  C_10 
REMARK    4  A    between atoms: C_24  and  N_17 
REMARK    5  A    between atoms: C_25  and  C_24 
REMARK    6  A    between atoms: C_26  and  C_25 
ROOT
ATOM      1  C   UNL d   1     -47.119  13.969  22.707  0.00  0.00     0.198 A 
ATOM      2  C   UNL d   1     -46.332  13.751  22.693  0.00  0.00     0.227 A 
ATOM      3  N   UNL d   1     -47.174  14.737  22.439  0.00  0.00    -0.192 N 
ATOM      4  N   UNL d   1     -47.803  13.553  22.935  0.00  0.00    -0.205 NA
ATOM      5  N   UNL d   1     -45.894  14.392  22.413  0.00  0.00    -0.115 NA
ATOM      6  N   UNL d   1     -46.417  14.998  22.258  0.00  0.00    -0.058 NA
ATOM      7  C   UNL d   1     -47.915  15.106  22.394  0.00  0.00     0.096 A 
ATOM      8  C   UNL d   1     -48.598  14.689  22.622  0.00  0.00     0.083 A 
ATOM      9  C   UNL d   1     -48.541  13.919  22.890  0.00  0.00     0.172 A 
ATOM     10  S   UNL d   1     -49.250  15.195  22.518  0.00  0.00    -0.082 SA
ATOM     11  C   UNL d   1     -48.149  15.865  22.151  0.00  0.00     0.027 A 
ATOM     12  C   UNL d   1     -48.969  15.921  22.226  0.00  0.00     0.037 A 
ENDROOT
BRANCH   2  13
ATOM     13  S   UNL d   1     -46.015  13.019  22.917  0.00  0.00     0.231 S 
ATOM     14  O   UNL d   1     -46.115  12.765  22.134  0.00  0.00    -0.215 OA
ATOM     15  O   UNL d   1     -45.914  13.269  23.698  0.00  0.00    -0.215 OA
BRANCH  13  16
ATOM     16  C   UNL d   1     -45.705  12.271  23.089  0.00  0.00     0.090 A 
ATOM     17  C   UNL d   1     -44.951  12.066  22.825  0.00  0.00     0.012 A 
ATOM     18  C   UNL d   1     -44.645  11.325  22.996  0.00  0.00     0.007 A 
ATOM     19  C   UNL d   1     -45.089  10.778  23.434  0.00  0.00     0.035 A 
ATOM     20  C   UNL d   1     -45.844  10.987  23.697  0.00  0.00     0.007 A 
ATOM     21 BR   UNL d   1     -44.783  10.037  23.606  0.00  0.00    -0.049 Br
ATOM     22  C   UNL d   1     -46.153  11.731  23.526  0.00  0.00     0.012 A 
ENDBRANCH  13  16
ENDBRANCH   2  13
BRANCH   9  23
ATOM     23  N   UNL d   1     -49.221  13.504  23.117  0.00  0.00    -0.225 NA
BRANCH  23  24
ATOM     24  C   UNL d   1     -49.177  12.697  23.277  0.00  0.00     0.101 C 
BRANCH  24  25
ATOM     25  C   UNL d   1     -49.793  12.198  23.050  0.00  0.00     0.021 C 
BRANCH  25  26
ATOM     26  C   UNL d   1     -49.932  11.502  23.463  0.00  0.00     0.002 C 
ATOM     27  C   UNL d   1     -50.697  11.308  23.698  0.00  0.00     0.000 C 
ATOM     28  C   UNL d   1     -49.311  10.990  23.646  0.00  0.00     0.000 C 
ENDBRANCH  25  26
ENDBRANCH  24  25
ENDBRANCH  23  24
ENDBRANCH   9  23
TORSDOF 6
ENDMDL
MODEL 2
REMARK VINA RESULT:      -4.8      6.901      8.747
REMARK  6 active torsions:
REMARK  status: ('A' for Active; 'I' for Inactive)
REMARK    1  A    between atoms: S_5  and  C_2 
REMARK    2  A    between atoms: C_13  and  S_5 
REMARK    3  A    between atoms: N_17  and  C_10 
REMARK    4  A    between atoms: C_24  and  N_17 
REMARK    5  A    between atoms: C_25  and  C_24 
REMARK    6  A    between atoms: C_26  and  C_25 
ROOT
ATOM      1  C   UNL d   1     -39.259  14.649  19.957  0.00  0.00     0.198 A 
ATOM      2  C   UNL d   1     -39.094  14.936  19.211  0.00  0.00     0.227 A 
ATOM      3  N   UNL d   1     -38.553  14.492  20.332  0.00  0.00    -0.192 N 
ATOM      4  N   UNL d   1     -39.982  14.510  20.347  0.00  0.00    -0.205 NA
ATOM      5  N   UNL d   1     -38.273  14.956  19.122  0.00  0.00    -0.115 NA
ATOM      6  N   UNL d   1     -37.944  14.682  19.816  0.00  0.00    -0.058 NA
ATOM      7  C   UNL d   1     -38.554  14.193  21.105  0.00  0.00     0.096 A 
ATOM      8  C   UNL d   1     -39.276  14.054  21.494  0.00  0.00     0.083 A 
ATOM      9  C   UNL d   1     -39.984  14.212  21.116  0.00  0.00     0.172 A 
ATOM     10  S   UNL d   1     -39.104  13.758  22.251  0.00  0.00    -0.082 SA
ATOM     11  C   UNL d   1     -37.941  13.982  21.624  0.00  0.00     0.027 A 
ATOM     12  C   UNL d   1     -38.277  13.714  22.328  0.00  0.00     0.037 A 
ENDROOT
BRANCH   2  13
ATOM     13  S   UNL d   1     -39.641  15.168  18.635  0.00  0.00     0.231 S 
ATOM     14  O   UNL d   1     -39.571  14.412  18.300  0.00  0.00    -0.215 OA
ATOM     15  O   UNL d   1     -39.713  15.922  18.965  0.00  0.00    -0.215 OA
BRANCH  13  16
ATOM     16  C   UNL d   1     -40.184  15.350  18.037  0.00  0.00     0.090 A 
ATOM     17  C   UNL d   1     -40.887  15.741  18.223  0.00  0.00     0.012 A 
ATOM     18  C   UNL d   1     -41.423  15.921  17.629  0.00  0.00     0.007 A 
ATOM     19  C   UNL d   1     -41.265  15.713  16.842  0.00  0.00     0.035 A 
ATOM     20  C   UNL d   1     -40.561  15.322  16.660  0.00  0.00     0.007 A 
ATOM     21 BR   UNL d   1     -41.802  15.893  16.249  0.00  0.00    -0.049 Br
ATOM     22  C   UNL d   1     -40.020  15.140  17.254  0.00  0.00     0.012 A 
ENDBRANCH  13  16
ENDBRANCH   2  13
BRANCH   9  23
ATOM     23  N   UNL d   1     -40.703  14.074  21.503  0.00  0.00    -0.225 NA
BRANCH  23  24
ATOM     24  C   UNL d   1     -41.319  13.696  21.105  0.00  0.00     0.101 C 
BRANCH  24  25
ATOM     25  C   UNL d   1     -42.073  13.681  21.436  0.00  0.00     0.021 C 
BRANCH  25  26
ATOM     26  C   UNL d   1     -42.652  13.190  21.119  0.00  0.00     0.002 C 
ATOM     27  C   UNL d   1     -43.069  12.676  21.608  0.00  0.00     0.000 C 
ATOM     28  C   UNL d   1     -42.820  13.206  20.312  0.00  0.00     0.000 C 
ENDBRANCH  25  26
ENDBRANCH  24  25
ENDBRANCH  23  24
ENDBRANCH   9  23
TORSDOF 6
ENDMDL
MODEL 3
REMARK VINA RESULT:      -4.7      2.010      3.883
REMARK  6 active torsions:
REMARK  status: ('A' for Active; 'I' for Inactive)
REMARK    1  A    between atoms: S_5  and  C_2 
REMARK    2  A    between atoms: C_13  and  S_5 
REMARK    3  A    between atoms: N_17  and  C_10 
REMARK    4  A    between atoms: C_24  and  N_17 
REMARK    5  A    between atoms: C_25  and  C_24 
REMARK    6  A    between atoms: C_26  and  C_25 
ROOT
ATOM      1  C   UNL d   1     -46.986  13.649  22.846  0.00  0.00     0.198 A 
ATOM      2  C   UNL d   1     -47.221  14.424  22.743  0.00  0.00     0.227 A 
ATOM      3  N   UNL d   1     -46.185  13.604  22.705  0.00  0.00    -0.192 N 
ATOM      4  N   UNL d   1     -47.415  12.967  23.055  0.00  0.00    -0.205 NA
ATOM      5  N   UNL d   1     -46.555  14.866  22.535  0.00  0.00    -0.115 NA
ATOM      6  N   UNL d   1     -45.919  14.357  22.513  0.00  0.00    -0.058 NA
ATOM      7  C   UNL d   1     -45.795  12.876  22.770  0.00  0.00     0.096 A 
ATOM      8  C   UNL d   1     -46.223  12.194  22.979  0.00  0.00     0.083 A 
ATOM      9  C   UNL d   1     -47.028  12.241  23.120  0.00  0.00     0.172 A 
ATOM     10  S   UNL d   1     -45.692  11.557  23.001  0.00  0.00    -0.082 SA
ATOM     11  C   UNL d   1     -45.001  12.655  22.664  0.00  0.00     0.027 A 
ATOM     12  C   UNL d   1     -44.936  11.844  22.805  0.00  0.00     0.037 A 
ENDROOT
BRANCH   2  13
ATOM     13  S   UNL d   1     -47.986  14.728  22.828  0.00  0.00     0.231 S 
ATOM     14  O   UNL d   1     -48.087  14.636  22.010  0.00  0.00    -0.215 OA
ATOM     15  O   UNL d   1     -47.890  14.821  23.643  0.00  0.00    -0.215 OA
BRANCH  13  16
ATOM     16  C   UNL d   1     -48.758  15.025  22.860  0.00  0.00     0.090 A 
ATOM     17  C   UNL d   1     -49.016  15.433  23.529  0.00  0.00     0.012 A 
ATOM     18  C   UNL d   1     -49.781  15.727  23.559  0.00  0.00     0.007 A 
ATOM     19  C   UNL d   1     -50.299  15.618  22.920  0.00  0.00     0.035 A 
ATOM     20  C   UNL d   1     -50.036  15.210  22.251  0.00  0.00     0.007 A 
ATOM     21 BR   UNL d   1     -51.063  15.912  22.950  0.00  0.00    -0.049 Br
ATOM     22  C   UNL d   1     -49.268  14.913  22.219  0.00  0.00     0.012 A 
ENDBRANCH  13  16
ENDBRANCH   2  13
BRANCH   9  23
ATOM     23  N   UNL d   1     -47.455  11.562  23.329  0.00  0.00    -0.225 NA
BRANCH  23  24
ATOM     24  C   UNL d   1     -48.201  11.431  23.004  0.00  0.00     0.101 C 
BRANCH  24  25
ATOM     25  C   UNL d   1     -48.855  11.345  23.499  0.00  0.00     0.021 C 
BRANCH  25  26
ATOM     26  C   UNL d   1     -49.615  11.402  23.192  0.00  0.00     0.002 C 
ATOM     27  C   UNL d   1     -50.261  11.466  23.698  0.00  0.00     0.000 C 
ATOM     28  C   UNL d   1     -49.740  11.397  22.376  0.00  0.00     0.000 C 
ENDBRANCH  25  26
ENDBRANCH  24  25
ENDBRANCH  23  24
ENDBRANCH   9  23
TORSDOF 6
ENDMDL
MODEL 4
REMARK VINA RESULT:      -4.7      1.298      1.812
REMARK  6 active torsions:
REMARK  status: ('A' for Active; 'I' for Inactive)
REMARK    1  A    between atoms: S_5  and  C_2 
REMARK    2  A    between atoms: C_13  and  S_5 
REMARK    3  A    between atoms: N_17  and  C_10 
REMARK    4  A    between atoms: C_24  and  N_17 
REMARK    5  A    between atoms: C_25  and  C_24 
REMARK    6  A    between atoms: C_26  and  C_25 
ROOT
ATOM      1  C   UNL d   1     -48.517  14.611  22.892  0.00  0.00     0.198 A 
ATOM      2  C   UNL d   1     -47.753  14.776  22.655  0.00  0.00     0.227 A 
ATOM      3  N   UNL d   1     -48.962  15.288  22.805  0.00  0.00    -0.192 N 
ATOM      4  N   UNL d   1     -48.865  13.913  23.183  0.00  0.00    -0.205 NA
ATOM      5  N   UNL d   1     -47.725  15.566  22.417  0.00  0.00    -0.115 NA
ATOM      6  N   UNL d   1     -48.472  15.878  22.511  0.00  0.00    -0.058 NA
ATOM      7  C   UNL d   1     -49.765  15.282  23.005  0.00  0.00     0.096 A 
ATOM      8  C   UNL d   1     -50.114  14.584  23.296  0.00  0.00     0.083 A 
ATOM      9  C   UNL d   1     -49.665  13.905  23.383  0.00  0.00     0.172 A 
ATOM     10  S   UNL d   1     -50.915  14.744  23.447  0.00  0.00    -0.082 SA
ATOM     11  C   UNL d   1     -50.354  15.868  22.980  0.00  0.00     0.027 A 
ATOM     12  C   UNL d   1     -51.060  15.539  23.251  0.00  0.00     0.037 A 
ENDROOT
BRANCH   2  13
ATOM     13  S   UNL d   1     -47.110  14.253  22.649  0.00  0.00     0.231 S 
ATOM     14  O   UNL d   1     -47.331  14.032  21.880  0.00  0.00    -0.215 OA
ATOM     15  O   UNL d   1     -46.888  14.472  23.414  0.00  0.00    -0.215 OA
BRANCH  13  16
ATOM     16  C   UNL d   1     -46.483  13.716  22.592  0.00  0.00     0.090 A 
ATOM     17  C   UNL d   1     -46.305  13.221  23.228  0.00  0.00     0.012 A 
ATOM     18  C   UNL d   1     -45.683  12.690  23.170  0.00  0.00     0.007 A 
ATOM     19  C   UNL d   1     -45.230  12.646  22.477  0.00  0.00     0.035 A 
ATOM     20  C   UNL d   1     -45.412  13.143  21.842  0.00  0.00     0.007 A 
ATOM     21 BR   UNL d   1     -44.608  12.114  22.419  0.00  0.00    -0.049 Br
ATOM     22  C   UNL d   1     -46.036  13.678  21.898  0.00  0.00     0.012 A 
ENDBRANCH  13  16
ENDBRANCH   2  13
BRANCH   9  23
ATOM     23  N   UNL d   1     -50.012  13.211  23.672  0.00  0.00    -0.225 NA
BRANCH  23  24
ATOM     24  C   UNL d   1     -49.921  12.503  23.259  0.00  0.00     0.101 C 
BRANCH  24  25
ATOM     25  C   UNL d   1     -49.729  11.812  23.665  0.00  0.00     0.021 C 
BRANCH  25  26
ATOM     26  C   UNL d   1     -49.330  11.206  23.280  0.00  0.00     0.002 C 
ATOM     27  C   UNL d   1     -49.427  11.097  22.470  0.00  0.00     0.000 C 
ATOM     28  C   UNL d   1     -48.829  10.701  23.698  0.00  0.00     0.000 C 
ENDBRANCH  25  26
ENDBRANCH  24  25
ENDBRANCH  23  24
ENDBRANCH   9  23
TORSDOF 6
ENDMDL
MODEL 5
REMARK VINA RESULT:      -4.2      1.790      3.229
REMARK  6 active torsions:
REMARK  status: ('A' for Active; 'I' for Inactive)
REMARK    1  A    between atoms: S_5  and  C_2 
REMARK    2  A    between atoms: C_13  and  S_5 
REMARK    3  A    between atoms: N_17  and  C_10 
REMARK    4  A    between atoms: C_24  and  N_17 
REMARK    5  A    between atoms: C_25  and  C_24 
REMARK    6  A    between atoms: C_26  and  C_25 
ROOT
ATOM      1  C   UNL d   1     -48.436  12.050  23.021  0.00  0.00     0.198 A 
ATOM      2  C   UNL d   1     -47.659  11.810  23.095  0.00  0.00     0.227 A 
ATOM      3  N   UNL d   1     -48.910  11.492  23.378  0.00  0.00    -0.192 N 
ATOM      4  N   UNL d   1     -48.773  12.723  22.666  0.00  0.00    -0.205 NA
ATOM      5  N   UNL d   1     -47.653  11.092  23.503  0.00  0.00    -0.115 NA
ATOM      6  N   UNL d   1     -48.426  10.900  23.676  0.00  0.00    -0.058 NA
ATOM      7  C   UNL d   1     -49.733  11.594  23.386  0.00  0.00     0.096 A 
ATOM      8  C   UNL d   1     -50.070  12.266  23.031  0.00  0.00     0.083 A 
ATOM      9  C   UNL d   1     -49.592  12.826  22.673  0.00  0.00     0.172 A 
ATOM     10  S   UNL d   1     -50.893  12.218  23.125  0.00  0.00    -0.082 SA
ATOM     11  C   UNL d   1     -50.351  11.135  23.698  0.00  0.00     0.027 A 
ATOM     12  C   UNL d   1     -51.064  11.517  23.538  0.00  0.00     0.037 A 
ENDROOT
BRANCH   2  13
ATOM     13  S   UNL d   1     -46.988  12.205  22.816  0.00  0.00     0.231 S 
ATOM     14  O   UNL d   1     -46.755  12.314  23.604  0.00  0.00    -0.215 OA
ATOM     15  O   UNL d   1     -47.216  12.098  22.029  0.00  0.00    -0.215 OA
BRANCH  13  16
ATOM     16  C   UNL d   1     -46.301  12.607  22.588  0.00  0.00     0.090 A 
ATOM     17  C   UNL d   1     -46.158  13.371  22.868  0.00  0.00     0.012 A 
ATOM     18  C   UNL d   1     -45.477  13.768  22.641  0.00  0.00     0.007 A 
ATOM     19  C   UNL d   1     -44.930  13.409  22.133  0.00  0.00     0.035 A 
ATOM     20  C   UNL d   1     -45.076  12.644  21.855  0.00  0.00     0.007 A 
ATOM     21 BR   UNL d   1     -44.249  13.806  21.906  0.00  0.00    -0.049 Br
ATOM     22  C   UNL d   1     -45.759  12.243  22.081  0.00  0.00     0.012 A 
ENDBRANCH  13  16
ENDBRANCH   2  13
BRANCH   9  23
ATOM     23  N   UNL d   1     -49.927  13.496  22.319  0.00  0.00    -0.225 NA
BRANCH  23  24
ATOM     24  C   UNL d   1     -49.959  14.208  22.734  0.00  0.00     0.101 C 
BRANCH  24  25
ATOM     25  C   UNL d   1     -49.752  14.911  22.359  0.00  0.00     0.021 C 
BRANCH  25  26
ATOM     26  C   UNL d   1     -49.541  15.569  22.805  0.00  0.00     0.002 C 
ATOM     27  C   UNL d   1     -50.070  15.885  23.350  0.00  0.00     0.000 C 
ATOM     28  C   UNL d   1     -48.799  15.920  22.711  0.00  0.00     0.000 C 
ENDBRANCH  25  26
ENDBRANCH  24  25
ENDBRANCH  23  24
ENDBRANCH   9  23
TORSDOF 6
ENDMDL
