MODEL 1
REMARK VINA RESULT:      -8.7      0.000      0.000
REMARK  2 active torsions:
REMARK  status: ('A' for Active; 'I' for Inactive)
REMARK    1  A    between atoms: S_2  and  N_1 
REMARK    2  A    between atoms: N_6  and  S_2 
ROOT
ATOM      1  N   UNL d   1     -47.907  14.119  22.703  0.00  0.00    -0.199 N 
ATOM      2  C   UNL d   1     -47.616  13.398  22.965  0.00  0.00     0.095 A 
ATOM      3  C   UNL d   1     -47.249  14.614  22.543  0.00  0.00     0.194 A 
ATOM      4  N   UNL d   1     -46.565  14.180  22.712  0.00  0.00    -0.223 NA
ATOM      5  C   UNL d   1     -46.791  13.434  22.972  0.00  0.00     0.100 A 
ATOM      6  C   UNL d   1     -48.005  12.712  23.199  0.00  0.00     0.020 A 
ATOM      7  C   UNL d   1     -46.358  12.776  23.216  0.00  0.00     0.021 A 
ATOM      8  C   UNL d   1     -47.573  12.054  23.443  0.00  0.00     0.002 A 
ATOM      9  C   UNL d   1     -46.745  12.085  23.451  0.00  0.00     0.002 A 
ATOM     10  C   UNL d   1     -47.963  11.364  23.679  0.00  0.00     0.000 C 
ATOM     11  C   UNL d   1     -46.309  11.426  23.696  0.00  0.00     0.000 C 
ENDROOT
BRANCH   1  12
ATOM     12  S   UNL d   1     -48.691  14.322  22.612  0.00  0.00     0.339 S 
ATOM     13  O   UNL d   1     -48.715  14.607  23.384  0.00  0.00    -0.181 OA
ATOM     14  O   UNL d   1     -48.671  14.038  21.841  0.00  0.00    -0.181 OA
BRANCH  12  15
ATOM     15  N   UNL d   1     -49.483  14.522  22.510  0.00  0.00    -0.212 N 
ATOM     16  C   UNL d   1     -49.853  15.023  23.050  0.00  0.00     0.120 A 
ATOM     17  C   UNL d   1     -50.641  15.223  22.948  0.00  0.00     0.142 A 
ATOM     18  O   UNL d   1     -51.064  14.931  22.315  0.00  0.00    -0.300 OA
ATOM     19  C   UNL d   1     -50.702  14.430  21.771  0.00  0.00     0.142 A 
ATOM     20  C   UNL d   1     -49.902  14.225  21.871  0.00  0.00     0.120 A 
ENDBRANCH  12  15
ENDBRANCH   1  12
TORSDOF 2
ENDMDL
MODEL 2
REMARK VINA RESULT:      -8.5      1.262      2.003
REMARK  2 active torsions:
REMARK  status: ('A' for Active; 'I' for Inactive)
REMARK    1  A    between atoms: S_2  and  N_1 
REMARK    2  A    between atoms: N_6  and  S_2 
ROOT
ATOM      1  N   UNL d   1     -49.427  12.465  23.201  0.00  0.00    -0.199 N 
ATOM      2  C   UNL d   1     -48.613  12.389  23.269  0.00  0.00     0.095 A 
ATOM      3  C   UNL d   1     -49.771  11.748  23.470  0.00  0.00     0.194 A 
ATOM      4  N   UNL d   1     -49.153  11.246  23.698  0.00  0.00    -0.223 NA
ATOM      5  C   UNL d   1     -48.443  11.641  23.574  0.00  0.00     0.100 A 
ATOM      6  C   UNL d   1     -48.006  12.914  23.089  0.00  0.00     0.020 A 
ATOM      7  C   UNL d   1     -47.657  11.423  23.697  0.00  0.00     0.021 A 
ATOM      8  C   UNL d   1     -47.220  12.696  23.212  0.00  0.00     0.002 A 
ATOM      9  C   UNL d   1     -47.044  11.947  23.517  0.00  0.00     0.002 A 
ATOM     10  C   UNL d   1     -46.609  13.223  23.031  0.00  0.00     0.000 C 
ATOM     11  C   UNL d   1     -46.257  11.725  23.642  0.00  0.00     0.000 C 
ENDROOT
BRANCH   1  12
ATOM     12  S   UNL d   1     -49.833  13.115  22.924  0.00  0.00     0.339 S 
ATOM     13  O   UNL d   1     -49.827  12.804  22.162  0.00  0.00    -0.181 OA
ATOM     14  O   UNL d   1     -49.841  13.428  23.684  0.00  0.00    -0.181 OA
BRANCH  12  15
ATOM     15  N   UNL d   1     -50.243  13.776  22.656  0.00  0.00    -0.212 N 
ATOM     16  C   UNL d   1     -50.566  13.779  21.897  0.00  0.00     0.120 A 
ATOM     17  C   UNL d   1     -50.974  14.438  21.630  0.00  0.00     0.142 A 
ATOM     18  O   UNL d   1     -51.064  15.092  22.108  0.00  0.00    -0.300 OA
ATOM     19  C   UNL d   1     -50.744  15.097  22.867  0.00  0.00     0.142 A 
ATOM     20  C   UNL d   1     -50.330  14.431  23.142  0.00  0.00     0.120 A 
ENDBRANCH  12  15
ENDBRANCH   1  12
TORSDOF 2
ENDMDL
