MODEL 1
REMARK VINA RESULT:      49.6      0.000      0.000
REMARK  4 active torsions:
REMARK  status: ('A' for Active; 'I' for Inactive)
REMARK    1  A    between atoms: N_6  and  C_2 
REMARK    2  A    between atoms: C_7  and  C_3 
REMARK    3  A    between atoms: C_10  and  N_6 
REMARK    4  A    between atoms: O_14  and  C_11 
ROOT
ATOM      1  N   UNL d   1     -49.621  26.603  33.824  0.00  0.00    -0.221 NA
ATOM      2  C   UNL d   1     -49.455  27.405  33.755  0.00  0.00     0.194 A 
ATOM      3  C   UNL d   1     -50.380  26.488  33.548  0.00  0.00     0.090 A 
ATOM      4  S   UNL d   1     -50.118  27.760  33.437  0.00  0.00    -0.046 SA
ATOM      5  C   UNL d   1     -50.691  27.204  33.306  0.00  0.00     0.058 A 
ENDROOT
BRANCH   3   6
ATOM      6  C   UNL d   1     -50.830  25.799  33.487  0.00  0.00     0.018 A 
ATOM      7  C   UNL d   1     -50.494  25.090  33.443  0.00  0.00     0.004 A 
ATOM      8  C   UNL d   1     -50.963  24.404  33.382  0.00  0.00     0.024 A 
ATOM      9  C   UNL d   1     -51.743  24.474  33.369  0.00  0.00     0.094 A 
ATOM     10  C   UNL d   1     -52.114  25.195  33.413  0.00  0.00     0.024 A 
ATOM     11  C   UNL d   1     -51.664  25.883  33.474  0.00  0.00     0.004 A 
BRANCH   9  12
ATOM     12  O   UNL d   1     -52.212  23.764  33.307  0.00  0.00    -0.328 OA
ATOM     13  C   UNL d   1     -52.775  23.615  33.898  0.00  0.00     0.181 C 
ENDBRANCH   9  12
ENDBRANCH   3   6
BRANCH   2  14
ATOM     14  N   UNL d   1     -48.742  27.765  33.973  0.00  0.00    -0.221 NA
BRANCH  14  15
ATOM     15  C   UNL d   1     -48.667  28.101  34.713  0.00  0.00     0.084 A 
ATOM     16  C   UNL d   1     -48.258  28.821  34.819  0.00  0.00     0.019 A 
ATOM     17  C   UNL d   1     -48.174  29.177  35.574  0.00  0.00     0.002 A 
ATOM     18  C   UNL d   1     -48.507  28.802  36.233  0.00  0.00     0.000 A 
ATOM     19  C   UNL d   1     -48.929  28.060  36.126  0.00  0.00     0.002 A 
ATOM     20  C   UNL d   1     -49.006  27.720  35.384  0.00  0.00     0.019 A 
ENDBRANCH  14  15
ENDBRANCH   2  14
TORSDOF 4
ENDMDL
