MODEL 1
REMARK VINA RESULT:     103.9      0.000      0.000
REMARK  6 active torsions:
REMARK  status: ('A' for Active; 'I' for Inactive)
REMARK    1  A    between atoms: C_8  and  C_1 
REMARK    2  A    between atoms: C_13  and  N_2 
REMARK    3  A    between atoms: C_7  and  C_4 
REMARK    4  A    between atoms: C_6  and  C_8 
REMARK    5  A    between atoms: C_21  and  C_13 
REMARK    6  A    between atoms: N_22  and  C_21 
ROOT
ATOM      1  C   UNL d   1      59.678  48.013  51.194  0.00  0.00     0.103 A 
ATOM      2  N   UNL d   1      60.591  47.091  50.886  0.00  0.00    -0.267 N 
ATOM      3  C   UNL d   1      59.405  47.281  51.465  0.00  0.00     0.256 A 
ATOM      4  C   UNL d   1      60.408  47.893  50.839  0.00  0.00     0.096 A 
ATOM      5  C   UNL d   1      59.970  46.710  51.273  0.00  0.00     0.304 A 
ATOM      6  O   UNL d   1      59.914  45.902  51.445  0.00  0.00    -0.263 OA
ATOM      7  O   UNL d   1      58.688  47.140  51.859  0.00  0.00    -0.281 OA
ENDROOT
BRANCH   1   8
ATOM      8  C   UNL d   1      59.286  48.731  51.270  0.00  0.00     0.223 C 
ATOM      9  O   UNL d   1      59.543  49.287  51.827  0.00  0.00    -0.284 OA
BRANCH   8  10
ATOM     10  C   UNL d   1      58.633  48.910  50.795  0.00  0.00     0.139 A 
ATOM     11  O   UNL d   1      58.652  49.210  50.025  0.00  0.00    -0.304 OA
ATOM     12  C   UNL d   1      57.873  49.302  49.771  0.00  0.00     0.100 A 
ATOM     13  C   UNL d   1      57.559  49.574  49.066  0.00  0.00     0.025 A 
ATOM     14  C   UNL d   1      57.375  49.062  50.376  0.00  0.00     0.025 A 
ATOM     15  C   UNL d   1      56.748  49.606  48.965  0.00  0.00     0.002 A 
ATOM     16  C   UNL d   1      56.250  49.366  49.569  0.00  0.00     0.000 A 
ATOM     17  C   UNL d   1      56.560  49.093  50.277  0.00  0.00     0.002 A 
ATOM     18  C   UNL d   1      57.849  48.819  51.010  0.00  0.00     0.030 A 
ENDBRANCH   8  10
ENDBRANCH   1   8
BRANCH   4  19
ATOM     19  C   UNL d   1      60.883  48.485  50.489  0.00  0.00     0.116 A 
ATOM     20  O   UNL d   1      61.042  48.655  49.699  0.00  0.00    -0.306 OA
ATOM     21  C   UNL d   1      61.545  49.299  49.674  0.00  0.00     0.100 A 
ATOM     22  C   UNL d   1      61.849  49.658  48.994  0.00  0.00     0.027 C 
ATOM     23  C   UNL d   1      61.706  49.537  50.447  0.00  0.00     0.027 A 
ATOM     24  C   UNL d   1      61.291  49.029  50.957  0.00  0.00     0.028 A 
ENDBRANCH   4  19
BRANCH   2  25
ATOM     25  C   UNL d   1      61.273  46.724  50.598  0.00  0.00     0.102 C 
BRANCH  25  26
ATOM     26  C   UNL d   1      61.285  46.417  49.830  0.00  0.00     0.100 C 
BRANCH  26  27
ATOM     27  N   UNL d   1      61.832  45.831  49.621  0.00  0.00    -0.299 N 
ATOM     28  C   UNL d   1      62.639  45.966  49.731  0.00  0.00     0.100 C 
ATOM     29  C   UNL d   1      61.565  45.120  49.307  0.00  0.00     0.100 C 
ENDBRANCH  26  27
ENDBRANCH  25  26
ENDBRANCH   2  25
TORSDOF 6
ENDMDL
MODEL 2
REMARK VINA RESULT:     104.4      0.910      2.288
REMARK  6 active torsions:
REMARK  status: ('A' for Active; 'I' for Inactive)
REMARK    1  A    between atoms: C_8  and  C_1 
REMARK    2  A    between atoms: C_13  and  N_2 
REMARK    3  A    between atoms: C_7  and  C_4 
REMARK    4  A    between atoms: C_6  and  C_8 
REMARK    5  A    between atoms: C_21  and  C_13 
REMARK    6  A    between atoms: N_22  and  C_21 
ROOT
ATOM      1  C   UNL d   1      60.755  48.477  50.661  0.00  0.00     0.103 A 
ATOM      2  N   UNL d   1      61.579  47.594  50.095  0.00  0.00    -0.267 N 
ATOM      3  C   UNL d   1      61.125  48.846  50.021  0.00  0.00     0.256 A 
ATOM      4  C   UNL d   1      61.036  47.707  50.704  0.00  0.00     0.096 A 
ATOM      5  C   UNL d   1      61.635  48.300  49.670  0.00  0.00     0.304 A 
ATOM      6  O   UNL d   1      62.113  48.444  49.010  0.00  0.00    -0.263 OA
ATOM      7  O   UNL d   1      61.007  49.629  49.770  0.00  0.00    -0.281 OA
ENDROOT
BRANCH   1   8
ATOM      8  C   UNL d   1      60.204  48.822  51.163  0.00  0.00     0.223 C 
ATOM      9  O   UNL d   1      60.415  49.016  51.940  0.00  0.00    -0.284 OA
BRANCH   8  10
ATOM     10  C   UNL d   1      59.435  48.981  50.905  0.00  0.00     0.139 A 
ATOM     11  O   UNL d   1      58.734  48.804  51.305  0.00  0.00    -0.304 OA
ATOM     12  C   UNL d   1      58.104  49.062  50.840  0.00  0.00     0.100 A 
ATOM     13  C   UNL d   1      57.295  49.034  50.955  0.00  0.00     0.025 A 
ATOM     14  C   UNL d   1      58.410  49.396  50.157  0.00  0.00     0.025 A 
ATOM     15  C   UNL d   1      56.791  49.338  50.389  0.00  0.00     0.002 A 
ATOM     16  C   UNL d   1      57.095  49.672  49.705  0.00  0.00     0.000 A 
ATOM     17  C   UNL d   1      57.905  49.703  49.585  0.00  0.00     0.002 A 
ATOM     18  C   UNL d   1      59.236  49.344  50.199  0.00  0.00     0.030 A 
ENDBRANCH   8  10
ENDBRANCH   1   8
BRANCH   4  19
ATOM     19  C   UNL d   1      60.809  47.137  51.271  0.00  0.00     0.116 A 
ATOM     20  O   UNL d   1      60.259  46.526  51.234  0.00  0.00    -0.306 OA
ATOM     21  C   UNL d   1      60.261  46.136  51.953  0.00  0.00     0.100 A 
ATOM     22  C   UNL d   1      59.794  45.487  52.160  0.00  0.00     0.027 C 
ATOM     23  C   UNL d   1      60.813  46.500  52.446  0.00  0.00     0.027 A 
ATOM     24  C   UNL d   1      61.156  47.126  52.021  0.00  0.00     0.028 A 
ENDBRANCH   4  19
BRANCH   2  25
ATOM     25  C   UNL d   1      61.998  46.901  49.930  0.00  0.00     0.102 C 
BRANCH  25  26
ATOM     26  C   UNL d   1      61.693  46.352  49.391  0.00  0.00     0.100 C 
BRANCH  26  27
ATOM     27  N   UNL d   1      62.194  45.806  49.021  0.00  0.00    -0.299 N 
ATOM     28  C   UNL d   1      62.974  46.016  48.851  0.00  0.00     0.100 C 
ATOM     29  C   UNL d   1      61.908  45.060  48.828  0.00  0.00     0.100 C 
ENDBRANCH  26  27
ENDBRANCH  25  26
ENDBRANCH   2  25
TORSDOF 6
ENDMDL
