MODEL 1
REMARK VINA RESULT:      -4.3      0.000      0.000
REMARK  4 active torsions:
REMARK  status: ('A' for Active; 'I' for Inactive)
REMARK    1  A    between atoms: C_2  and  C_1 
REMARK       I    between atoms: N_5  and  C_1 
REMARK    2  A    between atoms: C_4  and  C_2 
REMARK    3  A    between atoms: C_3  and  C_4 
REMARK    4  A    between atoms: C_9  and  N_5 
ROOT
ATOM      1  C   UNL d   1      57.431   0.185  31.168  0.00  0.00     0.280 C 
ATOM      2  N   UNL d   1      57.473  -0.121  31.944  0.00  0.00    -0.208 NA
ATOM      3  O   UNL d   1      56.709   0.400  30.833  0.00  0.00    -0.265 OA
ENDROOT
BRANCH   1   4
ATOM      4  C   UNL d   1      58.122   0.272  30.733  0.00  0.00     0.069 C 
BRANCH   4   5
ATOM      5  C   UNL d   1      58.095   0.222  29.898  0.00  0.00     0.075 C 
BRANCH   5   6
ATOM      6  C   UNL d   1      58.808   0.151  29.467  0.00  0.00     0.211 C 
ATOM      7  O   UNL d   1      58.892  -0.467  28.908  0.00  0.00    -0.644 OA
ATOM      8  O   UNL d   1      59.438   0.679  29.580  0.00  0.00    -0.644 OA
ENDBRANCH   5   6
ENDBRANCH   4   5
ENDBRANCH   1   4
BRANCH   2   9
ATOM      9  C   UNL d   1      56.768  -0.208  32.384  0.00  0.00     0.085 A 
ATOM     10  C   UNL d   1      56.406  -0.949  32.445  0.00  0.00     0.019 A 
ATOM     11  C   UNL d   1      55.715  -1.038  32.875  0.00  0.00     0.002 A 
ATOM     12  C   UNL d   1      55.371  -0.394  33.251  0.00  0.00     0.000 A 
ATOM     13  C   UNL d   1      55.732   0.364  33.194  0.00  0.00     0.002 A 
ATOM     14  C   UNL d   1      56.426   0.438  32.759  0.00  0.00     0.019 A 
ENDBRANCH   2   9
TORSDOF 4
ENDMDL
MODEL 2
REMARK VINA RESULT:      -3.9      1.327      3.885
REMARK  4 active torsions:
REMARK  status: ('A' for Active; 'I' for Inactive)
REMARK    1  A    between atoms: C_2  and  C_1 
REMARK       I    between atoms: N_5  and  C_1 
REMARK    2  A    between atoms: C_4  and  C_2 
REMARK    3  A    between atoms: C_3  and  C_4 
REMARK    4  A    between atoms: C_9  and  N_5 
ROOT
ATOM      1  C   UNL d   1      57.376  -0.223  31.192  0.00  0.00     0.280 C 
ATOM      2  N   UNL d   1      57.812   0.463  30.998  0.00  0.00    -0.208 NA
ATOM      3  O   UNL d   1      57.388  -0.887  30.702  0.00  0.00    -0.265 OA
ENDROOT
BRANCH   1   4
ATOM      4  C   UNL d   1      56.931  -0.235  31.881  0.00  0.00     0.069 C 
BRANCH   4   5
ATOM      5  C   UNL d   1      56.461  -0.904  32.060  0.00  0.00     0.075 C 
BRANCH   5   6
ATOM      6  C   UNL d   1      56.064  -0.943  32.795  0.00  0.00     0.211 C 
ATOM      7  O   UNL d   1      56.244  -1.563  33.328  0.00  0.00    -0.644 OA
ATOM      8  O   UNL d   1      55.494  -0.380  33.010  0.00  0.00    -0.644 OA
ENDBRANCH   5   6
ENDBRANCH   4   5
ENDBRANCH   1   4
BRANCH   2   9
ATOM      9  C   UNL d   1      58.264   0.471  30.295  0.00  0.00     0.085 A 
ATOM     10  C   UNL d   1      57.910   0.673  29.576  0.00  0.00     0.019 A 
ATOM     11  C   UNL d   1      58.349   0.682  28.885  0.00  0.00     0.002 A 
ATOM     12  C   UNL d   1      59.148   0.490  28.896  0.00  0.00     0.000 A 
ATOM     13  C   UNL d   1      59.517   0.283  29.624  0.00  0.00     0.002 A 
ATOM     14  C   UNL d   1      59.062   0.279  30.309  0.00  0.00     0.019 A 
ENDBRANCH   2   9
TORSDOF 4
ENDMDL
MODEL 3
REMARK VINA RESULT:      -3.9      1.494      2.066
REMARK  4 active torsions:
REMARK  status: ('A' for Active; 'I' for Inactive)
REMARK    1  A    between atoms: C_2  and  C_1 
REMARK       I    between atoms: N_5  and  C_1 
REMARK    2  A    between atoms: C_4  and  C_2 
REMARK    3  A    between atoms: C_3  and  C_4 
REMARK    4  A    between atoms: C_9  and  N_5 
ROOT
ATOM      1  C   UNL d   1      56.377  -0.073  32.522  0.00  0.00     0.280 C 
ATOM      2  N   UNL d   1      56.101   0.658  32.818  0.00  0.00    -0.208 NA
ATOM      3  O   UNL d   1      56.216  -0.780  32.915  0.00  0.00    -0.265 OA
ENDROOT
BRANCH   1   4
ATOM      4  C   UNL d   1      56.815  -0.085  31.828  0.00  0.00     0.069 C 
BRANCH   4   5
ATOM      5  C   UNL d   1      57.009  -0.818  31.473  0.00  0.00     0.075 C 
BRANCH   5   6
ATOM      6  C   UNL d   1      57.479  -0.828  30.782  0.00  0.00     0.211 C 
ATOM      7  O   UNL d   1      57.744  -1.561  30.475  0.00  0.00    -0.644 OA
ATOM      8  O   UNL d   1      57.692  -0.128  30.392  0.00  0.00    -0.644 OA
ENDBRANCH   5   6
ENDBRANCH   4   5
ENDBRANCH   1   4
BRANCH   2   9
ATOM      9  C   UNL d   1      55.655   0.666  33.525  0.00  0.00     0.085 A 
ATOM     10  C   UNL d   1      54.828   0.673  33.495  0.00  0.00     0.019 A 
ATOM     11  C   UNL d   1      54.388   0.681  34.184  0.00  0.00     0.002 A 
ATOM     12  C   UNL d   1      54.760   0.682  34.917  0.00  0.00     0.000 A 
ATOM     13  C   UNL d   1      55.601   0.675  34.958  0.00  0.00     0.002 A 
ATOM     14  C   UNL d   1      56.029   0.667  34.256  0.00  0.00     0.019 A 
ENDBRANCH   2   9
TORSDOF 4
ENDMDL
