MODEL 1
REMARK VINA RESULT:      -8.5      0.000      0.000
REMARK  4 active torsions:
REMARK  status: ('A' for Active; 'I' for Inactive)
REMARK    1  A    between atoms: C_5  and  N_1 
REMARK    2  A    between atoms: C_7  and  C_5 
REMARK    3  A    between atoms: O_14  and  C_10 
REMARK    4  A    between atoms: C_17  and  O_14 
ROOT
ATOM      1  N   UNL d   1      53.005  31.875  53.478  0.00  0.00    -0.251 N 
ATOM      2  C   UNL d   1      52.761  32.053  52.706  0.00  0.00     0.378 A 
ATOM      3  C   UNL d   1      53.024  31.052  53.559  0.00  0.00     0.092 A 
ATOM      4  O   UNL d   1      52.630  31.338  52.311  0.00  0.00    -0.258 OA
ATOM      5  C   UNL d   1      52.792  30.721  52.838  0.00  0.00     0.121 A 
ATOM      6  O   UNL d   1      52.666  32.805  52.386  0.00  0.00    -0.237 OA
ATOM      7  C   UNL d   1      53.222  30.573  54.195  0.00  0.00     0.020 A 
ATOM      8  C   UNL d   1      52.762  29.896  52.763  0.00  0.00     0.026 A 
ATOM      9  C   UNL d   1      53.190  29.757  54.117  0.00  0.00     0.002 A 
ATOM     10  C   UNL d   1      52.960  29.418  53.400  0.00  0.00     0.002 A 
ATOM     11  C   UNL d   1      53.389  29.274  54.755  0.00  0.00     0.000 C 
ENDROOT
BRANCH   1  12
ATOM     12  C   UNL d   1      53.202  32.395  54.086  0.00  0.00     0.087 C 
BRANCH  12  13
ATOM     13  C   UNL d   1      53.920  32.805  54.069  0.00  0.00     0.041 A 
ATOM     14  C   UNL d   1      53.989  33.527  54.434  0.00  0.00     0.102 A 
ATOM     15  C   UNL d   1      54.700  33.931  54.416  0.00  0.00     0.025 A 
ATOM     16  C   UNL d   1      55.349  33.607  54.029  0.00  0.00     0.002 A 
ATOM     17  C   UNL d   1      55.279  32.872  53.658  0.00  0.00     0.000 A 
ATOM     18  C   UNL d   1      54.559  32.471  53.679  0.00  0.00     0.004 A 
BRANCH  14  19
ATOM     19  O   UNL d   1      53.339  33.859  54.826  0.00  0.00    -0.305 OA
BRANCH  19  20
ATOM     20  C   UNL d   1      53.378  34.634  55.108  0.00  0.00     0.123 C 
ATOM     21  C   UNL d   1      52.706  35.116  55.091  0.00  0.00     0.029 C 
ENDBRANCH  19  20
ENDBRANCH  14  19
ENDBRANCH  12  13
ENDBRANCH   1  12
TORSDOF 4
ENDMDL
MODEL 2
REMARK VINA RESULT:      -8.2      1.502      2.157
REMARK  4 active torsions:
REMARK  status: ('A' for Active; 'I' for Inactive)
REMARK    1  A    between atoms: C_5  and  N_1 
REMARK    2  A    between atoms: C_7  and  C_5 
REMARK    3  A    between atoms: O_14  and  C_10 
REMARK    4  A    between atoms: C_17  and  O_14 
ROOT
ATOM      1  N   UNL d   1      53.622  32.367  53.176  0.00  0.00    -0.251 N 
ATOM      2  C   UNL d   1      54.435  32.380  53.332  0.00  0.00     0.378 A 
ATOM      3  C   UNL d   1      53.348  31.596  53.296  0.00  0.00     0.092 A 
ATOM      4  O   UNL d   1      54.664  31.615  53.549  0.00  0.00    -0.258 OA
ATOM      5  C   UNL d   1      53.992  31.132  53.526  0.00  0.00     0.121 A 
ATOM      6  O   UNL d   1      54.932  33.034  53.282  0.00  0.00    -0.237 OA
ATOM      7  C   UNL d   1      52.600  31.267  53.224  0.00  0.00     0.020 A 
ATOM      8  C   UNL d   1      53.874  30.327  53.684  0.00  0.00     0.026 A 
ATOM      9  C   UNL d   1      52.487  30.470  53.381  0.00  0.00     0.002 A 
ATOM     10  C   UNL d   1      53.125  29.999  53.611  0.00  0.00     0.002 A 
ATOM     11  C   UNL d   1      51.736  30.138  53.308  0.00  0.00     0.000 C 
ENDROOT
BRANCH   1  12
ATOM     12  C   UNL d   1      53.135  32.990  52.941  0.00  0.00     0.087 C 
BRANCH  12  13
ATOM     13  C   UNL d   1      52.965  33.607  53.464  0.00  0.00     0.041 A 
ATOM     14  C   UNL d   1      52.352  34.117  53.309  0.00  0.00     0.102 A 
ATOM     15  C   UNL d   1      52.185  34.728  53.828  0.00  0.00     0.025 A 
ATOM     16  C   UNL d   1      52.637  34.828  54.508  0.00  0.00     0.002 A 
ATOM     17  C   UNL d   1      53.260  34.309  54.664  0.00  0.00     0.000 A 
ATOM     18  C   UNL d   1      53.423  33.696  54.138  0.00  0.00     0.004 A 
BRANCH  14  19
ATOM     19  O   UNL d   1      51.893  34.023  52.627  0.00  0.00    -0.305 OA
BRANCH  19  20
ATOM     20  C   UNL d   1      51.164  34.405  52.562  0.00  0.00     0.123 C 
ATOM     21  C   UNL d   1      50.658  34.231  51.931  0.00  0.00     0.029 C 
ENDBRANCH  19  20
ENDBRANCH  14  19
ENDBRANCH  12  13
ENDBRANCH   1  12
TORSDOF 4
ENDMDL
MODEL 3
REMARK VINA RESULT:      -7.6      1.846      3.403
REMARK  4 active torsions:
REMARK  status: ('A' for Active; 'I' for Inactive)
REMARK    1  A    between atoms: C_5  and  N_1 
REMARK    2  A    between atoms: C_7  and  C_5 
REMARK    3  A    between atoms: O_14  and  C_10 
REMARK    4  A    between atoms: C_17  and  O_14 
ROOT
ATOM      1  N   UNL d   1      52.818  34.011  53.263  0.00  0.00    -0.251 N 
ATOM      2  C   UNL d   1      53.016  34.815  53.278  0.00  0.00     0.378 A 
ATOM      3  C   UNL d   1      51.997  33.949  53.183  0.00  0.00     0.092 A 
ATOM      4  O   UNL d   1      52.316  35.250  53.206  0.00  0.00    -0.258 OA
ATOM      5  C   UNL d   1      51.688  34.714  53.147  0.00  0.00     0.121 A 
ATOM      6  O   UNL d   1      53.773  35.130  53.350  0.00  0.00    -0.237 OA
ATOM      7  C   UNL d   1      51.503  33.295  53.138  0.00  0.00     0.020 A 
ATOM      8  C   UNL d   1      50.869  34.816  53.066  0.00  0.00     0.026 A 
ATOM      9  C   UNL d   1      50.694  33.399  53.057  0.00  0.00     0.002 A 
ATOM     10  C   UNL d   1      50.376  34.161  53.021  0.00  0.00     0.002 A 
ATOM     11  C   UNL d   1      50.196  32.744  53.012  0.00  0.00     0.000 C 
ENDROOT
BRANCH   1  12
ATOM     12  C   UNL d   1      53.319  33.358  53.317  0.00  0.00     0.087 C 
BRANCH  12  13
ATOM     13  C   UNL d   1      53.651  33.145  54.044  0.00  0.00     0.041 A 
ATOM     14  C   UNL d   1      53.819  32.367  54.205  0.00  0.00     0.102 A 
ATOM     15  C   UNL d   1      54.147  32.158  54.924  0.00  0.00     0.025 A 
ATOM     16  C   UNL d   1      54.308  32.734  55.488  0.00  0.00     0.002 A 
ATOM     17  C   UNL d   1      54.137  33.525  55.324  0.00  0.00     0.000 A 
ATOM     18  C   UNL d   1      53.806  33.729  54.597  0.00  0.00     0.004 A 
BRANCH  14  19
ATOM     19  O   UNL d   1      53.660  31.781  53.641  0.00  0.00    -0.305 OA
BRANCH  19  20
ATOM     20  C   UNL d   1      53.795  30.987  53.821  0.00  0.00     0.123 C 
ATOM     21  C   UNL d   1      53.500  30.393  53.326  0.00  0.00     0.029 C 
ENDBRANCH  19  20
ENDBRANCH  14  19
ENDBRANCH  12  13
ENDBRANCH   1  12
TORSDOF 4
ENDMDL
MODEL 4
REMARK VINA RESULT:      -7.6      2.171      3.604
REMARK  4 active torsions:
REMARK  status: ('A' for Active; 'I' for Inactive)
REMARK    1  A    between atoms: C_5  and  N_1 
REMARK    2  A    between atoms: C_7  and  C_5 
REMARK    3  A    between atoms: O_14  and  C_10 
REMARK    4  A    between atoms: C_17  and  O_14 
ROOT
ATOM      1  N   UNL d   1      52.786  34.477  54.328  0.00  0.00    -0.251 N 
ATOM      2  C   UNL d   1      53.130  35.211  54.499  0.00  0.00     0.378 A 
ATOM      3  C   UNL d   1      53.311  33.884  54.569  0.00  0.00     0.092 A 
ATOM      4  O   UNL d   1      53.868  35.070  54.846  0.00  0.00    -0.258 OA
ATOM      5  C   UNL d   1      53.978  34.251  54.889  0.00  0.00     0.121 A 
ATOM      6  O   UNL d   1      52.800  35.950  54.351  0.00  0.00    -0.237 OA
ATOM      7  C   UNL d   1      53.259  33.066  54.536  0.00  0.00     0.020 A 
ATOM      8  C   UNL d   1      54.599  33.783  55.176  0.00  0.00     0.026 A 
ATOM      9  C   UNL d   1      53.875  32.605  54.821  0.00  0.00     0.002 A 
ATOM     10  C   UNL d   1      54.546  32.964  55.142  0.00  0.00     0.002 A 
ATOM     11  C   UNL d   1      53.824  31.784  54.789  0.00  0.00     0.000 C 
ENDROOT
BRANCH   1  12
ATOM     12  C   UNL d   1      52.055  34.321  53.981  0.00  0.00     0.087 C 
BRANCH  12  13
ATOM     13  C   UNL d   1      51.966  34.358  53.160  0.00  0.00     0.041 A 
ATOM     14  C   UNL d   1      51.225  34.410  52.830  0.00  0.00     0.102 A 
ATOM     15  C   UNL d   1      51.139  34.447  52.018  0.00  0.00     0.025 A 
ATOM     16  C   UNL d   1      51.802  34.431  51.531  0.00  0.00     0.002 A 
ATOM     17  C   UNL d   1      52.555  34.378  51.867  0.00  0.00     0.000 A 
ATOM     18  C   UNL d   1      52.634  34.341  52.687  0.00  0.00     0.004 A 
BRANCH  14  19
ATOM     19  O   UNL d   1      50.554  34.427  53.314  0.00  0.00    -0.305 OA
BRANCH  19  20
ATOM     20  C   UNL d   1      49.813  34.592  52.989  0.00  0.00     0.123 C 
ATOM     21  C   UNL d   1      49.250  35.009  53.429  0.00  0.00     0.029 C 
ENDBRANCH  19  20
ENDBRANCH  14  19
ENDBRANCH  12  13
ENDBRANCH   1  12
TORSDOF 4
ENDMDL
MODEL 5
REMARK VINA RESULT:      -7.4      1.021      3.658
REMARK  4 active torsions:
REMARK  status: ('A' for Active; 'I' for Inactive)
REMARK    1  A    between atoms: C_5  and  N_1 
REMARK    2  A    between atoms: C_7  and  C_5 
REMARK    3  A    between atoms: O_14  and  C_10 
REMARK    4  A    between atoms: C_17  and  O_14 
ROOT
ATOM      1  N   UNL d   1      52.830  32.387  54.098  0.00  0.00    -0.251 N 
ATOM      2  C   UNL d   1      52.180  32.749  53.733  0.00  0.00     0.378 A 
ATOM      3  C   UNL d   1      53.364  32.980  54.321  0.00  0.00     0.092 A 
ATOM      4  O   UNL d   1      52.314  33.566  53.730  0.00  0.00    -0.258 OA
ATOM      5  C   UNL d   1      53.044  33.706  54.093  0.00  0.00     0.121 A 
ATOM      6  O   UNL d   1      51.519  32.368  53.427  0.00  0.00    -0.237 OA
ATOM      7  C   UNL d   1      54.091  32.942  54.698  0.00  0.00     0.020 A 
ATOM      8  C   UNL d   1      53.468  34.401  54.250  0.00  0.00     0.026 A 
ATOM      9  C   UNL d   1      54.508  33.631  54.852  0.00  0.00     0.002 A 
ATOM     10  C   UNL d   1      54.196  34.362  54.627  0.00  0.00     0.002 A 
ATOM     11  C   UNL d   1      55.239  33.595  55.230  0.00  0.00     0.000 C 
ENDROOT
BRANCH   1  12
ATOM     12  C   UNL d   1      52.961  31.585  54.236  0.00  0.00     0.087 C 
BRANCH  12  13
ATOM     13  C   UNL d   1      53.063  31.064  53.601  0.00  0.00     0.041 A 
ATOM     14  C   UNL d   1      53.190  30.274  53.737  0.00  0.00     0.102 A 
ATOM     15  C   UNL d   1      53.291  29.760  53.109  0.00  0.00     0.025 A 
ATOM     16  C   UNL d   1      53.263  30.041  52.337  0.00  0.00     0.002 A 
ATOM     17  C   UNL d   1      53.134  30.845  52.199  0.00  0.00     0.000 A 
ATOM     18  C   UNL d   1      53.033  31.358  52.837  0.00  0.00     0.004 A 
BRANCH  14  19
ATOM     19  O   UNL d   1      53.219  29.983  54.512  0.00  0.00    -0.305 OA
BRANCH  19  20
ATOM     20  C   UNL d   1      53.296  29.172  54.648  0.00  0.00     0.123 C 
ATOM     21  C   UNL d   1      53.313  28.881  55.422  0.00  0.00     0.029 C 
ENDBRANCH  19  20
ENDBRANCH  14  19
ENDBRANCH  12  13
ENDBRANCH   1  12
TORSDOF 4
ENDMDL
MODEL 6
REMARK VINA RESULT:      -6.8      1.404      3.883
REMARK  4 active torsions:
REMARK  status: ('A' for Active; 'I' for Inactive)
REMARK    1  A    between atoms: C_5  and  N_1 
REMARK    2  A    between atoms: C_7  and  C_5 
REMARK    3  A    between atoms: O_14  and  C_10 
REMARK    4  A    between atoms: C_17  and  O_14 
ROOT
ATOM      1  N   UNL d   1      53.057  33.971  53.391  0.00  0.00    -0.251 N 
ATOM      2  C   UNL d   1      52.807  34.729  53.167  0.00  0.00     0.378 A 
ATOM      3  C   UNL d   1      53.497  34.040  54.088  0.00  0.00     0.092 A 
ATOM      4  O   UNL d   1      53.094  35.266  53.727  0.00  0.00    -0.258 OA
ATOM      5  C   UNL d   1      53.519  34.840  54.295  0.00  0.00     0.121 A 
ATOM      6  O   UNL d   1      52.355  34.918  52.505  0.00  0.00    -0.237 OA
ATOM      7  C   UNL d   1      53.873  33.478  54.551  0.00  0.00     0.020 A 
ATOM      8  C   UNL d   1      53.927  35.069  54.979  0.00  0.00     0.026 A 
ATOM      9  C   UNL d   1      54.277  33.708  55.227  0.00  0.00     0.002 A 
ATOM     10  C   UNL d   1      54.304  34.505  55.441  0.00  0.00     0.002 A 
ATOM     11  C   UNL d   1      54.655  33.144  55.694  0.00  0.00     0.000 C 
ENDROOT
BRANCH   1  12
ATOM     12  C   UNL d   1      52.914  33.252  53.014  0.00  0.00     0.087 C 
BRANCH  12  13
ATOM     13  C   UNL d   1      52.174  32.888  53.074  0.00  0.00     0.041 A 
ATOM     14  C   UNL d   1      52.105  32.084  52.989  0.00  0.00     0.102 A 
ATOM     15  C   UNL d   1      51.372  31.726  53.049  0.00  0.00     0.025 A 
ATOM     16  C   UNL d   1      50.702  32.179  53.196  0.00  0.00     0.002 A 
ATOM     17  C   UNL d   1      50.773  32.997  53.283  0.00  0.00     0.000 A 
ATOM     18  C   UNL d   1      51.514  33.352  53.221  0.00  0.00     0.004 A 
BRANCH  14  19
ATOM     19  O   UNL d   1      52.775  31.621  52.840  0.00  0.00    -0.305 OA
BRANCH  19  20
ATOM     20  C   UNL d   1      52.720  30.797  52.848  0.00  0.00     0.123 C 
ATOM     21  C   UNL d   1      53.405  30.336  52.895  0.00  0.00     0.029 C 
ENDBRANCH  19  20
ENDBRANCH  14  19
ENDBRANCH  12  13
ENDBRANCH   1  12
TORSDOF 4
ENDMDL
