MODEL 1
REMARK VINA RESULT:      55.9      0.000      0.000
REMARK  5 active torsions:
REMARK  status: ('A' for Active; 'I' for Inactive)
REMARK    1  A    between atoms: C_7  and  C_1 
REMARK    2  A    between atoms: N_6  and  C_3 
REMARK       I    between atoms: C_8  and  N_6 
REMARK    3  A    between atoms: C_9  and  C_8 
REMARK    4  A    between atoms: C_11  and  C_9 
REMARK    5  A    between atoms: C_16  and  C_11 
ROOT
ATOM      1  N   UNL d   1      60.156  48.104  50.228  0.00  0.00    -0.165 NA
ATOM      2  C   UNL d   1      60.938  48.290  50.359  0.00  0.00     0.282 C 
ATOM      3  O   UNL d   1      61.147  49.027  50.665  0.00  0.00    -0.265 OA
ENDROOT
BRANCH   1   4
ATOM      4  C   UNL d   1      59.565  48.649  50.400  0.00  0.00     0.297 A 
ATOM      5  O   UNL d   1      58.786  48.603  50.143  0.00  0.00    -0.252 OA
ATOM      6  C   UNL d   1      58.382  49.259  50.439  0.00  0.00     0.229 A 
ATOM      7  N   UNL d   1      58.914  49.702  50.874  0.00  0.00    -0.117 NA
ATOM      8  N   UNL d   1      59.644  49.326  50.850  0.00  0.00    -0.101 NA
BRANCH   6   9
ATOM      9  C   UNL d   1      57.584  49.429  50.313  0.00  0.00     0.143 A 
ATOM     10  O   UNL d   1      57.214  49.500  49.586  0.00  0.00    -0.301 OA
ATOM     11  C   UNL d   1      56.422  49.672  49.720  0.00  0.00     0.123 A 
ATOM     12  C   UNL d   1      56.301  49.708  50.536  0.00  0.00     0.029 A 
ATOM     13  C   UNL d   1      57.017  49.558  50.904  0.00  0.00     0.030 A 
ENDBRANCH   6   9
ENDBRANCH   1   4
BRANCH   2  14
ATOM     14  C   UNL d   1      61.530  47.742  50.186  0.00  0.00     0.063 C 
BRANCH  14  15
ATOM     15  C   UNL d   1      61.424  46.958  50.390  0.00  0.00     0.005 C 
BRANCH  15  16
ATOM     16  C   UNL d   1      61.668  46.361  49.870  0.00  0.00     0.000 A 
ATOM     17  C   UNL d   1      62.401  46.422  49.496  0.00  0.00     0.000 A 
ATOM     18  C   UNL d   1      62.644  45.828  48.978  0.00  0.00     0.000 A 
ATOM     19  C   UNL d   1      62.155  45.177  48.837  0.00  0.00     0.000 A 
ATOM     20  C   UNL d   1      61.429  45.131  49.217  0.00  0.00     0.000 A 
ATOM     21  C   UNL d   1      61.185  45.716  49.729  0.00  0.00     0.000 A 
ENDBRANCH  15  16
ENDBRANCH  14  15
ENDBRANCH   2  14
TORSDOF 5
ENDMDL
