MODEL 1
REMARK VINA RESULT:      -9.4      0.000      0.000
REMARK  3 active torsions:
REMARK  status: ('A' for Active; 'I' for Inactive)
REMARK    1  A    between atoms: C_5  and  C_1 
REMARK    2  A    between atoms: C_8  and  N_2 
REMARK    3  A    between atoms: C_10  and  C_8 
ROOT
ATOM      1  C   UNL d   1      51.542  33.837  52.854  0.00  0.00     0.166 A 
ATOM      2  N   UNL d   1      53.010  33.178  53.220  0.00  0.00    -0.302 N 
ATOM      3  C   UNL d   1      52.231  34.276  52.743  0.00  0.00     0.058 A 
ATOM      4  C   UNL d   1      51.586  33.069  53.148  0.00  0.00     0.058 A 
ATOM      5  C   UNL d   1      52.320  32.738  53.331  0.00  0.00     0.083 A 
ATOM      6  C   UNL d   1      52.966  33.947  52.925  0.00  0.00     0.083 A 
ATOM      7  O   UNL d   1      50.834  33.332  52.989  0.00  0.00    -0.290 OA
ENDROOT
BRANCH   1   8
ATOM      8  C   UNL d   1      50.808  34.167  52.672  0.00  0.00     0.036 A 
ATOM      9  C   UNL d   1      50.504  34.100  51.894  0.00  0.00     0.003 A 
ATOM     10  C   UNL d   1      49.772  34.432  51.724  0.00  0.00     0.000 A 
ATOM     11  C   UNL d   1      49.338  34.829  52.310  0.00  0.00     0.000 A 
ATOM     12  C   UNL d   1      49.634  34.894  53.069  0.00  0.00     0.000 A 
ATOM     13  C   UNL d   1      50.374  34.563  53.258  0.00  0.00     0.003 A 
ENDBRANCH   1   8
BRANCH   2  14
ATOM     14  C   UNL d   1      53.743  32.848  53.402  0.00  0.00     0.080 C 
BRANCH  14  15
ATOM     15  C   UNL d   1      54.119  33.044  54.111  0.00  0.00     0.018 A 
ATOM     16  C   UNL d   1      54.722  33.606  54.117  0.00  0.00     0.002 A 
ATOM     17  C   UNL d   1      55.096  33.801  54.826  0.00  0.00     0.000 A 
ATOM     18  C   UNL d   1      54.871  33.438  55.528  0.00  0.00     0.000 A 
ATOM     19  C   UNL d   1      54.267  32.876  55.523  0.00  0.00     0.000 A 
ATOM     20  C   UNL d   1      53.889  32.677  54.815  0.00  0.00     0.002 A 
ENDBRANCH  14  15
ENDBRANCH   2  14
TORSDOF 3
ENDMDL
MODEL 2
REMARK VINA RESULT:      -9.0      2.121      3.230
REMARK  3 active torsions:
REMARK  status: ('A' for Active; 'I' for Inactive)
REMARK    1  A    between atoms: C_5  and  C_1 
REMARK    2  A    between atoms: C_8  and  N_2 
REMARK    3  A    between atoms: C_10  and  C_8 
ROOT
ATOM      1  C   UNL d   1      53.162  33.206  53.616  0.00  0.00     0.166 A 
ATOM      2  N   UNL d   1      53.274  31.665  53.038  0.00  0.00    -0.302 N 
ATOM      3  C   UNL d   1      53.891  32.820  53.606  0.00  0.00     0.058 A 
ATOM      4  C   UNL d   1      52.489  32.822  53.338  0.00  0.00     0.058 A 
ATOM      5  C   UNL d   1      52.544  32.050  53.048  0.00  0.00     0.083 A 
ATOM      6  C   UNL d   1      53.947  32.049  53.317  0.00  0.00     0.083 A 
ATOM      7  O   UNL d   1      52.364  33.578  53.608  0.00  0.00    -0.290 OA
ENDROOT
BRANCH   1   8
ATOM      8  C   UNL d   1      53.107  33.976  53.905  0.00  0.00     0.036 A 
ATOM      9  C   UNL d   1      53.220  34.124  54.722  0.00  0.00     0.003 A 
ATOM     10  C   UNL d   1      53.163  34.895  54.998  0.00  0.00     0.000 A 
ATOM     11  C   UNL d   1      52.995  35.522  54.480  0.00  0.00     0.000 A 
ATOM     12  C   UNL d   1      52.884  35.379  53.683  0.00  0.00     0.000 A 
ATOM     13  C   UNL d   1      52.939  34.603  53.387  0.00  0.00     0.003 A 
ENDBRANCH   1   8
BRANCH   2  14
ATOM     14  C   UNL d   1      53.328  30.894  52.749  0.00  0.00     0.080 C 
BRANCH  14  15
ATOM     15  C   UNL d   1      53.208  30.254  53.256  0.00  0.00     0.018 A 
ATOM     16  C   UNL d   1      53.819  29.994  53.744  0.00  0.00     0.002 A 
ATOM     17  C   UNL d   1      53.699  29.355  54.251  0.00  0.00     0.000 A 
ATOM     18  C   UNL d   1      52.971  28.973  54.273  0.00  0.00     0.000 A 
ATOM     19  C   UNL d   1      52.359  29.233  53.785  0.00  0.00     0.000 A 
ATOM     20  C   UNL d   1      52.475  29.874  53.275  0.00  0.00     0.002 A 
ENDBRANCH  14  15
ENDBRANCH   2  14
TORSDOF 3
ENDMDL
MODEL 3
REMARK VINA RESULT:      -8.4      2.107      3.790
REMARK  3 active torsions:
REMARK  status: ('A' for Active; 'I' for Inactive)
REMARK    1  A    between atoms: C_5  and  C_1 
REMARK    2  A    between atoms: C_8  and  N_2 
REMARK    3  A    between atoms: C_10  and  C_8 
ROOT
ATOM      1  C   UNL d   1      53.271  31.354  53.451  0.00  0.00     0.166 A 
ATOM      2  N   UNL d   1      53.353  32.966  53.107  0.00  0.00    -0.302 N 
ATOM      3  C   UNL d   1      53.954  31.781  53.631  0.00  0.00     0.058 A 
ATOM      4  C   UNL d   1      52.629  31.733  53.100  0.00  0.00     0.058 A 
ATOM      5  C   UNL d   1      52.670  32.539  52.927  0.00  0.00     0.083 A 
ATOM      6  C   UNL d   1      53.995  32.587  53.458  0.00  0.00     0.083 A 
ATOM      7  O   UNL d   1      52.523  30.939  53.243  0.00  0.00    -0.290 OA
ENDROOT
BRANCH   1   8
ATOM      8  C   UNL d   1      53.231  30.549  53.624  0.00  0.00     0.036 A 
ATOM      9  C   UNL d   1      53.187  29.991  53.000  0.00  0.00     0.003 A 
ATOM     10  C   UNL d   1      53.147  29.192  53.184  0.00  0.00     0.000 A 
ATOM     11  C   UNL d   1      53.150  28.936  53.974  0.00  0.00     0.000 A 
ATOM     12  C   UNL d   1      53.193  29.478  54.582  0.00  0.00     0.000 A 
ATOM     13  C   UNL d   1      53.234  30.293  54.413  0.00  0.00     0.003 A 
ENDBRANCH   1   8
BRANCH   2  14
ATOM     14  C   UNL d   1      53.393  33.771  52.934  0.00  0.00     0.080 C 
BRANCH  14  15
ATOM     15  C   UNL d   1      53.116  34.324  53.481  0.00  0.00     0.018 A 
ATOM     16  C   UNL d   1      53.593  34.554  54.113  0.00  0.00     0.002 A 
ATOM     17  C   UNL d   1      53.315  35.107  54.659  0.00  0.00     0.000 A 
ATOM     18  C   UNL d   1      52.563  35.430  54.577  0.00  0.00     0.000 A 
ATOM     19  C   UNL d   1      52.086  35.200  53.945  0.00  0.00     0.000 A 
ATOM     20  C   UNL d   1      52.360  34.646  53.395  0.00  0.00     0.002 A 
ENDBRANCH  14  15
ENDBRANCH   2  14
TORSDOF 3
ENDMDL
