MODEL 1
REMARK VINA RESULT:      38.0      0.000      0.000
REMARK  2 active torsions:
REMARK  status: ('A' for Active; 'I' for Inactive)
REMARK    1  A    between atoms: C_6  and  C_2 
REMARK    2  A    between atoms: C_7  and  C_3 
ROOT
ATOM      1  N   UNL d   1     -54.812-101.530 -41.082  0.00  0.00    -0.238 NA
ATOM      2  C   UNL d   1     -54.806-101.853 -41.827  0.00  0.00     0.112 A 
ATOM      3  C   UNL d   1     -54.781-102.151 -40.535  0.00  0.00     0.088 A 
ATOM      4  S   UNL d   1     -54.771-102.674 -41.762  0.00  0.00    -0.066 SA
ATOM      5  C   UNL d   1     -54.756-102.858 -40.953  0.00  0.00     0.056 A 
ENDROOT
BRANCH   3   6
ATOM      6  C   UNL d   1     -54.773-102.154 -39.718  0.00  0.00     0.020 A 
ATOM      7  C   UNL d   1     -54.750-101.437 -39.289  0.00  0.00     0.028 A 
ATOM      8  C   UNL d   1     -54.742-101.453 -38.442  0.00  0.00     0.123 A 
ATOM      9  O   UNL d   1     -54.719-100.750 -38.023  0.00  0.00    -0.301 OA
ATOM     10  C   UNL d   1     -54.757-102.172 -38.046  0.00  0.00     0.123 A 
ATOM     11  C   UNL d   1     -54.711-100.754 -37.207  0.00  0.00     0.149 A 
ATOM     12  C   UNL d   1     -54.726-101.470 -36.799  0.00  0.00     0.149 A 
ATOM     13  O   UNL d   1     -54.749-102.181 -37.216  0.00  0.00    -0.301 OA
ATOM     14  C   UNL d   1     -54.780-102.877 -38.489  0.00  0.00     0.027 A 
ATOM     15  C   UNL d   1     -54.788-102.875 -39.314  0.00  0.00     0.004 A 
ENDBRANCH   3   6
BRANCH   2  16
ATOM     16  C   UNL d   1     -54.828-101.495 -42.580  0.00  0.00     0.043 A 
ATOM     17  C   UNL d   1     -54.822-101.957 -43.262  0.00  0.00     0.101 A 
ATOM     18  N   UNL d   1     -54.844-101.587 -44.013  0.00  0.00    -0.242 NA
ATOM     19  C   UNL d   1     -54.873-100.752 -44.070  0.00  0.00     0.099 A 
ATOM     20  C   UNL d   1     -54.878-100.301 -43.381  0.00  0.00     0.021 A 
ATOM     21  C   UNL d   1     -54.856-100.663 -42.640  0.00  0.00     0.005 A 
ENDBRANCH   2  16
TORSDOF 2
ENDMDL
