MODEL 1
REMARK VINA RESULT:      -8.4      0.000      0.000
REMARK  3 active torsions:
REMARK  status: ('A' for Active; 'I' for Inactive)
REMARK    1  A    between atoms: S_6  and  C_1 
REMARK    2  A    between atoms: C_8  and  S_6 
REMARK    3  A    between atoms: C_7  and  C_8 
ROOT
ATOM      1  C   UNL d   1      53.256  31.938  53.411  0.00  0.00     0.194 A 
ATOM      2  N   UNL d   1      53.651  31.418  53.921  0.00  0.00    -0.220 NA
ATOM      3  N   UNL d   1      52.768  31.483  52.902  0.00  0.00    -0.220 NA
ATOM      4  C   UNL d   1      53.411  30.646  53.732  0.00  0.00     0.101 A 
ATOM      5  C   UNL d   1      52.866  30.687  53.102  0.00  0.00     0.101 A 
ATOM      6  C   UNL d   1      53.620  29.909  54.053  0.00  0.00     0.021 A 
ATOM      7  C   UNL d   1      52.540  29.982  52.807  0.00  0.00     0.021 A 
ATOM      8  C   UNL d   1      52.751  29.254  53.129  0.00  0.00     0.002 A 
ATOM      9  C   UNL d   1      53.291  29.218  53.752  0.00  0.00     0.002 A 
ENDROOT
BRANCH   1  10
ATOM     10  S   UNL d   1      53.326  32.760  53.400  0.00  0.00    -0.048 SA
BRANCH  10  11
ATOM     11  C   UNL d   1      53.392  33.187  54.106  0.00  0.00     0.041 C 
BRANCH  11  12
ATOM     12  C   UNL d   1      53.227  33.995  54.111  0.00  0.00     0.034 A 
ATOM     13  C   UNL d   1      53.392  34.439  54.788  0.00  0.00     0.141 A 
ATOM     14  F   UNL d   1      53.718  34.068  55.447  0.00  0.00    -0.204 F 
ATOM     15  C   UNL d   1      53.230  35.247  54.801  0.00  0.00     0.030 A 
ATOM     16  C   UNL d   1      52.904  35.605  54.135  0.00  0.00     0.002 A 
ATOM     17  C   UNL d   1      52.739  35.166  53.458  0.00  0.00     0.000 A 
ATOM     18  C   UNL d   1      52.903  34.357  53.452  0.00  0.00     0.003 A 
ENDBRANCH  11  12
ENDBRANCH  10  11
ENDBRANCH   1  10
TORSDOF 3
ENDMDL
MODEL 2
REMARK VINA RESULT:      -8.2      1.377      4.466
REMARK  3 active torsions:
REMARK  status: ('A' for Active; 'I' for Inactive)
REMARK    1  A    between atoms: S_6  and  C_1 
REMARK    2  A    between atoms: C_8  and  S_6 
REMARK    3  A    between atoms: C_7  and  C_8 
ROOT
ATOM      1  C   UNL d   1      53.524  32.838  54.037  0.00  0.00     0.194 A 
ATOM      2  N   UNL d   1      53.265  33.347  53.438  0.00  0.00    -0.220 NA
ATOM      3  N   UNL d   1      53.594  33.283  54.745  0.00  0.00    -0.220 NA
ATOM      4  C   UNL d   1      53.173  34.103  53.769  0.00  0.00     0.101 A 
ATOM      5  C   UNL d   1      53.376  34.063  54.577  0.00  0.00     0.101 A 
ATOM      6  C   UNL d   1      52.930  34.825  53.438  0.00  0.00     0.021 A 
ATOM      7  C   UNL d   1      53.330  34.752  55.037  0.00  0.00     0.021 A 
ATOM      8  C   UNL d   1      53.089  35.465  54.703  0.00  0.00     0.002 A 
ATOM      9  C   UNL d   1      52.888  35.501  53.904  0.00  0.00     0.002 A 
ENDROOT
BRANCH   1  10
ATOM     10  S   UNL d   1      53.688  32.033  53.959  0.00  0.00    -0.048 SA
BRANCH  10  11
ATOM     11  C   UNL d   1      53.302  31.578  53.386  0.00  0.00     0.041 C 
BRANCH  11  12
ATOM     12  C   UNL d   1      53.234  30.762  53.489  0.00  0.00     0.034 A 
ATOM     13  C   UNL d   1      52.855  30.310  52.911  0.00  0.00     0.141 A 
ATOM     14  F   UNL d   1      52.550  30.680  52.241  0.00  0.00    -0.204 F 
ATOM     15  C   UNL d   1      52.783  29.494  53.007  0.00  0.00     0.030 A 
ATOM     16  C   UNL d   1      53.092  29.138  53.683  0.00  0.00     0.002 A 
ATOM     17  C   UNL d   1      53.471  29.586  54.261  0.00  0.00     0.000 A 
ATOM     18  C   UNL d   1      53.539  30.402  54.158  0.00  0.00     0.003 A 
ENDBRANCH  11  12
ENDBRANCH  10  11
ENDBRANCH   1  10
TORSDOF 3
ENDMDL
MODEL 3
REMARK VINA RESULT:      -8.2      2.535      3.603
REMARK  3 active torsions:
REMARK  status: ('A' for Active; 'I' for Inactive)
REMARK    1  A    between atoms: S_6  and  C_1 
REMARK    2  A    between atoms: C_8  and  S_6 
REMARK    3  A    between atoms: C_7  and  C_8 
ROOT
ATOM      1  C   UNL d   1      52.451  33.598  53.690  0.00  0.00     0.194 A 
ATOM      2  N   UNL d   1      53.053  33.127  53.371  0.00  0.00    -0.220 NA
ATOM      3  N   UNL d   1      52.747  33.966  54.384  0.00  0.00    -0.220 NA
ATOM      4  C   UNL d   1      53.719  33.200  53.863  0.00  0.00     0.101 A 
ATOM      5  C   UNL d   1      53.529  33.718  54.488  0.00  0.00     0.101 A 
ATOM      6  C   UNL d   1      54.475  32.860  53.821  0.00  0.00     0.021 A 
ATOM      7  C   UNL d   1      54.106  33.884  55.061  0.00  0.00     0.021 A 
ATOM      8  C   UNL d   1      54.855  33.544  55.014  0.00  0.00     0.002 A 
ATOM      9  C   UNL d   1      55.039  33.032  54.394  0.00  0.00     0.002 A 
ENDROOT
BRANCH   1  10
ATOM     10  S   UNL d   1      51.691  33.695  53.384  0.00  0.00    -0.048 SA
BRANCH  10  11
ATOM     11  C   UNL d   1      51.570  34.117  52.682  0.00  0.00     0.041 C 
BRANCH  11  12
ATOM     12  C   UNL d   1      50.802  34.283  52.432  0.00  0.00     0.034 A 
ATOM     13  C   UNL d   1      50.635  34.311  51.623  0.00  0.00     0.141 A 
ATOM     14  F   UNL d   1      51.238  34.175  51.080  0.00  0.00    -0.204 F 
ATOM     15  C   UNL d   1      49.869  34.476  51.366  0.00  0.00     0.030 A 
ATOM     16  C   UNL d   1      49.276  34.611  51.921  0.00  0.00     0.002 A 
ATOM     17  C   UNL d   1      49.438  34.583  52.729  0.00  0.00     0.000 A 
ATOM     18  C   UNL d   1      50.207  34.417  52.979  0.00  0.00     0.003 A 
ENDBRANCH  11  12
ENDBRANCH  10  11
ENDBRANCH   1  10
TORSDOF 3
ENDMDL
MODEL 4
REMARK VINA RESULT:      -8.0      2.380      3.808
REMARK  3 active torsions:
REMARK  status: ('A' for Active; 'I' for Inactive)
REMARK    1  A    between atoms: S_6  and  C_1 
REMARK    2  A    between atoms: C_8  and  S_6 
REMARK    3  A    between atoms: C_7  and  C_8 
ROOT
ATOM      1  C   UNL d   1      51.886  34.267  53.164  0.00  0.00     0.194 A 
ATOM      2  N   UNL d   1      51.792  34.108  52.356  0.00  0.00    -0.220 NA
ATOM      3  N   UNL d   1      51.139  34.492  53.474  0.00  0.00    -0.220 NA
ATOM      4  C   UNL d   1      50.994  34.234  52.164  0.00  0.00     0.101 A 
ATOM      5  C   UNL d   1      50.591  34.471  52.855  0.00  0.00     0.101 A 
ATOM      6  C   UNL d   1      50.581  34.162  51.447  0.00  0.00     0.021 A 
ATOM      7  C   UNL d   1      49.778  34.631  52.809  0.00  0.00     0.021 A 
ATOM      8  C   UNL d   1      49.374  34.559  52.096  0.00  0.00     0.002 A 
ATOM      9  C   UNL d   1      49.776  34.324  51.415  0.00  0.00     0.002 A 
ENDROOT
BRANCH   1  10
ATOM     10  S   UNL d   1      52.587  34.215  53.595  0.00  0.00    -0.048 SA
BRANCH  10  11
ATOM     11  C   UNL d   1      52.877  33.479  53.840  0.00  0.00     0.041 C 
BRANCH  11  12
ATOM     12  C   UNL d   1      53.525  33.444  54.350  0.00  0.00     0.034 A 
ATOM     13  C   UNL d   1      53.780  32.711  54.633  0.00  0.00     0.141 A 
ATOM     14  F   UNL d   1      53.384  32.027  54.403  0.00  0.00    -0.204 F 
ATOM     15  C   UNL d   1      54.427  32.669  55.143  0.00  0.00     0.030 A 
ATOM     16  C   UNL d   1      54.813  33.362  55.365  0.00  0.00     0.002 A 
ATOM     17  C   UNL d   1      54.561  34.095  55.084  0.00  0.00     0.000 A 
ATOM     18  C   UNL d   1      53.913  34.129  54.574  0.00  0.00     0.003 A 
ENDBRANCH  11  12
ENDBRANCH  10  11
ENDBRANCH   1  10
TORSDOF 3
ENDMDL
MODEL 5
REMARK VINA RESULT:      -7.8      2.387      3.756
REMARK  3 active torsions:
REMARK  status: ('A' for Active; 'I' for Inactive)
REMARK    1  A    between atoms: S_6  and  C_1 
REMARK    2  A    between atoms: C_8  and  S_6 
REMARK    3  A    between atoms: C_7  and  C_8 
ROOT
ATOM      1  C   UNL d   1      51.673  33.816  52.965  0.00  0.00     0.194 A 
ATOM      2  N   UNL d   1      51.017  34.106  53.378  0.00  0.00    -0.220 NA
ATOM      3  N   UNL d   1      51.493  33.830  52.146  0.00  0.00    -0.220 NA
ATOM      4  C   UNL d   1      50.432  34.299  52.821  0.00  0.00     0.101 A 
ATOM      5  C   UNL d   1      50.726  34.128  52.060  0.00  0.00     0.101 A 
ATOM      6  C   UNL d   1      49.667  34.609  52.911  0.00  0.00     0.021 A 
ATOM      7  C   UNL d   1      50.243  34.274  51.401  0.00  0.00     0.021 A 
ATOM      8  C   UNL d   1      49.485  34.581  51.495  0.00  0.00     0.002 A 
ATOM      9  C   UNL d   1      49.197  34.749  52.250  0.00  0.00     0.002 A 
ENDROOT
BRANCH   1  10
ATOM     10  S   UNL d   1      52.384  33.557  53.294  0.00  0.00    -0.048 SA
BRANCH  10  11
ATOM     11  C   UNL d   1      52.713  33.948  53.946  0.00  0.00     0.041 C 
BRANCH  11  12
ATOM     12  C   UNL d   1      53.451  33.713  54.233  0.00  0.00     0.034 A 
ATOM     13  C   UNL d   1      53.742  34.051  54.928  0.00  0.00     0.141 A 
ATOM     14  F   UNL d   1      53.293  34.616  55.324  0.00  0.00    -0.204 F 
ATOM     15  C   UNL d   1      54.478  33.821  55.221  0.00  0.00     0.030 A 
ATOM     16  C   UNL d   1      54.917  33.255  54.814  0.00  0.00     0.002 A 
ATOM     17  C   UNL d   1      54.629  32.916  54.120  0.00  0.00     0.000 A 
ATOM     18  C   UNL d   1      53.892  33.151  53.833  0.00  0.00     0.003 A 
ENDBRANCH  11  12
ENDBRANCH  10  11
ENDBRANCH   1  10
TORSDOF 3
ENDMDL
MODEL 6
REMARK VINA RESULT:      -7.3      1.690      2.078
REMARK  3 active torsions:
REMARK  status: ('A' for Active; 'I' for Inactive)
REMARK    1  A    between atoms: S_6  and  C_1 
REMARK    2  A    between atoms: C_8  and  S_6 
REMARK    3  A    between atoms: C_7  and  C_8 
ROOT
ATOM      1  C   UNL d   1      52.743  31.819  53.087  0.00  0.00     0.194 A 
ATOM      2  N   UNL d   1      52.523  31.116  52.711  0.00  0.00    -0.220 NA
ATOM      3  N   UNL d   1      53.217  31.623  53.752  0.00  0.00    -0.220 NA
ATOM      4  C   UNL d   1      52.856  30.485  53.137  0.00  0.00     0.101 A 
ATOM      5  C   UNL d   1      53.284  30.799  53.780  0.00  0.00     0.101 A 
ATOM      6  C   UNL d   1      52.824  29.663  53.021  0.00  0.00     0.021 A 
ATOM      7  C   UNL d   1      53.673  30.278  54.296  0.00  0.00     0.021 A 
ATOM      8  C   UNL d   1      53.638  29.464  54.177  0.00  0.00     0.002 A 
ATOM      9  C   UNL d   1      53.213  29.157  53.539  0.00  0.00     0.002 A 
ENDROOT
BRANCH   1  10
ATOM     10  S   UNL d   1      52.538  32.584  52.856  0.00  0.00    -0.048 SA
BRANCH  10  11
ATOM     11  C   UNL d   1      51.981  33.019  53.288  0.00  0.00     0.041 C 
BRANCH  11  12
ATOM     12  C   UNL d   1      51.490  33.556  52.898  0.00  0.00     0.034 A 
ATOM     13  C   UNL d   1      50.737  33.711  53.200  0.00  0.00     0.141 A 
ATOM     14  F   UNL d   1      50.488  33.328  53.884  0.00  0.00    -0.204 F 
ATOM     15  C   UNL d   1      50.241  34.246  52.815  0.00  0.00     0.030 A 
ATOM     16  C   UNL d   1      50.504  34.621  52.131  0.00  0.00     0.002 A 
ATOM     17  C   UNL d   1      51.254  34.469  51.827  0.00  0.00     0.000 A 
ATOM     18  C   UNL d   1      51.745  33.933  52.217  0.00  0.00     0.003 A 
ENDBRANCH  11  12
ENDBRANCH  10  11
ENDBRANCH   1  10
TORSDOF 3
ENDMDL
MODEL 7
REMARK VINA RESULT:      -7.1      2.126      4.373
REMARK  3 active torsions:
REMARK  status: ('A' for Active; 'I' for Inactive)
REMARK    1  A    between atoms: S_6  and  C_1 
REMARK    2  A    between atoms: C_8  and  S_6 
REMARK    3  A    between atoms: C_7  and  C_8 
ROOT
ATOM      1  C   UNL d   1      52.183  32.648  53.016  0.00  0.00     0.194 A 
ATOM      2  N   UNL d   1      51.622  32.944  53.548  0.00  0.00    -0.220 NA
ATOM      3  N   UNL d   1      52.107  33.071  52.295  0.00  0.00    -0.220 NA
ATOM      4  C   UNL d   1      51.200  33.546  53.162  0.00  0.00     0.101 A 
ATOM      5  C   UNL d   1      51.500  33.624  52.388  0.00  0.00     0.101 A 
ATOM      6  C   UNL d   1      50.579  34.034  53.418  0.00  0.00     0.021 A 
ATOM      7  C   UNL d   1      51.168  34.194  51.885  0.00  0.00     0.021 A 
ATOM      8  C   UNL d   1      50.552  34.676  52.144  0.00  0.00     0.002 A 
ATOM      9  C   UNL d   1      50.258  34.596  52.910  0.00  0.00     0.002 A 
ENDROOT
BRANCH   1  10
ATOM     10  S   UNL d   1      52.726  32.043  53.161  0.00  0.00    -0.048 SA
BRANCH  10  11
ATOM     11  C   UNL d   1      52.574  31.271  52.904  0.00  0.00     0.041 C 
BRANCH  11  12
ATOM     12  C   UNL d   1      52.960  30.637  53.265  0.00  0.00     0.034 A 
ATOM     13  C   UNL d   1      52.549  29.933  53.397  0.00  0.00     0.141 A 
ATOM     14  F   UNL d   1      51.760  29.875  53.167  0.00  0.00    -0.204 F 
ATOM     15  C   UNL d   1      52.928  29.296  53.758  0.00  0.00     0.030 A 
ATOM     16  C   UNL d   1      53.717  29.369  53.982  0.00  0.00     0.002 A 
ATOM     17  C   UNL d   1      54.130  30.069  53.852  0.00  0.00     0.000 A 
ATOM     18  C   UNL d   1      53.744  30.703  53.491  0.00  0.00     0.003 A 
ENDBRANCH  11  12
ENDBRANCH  10  11
ENDBRANCH   1  10
TORSDOF 3
ENDMDL
MODEL 8
REMARK VINA RESULT:      -5.9     10.544     10.779
REMARK  3 active torsions:
REMARK  status: ('A' for Active; 'I' for Inactive)
REMARK    1  A    between atoms: S_6  and  C_1 
REMARK    2  A    between atoms: C_8  and  S_6 
REMARK    3  A    between atoms: C_7  and  C_8 
ROOT
ATOM      1  C   UNL d   1      44.897  30.215  59.020  0.00  0.00     0.194 A 
ATOM      2  N   UNL d   1      45.111  29.444  58.809  0.00  0.00    -0.220 NA
ATOM      3  N   UNL d   1      44.673  30.624  58.322  0.00  0.00    -0.220 NA
ATOM      4  C   UNL d   1      45.021  29.372  57.986  0.00  0.00     0.101 A 
ATOM      5  C   UNL d   1      44.751  30.102  57.686  0.00  0.00     0.101 A 
ATOM      6  C   UNL d   1      45.152  28.734  57.471  0.00  0.00     0.021 A 
ATOM      7  C   UNL d   1      44.617  30.175  56.870  0.00  0.00     0.021 A 
ATOM      8  C   UNL d   1      44.748  29.539  56.364  0.00  0.00     0.002 A 
ATOM      9  C   UNL d   1      45.015  28.819  56.664  0.00  0.00     0.002 A 
ENDROOT
BRANCH   1  10
ATOM     10  S   UNL d   1      44.901  30.534  59.781  0.00  0.00    -0.048 SA
BRANCH  10  11
ATOM     11  C   UNL d   1      44.667  30.076  60.430  0.00  0.00     0.041 C 
BRANCH  11  12
ATOM     12  C   UNL d   1      44.561  30.435  61.166  0.00  0.00     0.034 A 
ATOM     13  C   UNL d   1      44.573  29.971  61.849  0.00  0.00     0.141 A 
ATOM     14  F   UNL d   1      44.691  29.158  61.786  0.00  0.00    -0.204 F 
ATOM     15  C   UNL d   1      44.468  30.322  62.588  0.00  0.00     0.030 A 
ATOM     16  C   UNL d   1      44.351  31.136  62.636  0.00  0.00     0.002 A 
ATOM     17  C   UNL d   1      44.338  31.602  61.956  0.00  0.00     0.000 A 
ATOM     18  C   UNL d   1      44.444  31.243  61.221  0.00  0.00     0.003 A 
ENDBRANCH  11  12
ENDBRANCH  10  11
ENDBRANCH   1  10
TORSDOF 3
ENDMDL
MODEL 9
REMARK VINA RESULT:      -5.8     10.618     11.223
REMARK  3 active torsions:
REMARK  status: ('A' for Active; 'I' for Inactive)
REMARK    1  A    between atoms: S_6  and  C_1 
REMARK    2  A    between atoms: C_8  and  S_6 
REMARK    3  A    between atoms: C_7  and  C_8 
ROOT
ATOM      1  C   UNL d   1      44.561  30.340  60.006  0.00  0.00     0.194 A 
ATOM      2  N   UNL d   1      44.492  29.789  60.621  0.00  0.00    -0.220 NA
ATOM      3  N   UNL d   1      44.563  31.109  60.344  0.00  0.00    -0.220 NA
ATOM      4  C   UNL d   1      44.451  30.210  61.336  0.00  0.00     0.101 A 
ATOM      5  C   UNL d   1      44.495  31.025  61.164  0.00  0.00     0.101 A 
ATOM      6  C   UNL d   1      44.380  29.955  62.122  0.00  0.00     0.021 A 
ATOM      7  C   UNL d   1      44.466  31.569  61.791  0.00  0.00     0.021 A 
ATOM      8  C   UNL d   1      44.395  31.310  62.569  0.00  0.00     0.002 A 
ATOM      9  C   UNL d   1      44.352  30.503  62.735  0.00  0.00     0.002 A 
ENDROOT
BRANCH   1  10
ATOM     10  S   UNL d   1      44.618  30.171  59.201  0.00  0.00    -0.048 SA
BRANCH  10  11
ATOM     11  C   UNL d   1      45.013  29.492  58.940  0.00  0.00     0.041 C 
BRANCH  11  12
ATOM     12  C   UNL d   1      45.002  29.295  58.139  0.00  0.00     0.034 A 
ATOM     13  C   UNL d   1      45.255  28.545  57.901  0.00  0.00     0.141 A 
ATOM     14  F   UNL d   1      45.514  28.006  58.467  0.00  0.00    -0.204 F 
ATOM     15  C   UNL d   1      45.246  28.342  57.102  0.00  0.00     0.030 A 
ATOM     16  C   UNL d   1      44.984  28.891  56.547  0.00  0.00     0.002 A 
ATOM     17  C   UNL d   1      44.731  29.640  56.781  0.00  0.00     0.000 A 
ATOM     18  C   UNL d   1      44.743  29.837  57.582  0.00  0.00     0.003 A 
ENDBRANCH  11  12
ENDBRANCH  10  11
ENDBRANCH   1  10
TORSDOF 3
ENDMDL
