MODEL 1
REMARK VINA RESULT:      -7.3      0.000      0.000
REMARK  6 active torsions:
REMARK  status: ('A' for Active; 'I' for Inactive)
REMARK    1  A    between atoms: C_7  and  N_1 
REMARK    2  A    between atoms: C_6  and  C_3 
REMARK       I    between atoms: N_9  and  C_6 
REMARK    3  A    between atoms: C_19  and  N_9 
REMARK    4  A    between atoms: C_10  and  C_19 
REMARK    5  A    between atoms: O_23  and  C_20 
REMARK    6  A    between atoms: C_24  and  O_23 
ROOT
ATOM      1  N   UNL d   1      52.206  33.455  53.217  0.00  0.00    -0.276 N 
ATOM      2  C   UNL d   1      52.452  32.695  53.065  0.00  0.00     0.181 A 
ATOM      3  C   UNL d   1      53.154  32.585  53.481  0.00  0.00     0.126 A 
ATOM      4  C   UNL d   1      52.766  33.829  53.738  0.00  0.00     0.152 A 
ATOM      5  S   UNL d   1      53.356  33.271  53.896  0.00  0.00    -0.051 SA
ATOM      6  S   UNL d   1      52.731  34.608  54.037  0.00  0.00    -0.052 SA
ATOM      7  N   UNL d   1      52.071  32.150  52.590  0.00  0.00    -0.128 N 
ENDROOT
BRANCH   1   8
ATOM      8  C   UNL d   1      51.518  33.788  52.902  0.00  0.00     0.067 A 
ATOM      9  C   UNL d   1      51.536  34.123  52.164  0.00  0.00     0.020 A 
ATOM     10  C   UNL d   1      50.860  34.456  51.841  0.00  0.00     0.026 A 
ATOM     11  C   UNL d   1      50.148  34.458  52.261  0.00  0.00     0.100 A 
ATOM     12  C   UNL d   1      50.123  34.123  53.004  0.00  0.00     0.026 A 
ATOM     13  C   UNL d   1      50.814  33.785  53.329  0.00  0.00     0.020 A 
BRANCH  11  14
ATOM     14  O   UNL d   1      49.444  34.787  51.966  0.00  0.00    -0.305 OA
BRANCH  14  15
ATOM     15  C   UNL d   1      49.105  34.471  51.271  0.00  0.00     0.123 C 
ATOM     16  C   UNL d   1      48.396  34.802  50.980  0.00  0.00     0.029 C 
ENDBRANCH  14  15
ENDBRANCH  11  14
ENDBRANCH   1   8
BRANCH   3  17
ATOM     17  C   UNL d   1      53.637  31.879  53.507  0.00  0.00     0.288 C 
ATOM     18  N   UNL d   1      53.327  31.177  53.781  0.00  0.00    -0.204 NA
ATOM     19  O   UNL d   1      54.439  31.926  53.243  0.00  0.00    -0.265 OA
BRANCH  18  20
ATOM     20  C   UNL d   1      53.831  30.507  53.791  0.00  0.00     0.127 C 
BRANCH  20  21
ATOM     21  C   UNL d   1      53.548  29.784  54.143  0.00  0.00     0.119 A 
ATOM     22  O   UNL d   1      53.098  29.258  53.698  0.00  0.00    -0.304 OA
ATOM     23  C   UNL d   1      52.915  28.629  54.182  0.00  0.00     0.123 A 
ATOM     24  C   UNL d   1      53.232  28.744  54.903  0.00  0.00     0.029 A 
ATOM     25  C   UNL d   1      53.634  29.456  54.911  0.00  0.00     0.028 A 
ENDBRANCH  20  21
ENDBRANCH  18  20
ENDBRANCH   3  17
TORSDOF 6
ENDMDL
MODEL 2
REMARK VINA RESULT:      -6.8      1.011      5.279
REMARK  6 active torsions:
REMARK  status: ('A' for Active; 'I' for Inactive)
REMARK    1  A    between atoms: C_7  and  N_1 
REMARK    2  A    between atoms: C_6  and  C_3 
REMARK       I    between atoms: N_9  and  C_6 
REMARK    3  A    between atoms: C_19  and  N_9 
REMARK    4  A    between atoms: C_10  and  C_19 
REMARK    5  A    between atoms: O_23  and  C_20 
REMARK    6  A    between atoms: C_24  and  O_23 
ROOT
ATOM      1  N   UNL d   1      52.384  33.091  53.229  0.00  0.00    -0.276 N 
ATOM      2  C   UNL d   1      51.589  33.251  53.285  0.00  0.00     0.181 A 
ATOM      3  C   UNL d   1      51.494  34.051  53.117  0.00  0.00     0.126 A 
ATOM      4  C   UNL d   1      52.796  33.807  53.023  0.00  0.00     0.152 A 
ATOM      5  S   UNL d   1      52.225  34.402  52.955  0.00  0.00    -0.051 SA
ATOM      6  S   UNL d   1      53.618  33.898  52.908  0.00  0.00    -0.052 SA
ATOM      7  N   UNL d   1      51.001  32.714  53.472  0.00  0.00    -0.128 N 
ENDROOT
BRANCH   1   8
ATOM      8  C   UNL d   1      52.715  32.345  53.358  0.00  0.00     0.067 A 
ATOM      9  C   UNL d   1      53.205  32.227  53.993  0.00  0.00     0.020 A 
ATOM     10  C   UNL d   1      53.539  31.492  54.132  0.00  0.00     0.026 A 
ATOM     11  C   UNL d   1      53.383  30.855  53.627  0.00  0.00     0.100 A 
ATOM     12  C   UNL d   1      52.891  30.967  52.986  0.00  0.00     0.026 A 
ATOM     13  C   UNL d   1      52.553  31.718  52.849  0.00  0.00     0.020 A 
BRANCH  11  14
ATOM     14  O   UNL d   1      53.704  30.097  53.737  0.00  0.00    -0.305 OA
BRANCH  14  15
ATOM     15  C   UNL d   1      53.255  29.516  54.134  0.00  0.00     0.123 C 
ATOM     16  C   UNL d   1      53.639  28.830  54.417  0.00  0.00     0.029 C 
ENDBRANCH  14  15
ENDBRANCH  11  14
ENDBRANCH   1   8
BRANCH   3  17
ATOM     17  C   UNL d   1      50.763  34.495  53.102  0.00  0.00     0.288 C 
ATOM     18  N   UNL d   1      50.248  34.422  52.474  0.00  0.00    -0.204 NA
ATOM     19  O   UNL d   1      50.587  35.010  53.749  0.00  0.00    -0.265 OA
BRANCH  18  20
ATOM     20  C   UNL d   1      49.542  34.873  52.495  0.00  0.00     0.127 C 
BRANCH  20  21
ATOM     21  C   UNL d   1      49.018  34.850  51.824  0.00  0.00     0.119 A 
ATOM     22  O   UNL d   1      48.300  35.251  51.849  0.00  0.00    -0.304 OA
ATOM     23  C   UNL d   1      47.929  35.125  51.135  0.00  0.00     0.123 A 
ATOM     24  C   UNL d   1      48.386  34.666  50.672  0.00  0.00     0.029 A 
ATOM     25  C   UNL d   1      49.073  34.477  51.074  0.00  0.00     0.028 A 
ENDBRANCH  20  21
ENDBRANCH  18  20
ENDBRANCH   3  17
TORSDOF 6
ENDMDL
MODEL 3
REMARK VINA RESULT:      -5.9      2.299      5.582
REMARK  6 active torsions:
REMARK  status: ('A' for Active; 'I' for Inactive)
REMARK    1  A    between atoms: C_7  and  N_1 
REMARK    2  A    between atoms: C_6  and  C_3 
REMARK       I    between atoms: N_9  and  C_6 
REMARK    3  A    between atoms: C_19  and  N_9 
REMARK    4  A    between atoms: C_10  and  C_19 
REMARK    5  A    between atoms: O_23  and  C_20 
REMARK    6  A    between atoms: C_24  and  O_23 
ROOT
ATOM      1  N   UNL d   1      51.861  33.398  53.314  0.00  0.00    -0.276 N 
ATOM      2  C   UNL d   1      51.533  34.071  52.997  0.00  0.00     0.181 A 
ATOM      3  C   UNL d   1      50.770  33.873  52.758  0.00  0.00     0.126 A 
ATOM      4  C   UNL d   1      51.293  32.766  53.273  0.00  0.00     0.152 A 
ATOM      5  S   UNL d   1      50.612  33.078  52.921  0.00  0.00    -0.051 SA
ATOM      6  S   UNL d   1      51.396  31.980  53.534  0.00  0.00    -0.052 SA
ATOM      7  N   UNL d   1      51.895  34.800  52.932  0.00  0.00    -0.128 N 
ENDROOT
BRANCH   1   8
ATOM      8  C   UNL d   1      52.628  33.360  53.621  0.00  0.00     0.067 A 
ATOM      9  C   UNL d   1      52.769  33.613  54.379  0.00  0.00     0.020 A 
ATOM     10  C   UNL d   1      53.525  33.581  54.695  0.00  0.00     0.026 A 
ATOM     11  C   UNL d   1      54.158  33.290  54.248  0.00  0.00     0.100 A 
ATOM     12  C   UNL d   1      54.022  33.034  53.486  0.00  0.00     0.026 A 
ATOM     13  C   UNL d   1      53.250  33.069  53.168  0.00  0.00     0.020 A 
BRANCH  11  14
ATOM     14  O   UNL d   1      54.936  33.243  54.536  0.00  0.00    -0.305 OA
BRANCH  14  15
ATOM     15  C   UNL d   1      55.162  33.719  55.184  0.00  0.00     0.123 C 
ATOM     16  C   UNL d   1      55.939  34.024  55.210  0.00  0.00     0.029 C 
ENDBRANCH  14  15
ENDBRANCH  11  14
ENDBRANCH   1   8
BRANCH   3  17
ATOM     17  C   UNL d   1      50.192  34.385  52.390  0.00  0.00     0.288 C 
ATOM     18  N   UNL d   1      49.627  34.762  52.841  0.00  0.00    -0.204 NA
ATOM     19  O   UNL d   1      50.220  34.492  51.552  0.00  0.00    -0.265 OA
BRANCH  18  20
ATOM     20  C   UNL d   1      49.078  35.255  52.445  0.00  0.00     0.127 C 
BRANCH  20  21
ATOM     21  C   UNL d   1      48.477  35.653  52.900  0.00  0.00     0.119 A 
ATOM     22  O   UNL d   1      47.722  35.749  52.588  0.00  0.00    -0.304 OA
ATOM     23  C   UNL d   1      47.280  36.144  53.147  0.00  0.00     0.123 A 
ATOM     24  C   UNL d   1      47.728  36.295  53.787  0.00  0.00     0.029 A 
ATOM     25  C   UNL d   1      48.482  36.001  53.664  0.00  0.00     0.028 A 
ENDBRANCH  20  21
ENDBRANCH  18  20
ENDBRANCH   3  17
TORSDOF 6
ENDMDL
MODEL 4
REMARK VINA RESULT:      -5.5      2.955      6.340
REMARK  6 active torsions:
REMARK  status: ('A' for Active; 'I' for Inactive)
REMARK    1  A    between atoms: C_7  and  N_1 
REMARK    2  A    between atoms: C_6  and  C_3 
REMARK       I    between atoms: N_9  and  C_6 
REMARK    3  A    between atoms: C_19  and  N_9 
REMARK    4  A    between atoms: C_10  and  C_19 
REMARK    5  A    between atoms: O_23  and  C_20 
REMARK    6  A    between atoms: C_24  and  O_23 
ROOT
ATOM      1  N   UNL d   1      49.685  34.635  52.426  0.00  0.00    -0.276 N 
ATOM      2  C   UNL d   1      49.270  35.114  52.935  0.00  0.00     0.181 A 
ATOM      3  C   UNL d   1      48.600  35.367  52.530  0.00  0.00     0.126 A 
ATOM      4  C   UNL d   1      49.266  34.588  51.687  0.00  0.00     0.152 A 
ATOM      5  S   UNL d   1      48.586  35.053  51.767  0.00  0.00    -0.051 SA
ATOM      6  S   UNL d   1      49.492  34.157  51.008  0.00  0.00    -0.052 SA
ATOM      7  N   UNL d   1      49.484  35.303  53.701  0.00  0.00    -0.128 N 
ENDROOT
BRANCH   1   8
ATOM      8  C   UNL d   1      50.399  34.265  52.620  0.00  0.00     0.067 A 
ATOM      9  C   UNL d   1      50.393  33.607  53.095  0.00  0.00     0.020 A 
ATOM     10  C   UNL d   1      51.093  33.231  53.294  0.00  0.00     0.026 A 
ATOM     11  C   UNL d   1      51.819  33.514  53.015  0.00  0.00     0.100 A 
ATOM     12  C   UNL d   1      51.831  34.175  52.537  0.00  0.00     0.026 A 
ATOM     13  C   UNL d   1      51.115  34.555  52.337  0.00  0.00     0.020 A 
BRANCH  11  14
ATOM     14  O   UNL d   1      52.548  33.159  53.197  0.00  0.00    -0.305 OA
BRANCH  14  15
ATOM     15  C   UNL d   1      52.702  32.382  52.932  0.00  0.00     0.123 C 
ATOM     16  C   UNL d   1      53.393  31.994  53.193  0.00  0.00     0.029 C 
ENDBRANCH  14  15
ENDBRANCH  11  14
ENDBRANCH   1   8
BRANCH   3  17
ATOM     17  C   UNL d   1      47.982  35.883  52.821  0.00  0.00     0.288 C 
ATOM     18  N   UNL d   1      47.250  35.581  53.016  0.00  0.00    -0.204 NA
ATOM     19  O   UNL d   1      48.145  36.708  52.901  0.00  0.00    -0.265 OA
BRANCH  18  20
ATOM     20  C   UNL d   1      46.670  36.117  53.297  0.00  0.00     0.127 C 
BRANCH  20  21
ATOM     21  C   UNL d   1      45.925  35.810  53.576  0.00  0.00     0.119 A 
ATOM     22  O   UNL d   1      45.792  35.722  54.383  0.00  0.00    -0.304 OA
ATOM     23  C   UNL d   1      45.040  35.421  54.471  0.00  0.00     0.123 A 
ATOM     24  C   UNL d   1      44.706  35.321  53.756  0.00  0.00     0.029 A 
ATOM     25  C   UNL d   1      45.233  35.555  53.176  0.00  0.00     0.028 A 
ENDBRANCH  20  21
ENDBRANCH  18  20
ENDBRANCH   3  17
TORSDOF 6
ENDMDL
