MODEL 1
REMARK VINA RESULT:      48.4      0.000      0.000
REMARK  6 active torsions:
REMARK  status: ('A' for Active; 'I' for Inactive)
REMARK       I    between atoms: N_2  and  C_1 
REMARK       I    between atoms: N_4  and  C_1 
REMARK    1  A    between atoms: C_8  and  N_2 
REMARK    2  A    between atoms: C_3  and  C_5 
REMARK    3  A    between atoms: O_11  and  C_3 
REMARK    4  A    between atoms: C_14  and  N_4 
REMARK    5  A    between atoms: C_15  and  N_4 
REMARK    6  A    between atoms: C_16  and  O_11 
ROOT
ATOM      1  C   UNL d   1     -48.205  29.100  35.284  0.00  0.00     0.064 A 
ATOM      2  C   UNL d   1     -48.968  27.751  34.730  0.00  0.00     0.086 A 
ATOM      3  C   UNL d   1     -48.791  28.735  35.743  0.00  0.00     0.007 A 
ATOM      4  C   UNL d   1     -48.003  28.797  34.561  0.00  0.00     0.007 A 
ATOM      5  C   UNL d   1     -49.170  28.054  35.453  0.00  0.00     0.019 A 
ATOM      6  C   UNL d   1     -48.381  28.119  34.273  0.00  0.00     0.019 A 
ENDROOT
BRANCH   2   7
ATOM      7  N   UNL d   1     -49.343  27.076  34.442  0.00  0.00    -0.192 NA
ATOM      8  C   UNL d   1     -50.053  27.153  34.017  0.00  0.00     0.354 C 
ATOM      9  N   UNL d   1     -50.423  26.486  33.733  0.00  0.00    -0.256 N 
ATOM     10  O   UNL d   1     -50.374  27.902  33.889  0.00  0.00    -0.244 OA
BRANCH   9  11
ATOM     11  C   UNL d   1     -50.095  25.741  33.866  0.00  0.00     0.085 C 
ATOM     12  C   UNL d   1     -50.192  25.138  33.306  0.00  0.00     0.021 C 
ENDBRANCH   9  11
BRANCH   9  13
ATOM     13  C   UNL d   1     -51.137  26.567  33.307  0.00  0.00     0.085 C 
ATOM     14  C   UNL d   1     -51.676  25.946  33.306  0.00  0.00     0.021 C 
ENDBRANCH   9  13
ENDBRANCH   2   7
BRANCH   1  15
ATOM     15  C   UNL d   1     -47.829  29.771  35.564  0.00  0.00     0.300 C 
ATOM     16  O   UNL d   1     -47.421  29.755  36.278  0.00  0.00    -0.259 OA
BRANCH  15  17
ATOM     17  O   UNL d   1     -47.860  30.468  35.125  0.00  0.00    -0.271 OA
BRANCH  17  18
ATOM     18  C   UNL d   1     -47.474  31.136  35.390  0.00  0.00     0.126 C 
ATOM     19  C   UNL d   1     -47.481  31.826  34.943  0.00  0.00     0.029 C 
ENDBRANCH  17  18
ENDBRANCH  15  17
ENDBRANCH   1  15
TORSDOF 6
ENDMDL
