MODEL 1
REMARK VINA RESULT:      67.3      0.000      0.000
REMARK  3 active torsions:
REMARK  status: ('A' for Active; 'I' for Inactive)
REMARK       I    between atoms: C_3  and  N_1 
REMARK    1  A    between atoms: C_5  and  C_3 
REMARK    2  A    between atoms: C_9  and  C_4 
REMARK    3  A    between atoms: C_14  and  C_6 
ROOT
ATOM      1  N   UNL d   1     -52.103  25.118  33.673  0.00  0.00    -0.193 N 
ATOM      2  N   UNL d   1     -51.269  25.096  33.653  0.00  0.00    -0.162 NA
ATOM      3  C   UNL d   1     -52.535  25.806  33.792  0.00  0.00     0.303 C 
ATOM      4  C   UNL d   1     -51.044  24.308  33.522  0.00  0.00     0.109 A 
ATOM      5  C   UNL d   1     -52.368  24.340  33.554  0.00  0.00     0.088 A 
ATOM      6  C   UNL d   1     -51.724  23.841  33.461  0.00  0.00     0.041 A 
ATOM      7  O   UNL d   1     -53.379  25.792  33.807  0.00  0.00    -0.263 OA
ENDROOT
BRANCH   3   8
ATOM      8  C   UNL d   1     -52.178  26.512  33.898  0.00  0.00     0.158 A 
ATOM      9  O   UNL d   1     -52.171  27.142  33.350  0.00  0.00    -0.296 OA
ATOM     10  C   UNL d   1     -51.743  27.762  33.680  0.00  0.00     0.134 A 
ATOM     11 BR   UNL d   1     -51.598  28.513  33.309  0.00  0.00    -0.022 Br
ATOM     12  C   UNL d   1     -51.491  27.525  34.410  0.00  0.00     0.034 A 
ATOM     13  C   UNL d   1     -51.749  26.769  34.553  0.00  0.00     0.032 A 
ENDBRANCH   3   8
BRANCH   5  14
ATOM     14  C   UNL d   1     -52.751  24.236  33.545  0.00  0.00     0.018 A 
ATOM     15  C   UNL d   1     -53.359  24.740  33.307  0.00  0.00     0.002 A 
ATOM     16  C   UNL d   1     -54.122  24.455  33.315  0.00  0.00     0.000 A 
ATOM     17  C   UNL d   1     -54.313  23.700  33.545  0.00  0.00     0.000 A 
ATOM     18  C   UNL d   1     -53.704  23.197  33.783  0.00  0.00     0.000 A 
ATOM     19  C   UNL d   1     -55.074  23.417  33.553  0.00  0.00     0.000 C 
ATOM     20  C   UNL d   1     -52.924  23.463  33.783  0.00  0.00     0.002 A 
ENDBRANCH   5  14
BRANCH   4  21
ATOM     21  C   UNL d   1     -50.272  24.021  33.460  0.00  0.00     0.049 A 
ATOM     22  S   UNL d   1     -50.099  23.239  33.337  0.00  0.00    -0.085 SA
ATOM     23  C   UNL d   1     -49.257  23.192  33.311  0.00  0.00     0.035 A 
ATOM     24  C   UNL d   1     -48.938  23.945  33.418  0.00  0.00     0.007 A 
ATOM     25  C   UNL d   1     -49.586  24.446  33.509  0.00  0.00     0.009 A 
ENDBRANCH   4  21
TORSDOF 3
ENDMDL
