MODEL 1
REMARK VINA RESULT:      72.2      0.000      0.000
REMARK  2 active torsions:
REMARK  status: ('A' for Active; 'I' for Inactive)
REMARK    1  A    between atoms: C_6  and  C_1 
REMARK       I    between atoms: N_11  and  C_6 
REMARK    2  A    between atoms: C_13  and  N_11 
ROOT
ATOM      1  C   UNL d   1     -55.430-100.006 -44.209  0.00  0.00     0.108 A 
ATOM      2  C   UNL d   1     -55.202-100.478 -42.998  0.00  0.00     0.044 A 
ATOM      3  C   UNL d   1     -55.226-101.122 -43.512  0.00  0.00     0.112 A 
ATOM      4  S   UNL d   1     -55.368-100.824 -44.266  0.00  0.00    -0.061 SA
ATOM      5  C   UNL d   1     -55.325 -99.810 -43.418  0.00  0.00     0.116 A 
ATOM      6  N   UNL d   1     -55.115-101.897 -43.229  0.00  0.00    -0.239 NA
ATOM      7  C   UNL d   1     -54.958-101.356 -41.909  0.00  0.00     0.057 A 
ATOM      8  C   UNL d   1     -55.067-100.595 -42.190  0.00  0.00     0.008 A 
ATOM      9  C   UNL d   1     -54.982-102.000 -42.423  0.00  0.00     0.085 A 
ATOM     10  C   UNL d   1     -54.823-101.477 -41.105  0.00  0.00     0.197 A 
ATOM     11  N   UNL d   1     -55.323 -98.968 -42.940  0.00  0.00    -0.147 N 
ATOM     12  O   UNL d   1     -54.797-100.680 -40.488  0.00  0.00    -0.286 OA
ATOM     13  C   UNL d   1     -54.871-102.763 -42.131  0.00  0.00     0.019 A 
ATOM     14  C   UNL d   1     -54.714-102.234 -40.820  0.00  0.00     0.042 A 
ATOM     15  C   UNL d   1     -54.738-102.878 -41.334  0.00  0.00     0.005 A 
ENDROOT
BRANCH   1  16
ATOM     16  C   UNL d   1     -55.596 -99.352 -44.920  0.00  0.00     0.287 C 
ATOM     17  N   UNL d   1     -56.280 -98.792 -45.331  0.00  0.00    -0.205 NA
ATOM     18  O   UNL d   1     -54.878 -99.270 -45.284  0.00  0.00    -0.265 OA
BRANCH  17  19
ATOM     19  C   UNL d   1     -57.096 -98.790 -45.031  0.00  0.00     0.112 A 
ATOM     20  C   UNL d   1     -57.239 -98.776 -44.176  0.00  0.00     0.158 A 
ATOM     21  F   UNL d   1     -56.646 -98.756 -43.234  0.00  0.00    -0.203 F 
ATOM     22  C   UNL d   1     -58.075 -98.774 -43.871  0.00  0.00     0.031 A 
ATOM     23  C   UNL d   1     -58.746 -98.788 -44.435  0.00  0.00     0.002 A 
ATOM     24  C   UNL d   1     -58.590 -98.802 -45.297  0.00  0.00     0.002 A 
ATOM     25  C   UNL d   1     -57.769 -98.804 -45.610  0.00  0.00     0.021 A 
ENDBRANCH  17  19
ENDBRANCH   1  16
TORSDOF 2
ENDMDL
