MODEL 1
REMARK VINA RESULT:      -8.8      0.000      0.000
REMARK  4 active torsions:
REMARK  status: ('A' for Active; 'I' for Inactive)
REMARK    1  A    between atoms: N_7  and  C_1 
REMARK    2  A    between atoms: S_3  and  N_7 
REMARK    3  A    between atoms: N_8  and  S_3 
REMARK    4  A    between atoms: C_12  and  N_5 
ROOT
ATOM      1  C   UNL d   1      53.327  32.536  53.422  0.00  0.00     0.170 A 
ATOM      2  C   UNL d   1      52.693  32.583  52.979  0.00  0.00     0.299 A 
ATOM      3  N   UNL d   1      52.789  33.591  53.729  0.00  0.00    -0.238 N 
ATOM      4  N   UNL d   1      52.334  33.295  53.189  0.00  0.00    -0.209 N 
ATOM      5  C   UNL d   1      53.455  33.086  53.889  0.00  0.00     0.105 A 
ATOM      6  O   UNL d   1      52.425  32.034  52.409  0.00  0.00    -0.263 OA
ATOM      7  C   UNL d   1      52.645  34.328  54.116  0.00  0.00     0.120 C 
ATOM      8  C   UNL d   1      53.801  33.457  54.397  0.00  0.00     0.022 C 
ENDROOT
BRANCH   1   9
ATOM      9  N   UNL d   1      53.875  31.907  53.411  0.00  0.00    -0.137 NA
BRANCH   9  10
ATOM     10  S   UNL d   1      53.690  31.166  53.768  0.00  0.00     0.351 S 
ATOM     11  O   UNL d   1      53.661  31.492  54.545  0.00  0.00    -0.180 OA
ATOM     12  O   UNL d   1      53.719  30.848  52.995  0.00  0.00    -0.180 OA
BRANCH  10  13
ATOM     13  N   UNL d   1      53.510  30.397  54.026  0.00  0.00    -0.215 N 
ATOM     14  C   UNL d   1      53.446  30.235  54.850  0.00  0.00     0.093 A 
ATOM     15  C   UNL d   1      53.267  29.463  55.104  0.00  0.00     0.020 A 
ATOM     16  C   UNL d   1      53.150  28.848  54.546  0.00  0.00     0.003 A 
ATOM     17  C   UNL d   1      53.214  29.009  53.729  0.00  0.00     0.020 A 
ATOM     18  C   UNL d   1      53.396  29.790  53.464  0.00  0.00     0.093 A 
ENDBRANCH  10  13
ENDBRANCH   9  10
ENDBRANCH   1   9
BRANCH   4  19
ATOM     19  C   UNL d   1      51.630  33.685  52.923  0.00  0.00     0.085 A 
ATOM     20  C   UNL d   1      51.672  34.132  52.231  0.00  0.00     0.019 A 
ATOM     21  C   UNL d   1      50.989  34.516  51.965  0.00  0.00     0.002 A 
ATOM     22  C   UNL d   1      50.295  34.441  52.395  0.00  0.00     0.000 A 
ATOM     23  C   UNL d   1      50.297  34.000  53.057  0.00  0.00     0.002 A 
ATOM     24  C   UNL d   1      50.981  33.621  53.315  0.00  0.00     0.019 A 
ENDBRANCH   4  19
TORSDOF 4
ENDMDL
MODEL 2
REMARK VINA RESULT:      -8.5      1.887      4.257
REMARK  4 active torsions:
REMARK  status: ('A' for Active; 'I' for Inactive)
REMARK    1  A    between atoms: N_7  and  C_1 
REMARK    2  A    between atoms: S_3  and  N_7 
REMARK    3  A    between atoms: N_8  and  S_3 
REMARK    4  A    between atoms: C_12  and  N_5 
ROOT
ATOM      1  C   UNL d   1      52.623  33.122  52.845  0.00  0.00     0.170 A 
ATOM      2  C   UNL d   1      53.070  33.617  53.239  0.00  0.00     0.299 A 
ATOM      3  N   UNL d   1      53.265  32.434  53.626  0.00  0.00    -0.238 N 
ATOM      4  N   UNL d   1      53.501  33.150  53.764  0.00  0.00    -0.209 N 
ATOM      5  C   UNL d   1      52.677  32.411  53.011  0.00  0.00     0.105 A 
ATOM      6  O   UNL d   1      53.112  34.448  53.156  0.00  0.00    -0.263 OA
ATOM      7  C   UNL d   1      53.555  31.755  54.034  0.00  0.00     0.120 C 
ATOM      8  C   UNL d   1      52.536  31.708  52.970  0.00  0.00     0.022 C 
ENDROOT
BRANCH   1   9
ATOM      9  N   UNL d   1      52.084  33.336  52.245  0.00  0.00    -0.137 NA
BRANCH   9  10
ATOM     10  S   UNL d   1      51.350  33.703  52.435  0.00  0.00     0.351 S 
ATOM     11  O   UNL d   1      51.121  33.085  52.962  0.00  0.00    -0.180 OA
ATOM     12  O   UNL d   1      51.581  34.313  51.912  0.00  0.00    -0.180 OA
BRANCH  10  13
ATOM     13  N   UNL d   1      50.653  34.139  52.560  0.00  0.00    -0.215 N 
ATOM     14  C   UNL d   1      50.501  34.483  53.314  0.00  0.00     0.093 A 
ATOM     15  C   UNL d   1      49.802  34.918  53.434  0.00  0.00     0.020 A 
ATOM     16  C   UNL d   1      49.251  35.017  52.810  0.00  0.00     0.003 A 
ATOM     17  C   UNL d   1      49.402  34.677  52.063  0.00  0.00     0.020 A 
ATOM     18  C   UNL d   1      50.109  34.233  51.933  0.00  0.00     0.093 A 
ENDBRANCH  10  13
ENDBRANCH   9  10
ENDBRANCH   1   9
BRANCH   4  19
ATOM     19  C   UNL d   1      54.085  33.331  54.351  0.00  0.00     0.085 A 
ATOM     20  C   UNL d   1      54.857  33.471  54.098  0.00  0.00     0.019 A 
ATOM     21  C   UNL d   1      55.434  33.649  54.665  0.00  0.00     0.002 A 
ATOM     22  C   UNL d   1      55.220  33.680  55.456  0.00  0.00     0.000 A 
ATOM     23  C   UNL d   1      54.464  33.539  55.657  0.00  0.00     0.002 A 
ATOM     24  C   UNL d   1      53.897  33.363  55.087  0.00  0.00     0.019 A 
ENDBRANCH   4  19
TORSDOF 4
ENDMDL
MODEL 3
REMARK VINA RESULT:      -8.4      1.362      4.150
REMARK  4 active torsions:
REMARK  status: ('A' for Active; 'I' for Inactive)
REMARK    1  A    between atoms: N_7  and  C_1 
REMARK    2  A    between atoms: S_3  and  N_7 
REMARK    3  A    between atoms: N_8  and  S_3 
REMARK    4  A    between atoms: C_12  and  N_5 
ROOT
ATOM      1  C   UNL d   1      52.888  33.265  53.241  0.00  0.00     0.170 A 
ATOM      2  C   UNL d   1      52.828  32.556  52.934  0.00  0.00     0.299 A 
ATOM      3  N   UNL d   1      53.368  32.504  54.071  0.00  0.00    -0.238 N 
ATOM      4  N   UNL d   1      53.152  32.047  53.495  0.00  0.00    -0.209 N 
ATOM      5  C   UNL d   1      53.193  33.321  53.906  0.00  0.00     0.105 A 
ATOM      6  O   UNL d   1      52.505  32.346  52.192  0.00  0.00    -0.263 OA
ATOM      7  C   UNL d   1      53.734  32.229  54.780  0.00  0.00     0.120 C 
ATOM      8  C   UNL d   1      53.434  33.645  54.499  0.00  0.00     0.022 C 
ENDROOT
BRANCH   1   9
ATOM      9  N   UNL d   1      52.633  33.970  52.876  0.00  0.00    -0.137 NA
BRANCH   9  10
ATOM     10  S   UNL d   1      51.812  34.154  52.819  0.00  0.00     0.351 S 
ATOM     11  O   UNL d   1      51.713  34.194  53.656  0.00  0.00    -0.180 OA
ATOM     12  O   UNL d   1      51.916  34.113  51.990  0.00  0.00    -0.180 OA
BRANCH  10  13
ATOM     13  N   UNL d   1      51.015  34.330  52.662  0.00  0.00    -0.215 N 
ATOM     14  C   UNL d   1      50.514  34.596  53.284  0.00  0.00     0.093 A 
ATOM     15  C   UNL d   1      49.716  34.772  53.123  0.00  0.00     0.020 A 
ATOM     16  C   UNL d   1      49.411  34.686  52.346  0.00  0.00     0.003 A 
ATOM     17  C   UNL d   1      49.909  34.422  51.730  0.00  0.00     0.020 A 
ATOM     18  C   UNL d   1      50.719  34.242  51.887  0.00  0.00     0.093 A 
ENDBRANCH  10  13
ENDBRANCH   9  10
ENDBRANCH   1   9
BRANCH   4  19
ATOM     19  C   UNL d   1      53.262  31.207  53.516  0.00  0.00     0.085 A 
ATOM     20  C   UNL d   1      52.594  30.732  53.608  0.00  0.00     0.019 A 
ATOM     21  C   UNL d   1      52.692  29.910  53.630  0.00  0.00     0.002 A 
ATOM     22  C   UNL d   1      53.446  29.596  53.558  0.00  0.00     0.000 A 
ATOM     23  C   UNL d   1      54.063  30.089  53.471  0.00  0.00     0.002 A 
ATOM     24  C   UNL d   1      53.957  30.905  53.451  0.00  0.00     0.019 A 
ENDBRANCH   4  19
TORSDOF 4
ENDMDL
MODEL 4
REMARK VINA RESULT:      -7.5      1.476      4.261
REMARK  4 active torsions:
REMARK  status: ('A' for Active; 'I' for Inactive)
REMARK    1  A    between atoms: N_7  and  C_1 
REMARK    2  A    between atoms: S_3  and  N_7 
REMARK    3  A    between atoms: N_8  and  S_3 
REMARK    4  A    between atoms: C_12  and  N_5 
ROOT
ATOM      1  C   UNL d   1      53.262  31.976  53.182  0.00  0.00     0.170 A 
ATOM      2  C   UNL d   1      53.679  31.446  53.562  0.00  0.00     0.299 A 
ATOM      3  N   UNL d   1      52.514  31.021  53.340  0.00  0.00    -0.238 N 
ATOM      4  N   UNL d   1      53.172  30.804  53.666  0.00  0.00    -0.209 N 
ATOM      5  C   UNL d   1      52.569  31.805  53.014  0.00  0.00     0.105 A 
ATOM      6  O   UNL d   1      54.474  31.505  53.816  0.00  0.00    -0.263 OA
ATOM      7  C   UNL d   1      51.822  30.539  53.308  0.00  0.00     0.120 C 
ATOM      8  C   UNL d   1      51.911  31.897  52.742  0.00  0.00     0.022 C 
ENDROOT
BRANCH   1   9
ATOM      9  N   UNL d   1      53.538  32.728  52.949  0.00  0.00    -0.137 NA
BRANCH   9  10
ATOM     10  S   UNL d   1      53.458  33.395  53.459  0.00  0.00     0.351 S 
ATOM     11  O   UNL d   1      54.103  33.159  53.948  0.00  0.00    -0.180 OA
ATOM     12  O   UNL d   1      52.819  33.624  52.970  0.00  0.00    -0.180 OA
BRANCH  10  13
ATOM     13  N   UNL d   1      53.302  34.080  53.902  0.00  0.00    -0.215 N 
ATOM     14  C   UNL d   1      53.517  34.112  54.716  0.00  0.00     0.093 A 
ATOM     15  C   UNL d   1      53.359  34.800  55.157  0.00  0.00     0.020 A 
ATOM     16  C   UNL d   1      52.988  35.460  54.795  0.00  0.00     0.003 A 
ATOM     17  C   UNL d   1      52.776  35.428  53.988  0.00  0.00     0.020 A 
ATOM     18  C   UNL d   1      52.933  34.733  53.535  0.00  0.00     0.093 A 
ENDBRANCH  10  13
ENDBRANCH   9  10
ENDBRANCH   1   9
BRANCH   4  19
ATOM     19  C   UNL d   1      53.270  30.047  54.034  0.00  0.00     0.085 A 
ATOM     20  C   UNL d   1      53.114  29.985  54.841  0.00  0.00     0.019 A 
ATOM     21  C   UNL d   1      53.207  29.249  55.208  0.00  0.00     0.002 A 
ATOM     22  C   UNL d   1      53.450  28.607  54.759  0.00  0.00     0.000 A 
ATOM     23  C   UNL d   1      53.590  28.709  53.983  0.00  0.00     0.002 A 
ATOM     24  C   UNL d   1      53.495  29.445  53.627  0.00  0.00     0.019 A 
ENDBRANCH   4  19
TORSDOF 4
ENDMDL
MODEL 5
REMARK VINA RESULT:      -7.3      1.724      2.602
REMARK  4 active torsions:
REMARK  status: ('A' for Active; 'I' for Inactive)
REMARK    1  A    between atoms: N_7  and  C_1 
REMARK    2  A    between atoms: S_3  and  N_7 
REMARK    3  A    between atoms: N_8  and  S_3 
REMARK    4  A    between atoms: C_12  and  N_5 
ROOT
ATOM      1  C   UNL d   1      52.703  32.918  52.967  0.00  0.00     0.170 A 
ATOM      2  C   UNL d   1      52.358  33.599  52.837  0.00  0.00     0.299 A 
ATOM      3  N   UNL d   1      51.503  32.684  52.973  0.00  0.00    -0.238 N 
ATOM      4  N   UNL d   1      51.550  33.437  52.842  0.00  0.00    -0.209 N 
ATOM      5  C   UNL d   1      52.273  32.332  53.057  0.00  0.00     0.105 A 
ATOM      6  O   UNL d   1      52.721  34.343  52.717  0.00  0.00    -0.263 OA
ATOM      7  C   UNL d   1      50.776  32.259  53.027  0.00  0.00     0.120 C 
ATOM      8  C   UNL d   1      52.107  31.643  53.173  0.00  0.00     0.022 C 
ENDROOT
BRANCH   1   9
ATOM      9  N   UNL d   1      53.528  32.798  53.011  0.00  0.00    -0.137 NA
BRANCH   9  10
ATOM     10  S   UNL d   1      53.950  32.966  53.721  0.00  0.00     0.351 S 
ATOM     11  O   UNL d   1      53.709  32.249  54.093  0.00  0.00    -0.180 OA
ATOM     12  O   UNL d   1      54.187  33.676  53.348  0.00  0.00    -0.180 OA
BRANCH  10  13
ATOM     13  N   UNL d   1      54.396  33.218  54.376  0.00  0.00    -0.215 N 
ATOM     14  C   UNL d   1      54.128  33.049  55.157  0.00  0.00     0.093 A 
ATOM     15  C   UNL d   1      54.577  33.303  55.810  0.00  0.00     0.020 A 
ATOM     16  C   UNL d   1      55.293  33.724  55.695  0.00  0.00     0.003 A 
ATOM     17  C   UNL d   1      55.559  33.892  54.920  0.00  0.00     0.020 A 
ATOM     18  C   UNL d   1      55.108  33.637  54.253  0.00  0.00     0.093 A 
ENDBRANCH  10  13
ENDBRANCH   9  10
ENDBRANCH   1   9
BRANCH   4  19
ATOM     19  C   UNL d   1      50.864  33.924  52.737  0.00  0.00     0.085 A 
ATOM     20  C   UNL d   1      50.564  34.011  51.974  0.00  0.00     0.019 A 
ATOM     21  C   UNL d   1      49.894  34.485  51.862  0.00  0.00     0.002 A 
ATOM     22  C   UNL d   1      49.552  34.852  52.511  0.00  0.00     0.000 A 
ATOM     23  C   UNL d   1      49.873  34.742  53.230  0.00  0.00     0.002 A 
ATOM     24  C   UNL d   1      50.539  34.269  53.332  0.00  0.00     0.019 A 
ENDBRANCH   4  19
TORSDOF 4
ENDMDL
