MODEL 1
REMARK VINA RESULT:      68.4      0.000      0.000
REMARK  4 active torsions:
REMARK  status: ('A' for Active; 'I' for Inactive)
REMARK    1  A    between atoms: C_8  and  C_1 
REMARK    2  A    between atoms: C_10  and  C_5 
REMARK    3  A    between atoms: N_9  and  C_10 
REMARK    4  A    between atoms: O_19  and  C_14 
ROOT
ATOM      1  C   UNL d   1     -50.889  25.698  33.315  0.00  0.00     0.066 A 
ATOM      2  C   UNL d   1     -51.416  26.333  33.314  0.00  0.00     0.200 A 
ATOM      3  C   UNL d   1     -50.323  27.253  33.316  0.00  0.00     0.108 A 
ATOM      4  C   UNL d   1     -51.145  27.104  33.314  0.00  0.00     0.062 A 
ATOM      5  C   UNL d   1     -50.062  28.028  33.316  0.00  0.00     0.079 A 
ATOM      6  C   UNL d   1     -50.068  25.847  33.317  0.00  0.00     0.126 A 
ATOM      7  O   UNL d   1     -49.783  26.617  33.317  0.00  0.00    -0.305 OA
ATOM      8  C   UNL d   1     -51.671  27.735  33.313  0.00  0.00     0.009 A 
ATOM      9  C   UNL d   1     -50.579  28.659  33.315  0.00  0.00     0.199 A 
ATOM     10  O   UNL d   1     -52.225  26.186  33.312  0.00  0.00    -0.286 OA
ATOM     11  C   UNL d   1     -51.401  28.510  33.313  0.00  0.00     0.042 A 
ATOM     12  O   UNL d   1     -50.316  29.425  33.316  0.00  0.00    -0.286 OA
ENDROOT
BRANCH   1  13
ATOM     13  C   UNL d   1     -51.186  24.863  33.314  0.00  0.00     0.027 A 
ATOM     14  C   UNL d   1     -50.612  24.194  33.312  0.00  0.00     0.094 A 
ATOM     15  C   UNL d   1     -50.905  23.340  33.311  0.00  0.00     0.024 A 
ATOM     16  C   UNL d   1     -51.787  23.189  33.313  0.00  0.00     0.002 A 
ATOM     17  C   UNL d   1     -52.360  23.858  33.315  0.00  0.00     0.000 A 
ATOM     18  C   UNL d   1     -52.072  24.702  33.316  0.00  0.00     0.002 A 
BRANCH  14  19
ATOM     19  O   UNL d   1     -49.731  24.346  33.310  0.00  0.00    -0.328 OA
ATOM     20  C   UNL d   1     -49.172  23.792  33.725  0.00  0.00     0.181 C 
ENDBRANCH  14  19
ENDBRANCH   1  13
BRANCH   5  21
ATOM     21  C   UNL d   1     -49.244  28.176  33.318  0.00  0.00     0.085 C 
BRANCH  21  22
ATOM     22  N   UNL d   1     -48.882  28.462  34.001  0.00  0.00    -0.302 N 
ATOM     23  C   UNL d   1     -48.716  27.949  34.617  0.00  0.00     0.080 A 
ATOM     24  C   UNL d   1     -48.356  28.233  35.294  0.00  0.00     0.019 A 
ATOM     25  C   UNL d   1     -48.160  29.027  35.363  0.00  0.00     0.003 A 
ATOM     26  C   UNL d   1     -48.326  29.539  34.747  0.00  0.00     0.019 A 
ATOM     27  C   UNL d   1     -47.802  29.308  36.038  0.00  0.00     0.000 C 
ATOM     28  C   UNL d   1     -48.683  29.265  34.072  0.00  0.00     0.080 A 
ENDBRANCH  21  22
ENDBRANCH   5  21
TORSDOF 4
ENDMDL
