MODEL 1
REMARK VINA RESULT:      51.6      0.000      0.000
REMARK  10 active torsions:
REMARK  status: ('A' for Active; 'I' for Inactive)
REMARK    1  A    between atoms: N_3  and  C_1 
REMARK    2  A    between atoms: C_16  and  N_2 
REMARK       I    between atoms: C_7  and  N_3 
REMARK    3  A    between atoms: C_18  and  C_7 
REMARK    4  A    between atoms: C_10  and  C_20 
REMARK       I    between atoms: N_11  and  C_10 
REMARK    5  A    between atoms: C_19  and  N_11 
REMARK    6  A    between atoms: S_14  and  C_18 
REMARK    7  A    between atoms: C_20  and  S_14 
REMARK    8  A    between atoms: O_21  and  C_15 
REMARK    9  A    between atoms: C_23  and  C_16 
REMARK   10  A    between atoms: O_22  and  C_23 
ROOT
ATOM      1  C   UNL d   1      13.388  13.690  -3.898  0.00  0.00     0.182 A 
ATOM      2  N   UNL d   1      13.257  12.888  -3.728  0.00  0.00    -0.283 N 
ATOM      3  S   UNL d   1      13.855  14.007  -3.285  0.00  0.00    -0.048 SA
ATOM      4  C   UNL d   1      14.009  13.397  -2.740  0.00  0.00     0.050 A 
ATOM      5  C   UNL d   1      13.640  12.707  -3.013  0.00  0.00     0.072 A 
ATOM      6  C   UNL d   1      14.442  13.393  -2.031  0.00  0.00     0.032 A 
ATOM      7  C   UNL d   1      13.703  12.013  -2.577  0.00  0.00     0.020 A 
ATOM      8  C   UNL d   1      14.495  12.689  -1.606  0.00  0.00     0.095 A 
ATOM      9  C   UNL d   1      14.126  11.998  -1.878  0.00  0.00     0.026 A 
ENDROOT
BRANCH   1  10
ATOM     10  N   UNL d   1      13.105  14.102  -4.559  0.00  0.00    -0.183 NA
ATOM     11  C   UNL d   1      13.674  14.691  -4.702  0.00  0.00     0.287 C 
ATOM     12  O   UNL d   1      14.343  14.749  -4.212  0.00  0.00    -0.265 OA
BRANCH  11  13
ATOM     13  C   UNL d   1      13.581  15.218  -5.326  0.00  0.00     0.098 C 
BRANCH  13  14
ATOM     14  S   UNL d   1      13.740  16.028  -5.222  0.00  0.00    -0.076 SA
BRANCH  14  15
ATOM     15  C   UNL d   1      13.604  16.560  -5.841  0.00  0.00     0.098 C 
BRANCH  15  16
ATOM     16  C   UNL d   1      13.960  17.305  -5.839  0.00  0.00     0.286 C 
ATOM     17  N   UNL d   1      13.494  17.986  -5.827  0.00  0.00    -0.208 NA
ATOM     18  O   UNL d   1      14.790  17.362  -5.849  0.00  0.00    -0.265 OA
BRANCH  17  19
ATOM     19  C   UNL d   1      13.859  18.733  -5.825  0.00  0.00     0.085 A 
ATOM     20  C   UNL d   1      13.644  19.292  -6.384  0.00  0.00     0.019 A 
ATOM     21  C   UNL d   1      14.006  20.031  -6.379  0.00  0.00     0.002 A 
ATOM     22  C   UNL d   1      14.588  20.205  -5.809  0.00  0.00     0.000 A 
ATOM     23  C   UNL d   1      14.796  19.631  -5.250  0.00  0.00     0.002 A 
ATOM     24  C   UNL d   1      14.433  18.892  -5.254  0.00  0.00     0.019 A 
ENDBRANCH  17  19
ENDBRANCH  15  16
ENDBRANCH  14  15
ENDBRANCH  13  14
ENDBRANCH  11  13
ENDBRANCH   1  10
BRANCH   2  25
ATOM     25  C   UNL d   1      12.822  12.370  -4.191  0.00  0.00     0.108 C 
BRANCH  25  26
ATOM     26  C   UNL d   1      13.183  11.931  -4.785  0.00  0.00     0.135 C 
BRANCH  26  27
ATOM     27  O   UNL d   1      12.773  11.779  -5.487  0.00  0.00    -0.325 OA
ATOM     28  C   UNL d   1      13.164  11.798  -6.213  0.00  0.00     0.182 C 
ENDBRANCH  26  27
ENDBRANCH  25  26
ENDBRANCH   2  25
BRANCH   8  29
ATOM     29  O   UNL d   1      14.925  12.670  -0.893  0.00  0.00    -0.328 OA
ATOM     30  C   UNL d   1      15.515  12.112  -0.784  0.00  0.00     0.181 C 
ENDBRANCH   8  29
TORSDOF 10
ENDMDL
MODEL 2
REMARK VINA RESULT:      53.6      0.988      1.090
REMARK  10 active torsions:
REMARK  status: ('A' for Active; 'I' for Inactive)
REMARK    1  A    between atoms: N_3  and  C_1 
REMARK    2  A    between atoms: C_16  and  N_2 
REMARK       I    between atoms: C_7  and  N_3 
REMARK    3  A    between atoms: C_18  and  C_7 
REMARK    4  A    between atoms: C_10  and  C_20 
REMARK       I    between atoms: N_11  and  C_10 
REMARK    5  A    between atoms: C_19  and  N_11 
REMARK    6  A    between atoms: S_14  and  C_18 
REMARK    7  A    between atoms: C_20  and  S_14 
REMARK    8  A    between atoms: O_21  and  C_15 
REMARK    9  A    between atoms: C_23  and  C_16 
REMARK   10  A    between atoms: O_22  and  C_23 
ROOT
ATOM      1  C   UNL d   1      14.198  13.965  -3.376  0.00  0.00     0.182 A 
ATOM      2  N   UNL d   1      13.657  13.336  -3.396  0.00  0.00    -0.283 N 
ATOM      3  S   UNL d   1      14.643  13.896  -2.675  0.00  0.00    -0.048 SA
ATOM      4  C   UNL d   1      14.373  13.222  -2.267  0.00  0.00     0.050 A 
ATOM      5  C   UNL d   1      13.765  12.876  -2.712  0.00  0.00     0.072 A 
ATOM      6  C   UNL d   1      14.612  12.888  -1.545  0.00  0.00     0.032 A 
ATOM      7  C   UNL d   1      13.396  12.196  -2.435  0.00  0.00     0.020 A 
ATOM      8  C   UNL d   1      14.231  12.205  -1.282  0.00  0.00     0.095 A 
ATOM      9  C   UNL d   1      13.623  11.859  -1.727  0.00  0.00     0.026 A 
ENDROOT
BRANCH   1  10
ATOM     10  N   UNL d   1      14.281  14.558  -3.949  0.00  0.00    -0.183 NA
ATOM     11  C   UNL d   1      14.209  15.272  -3.530  0.00  0.00     0.287 C 
ATOM     12  O   UNL d   1      14.083  15.260  -2.709  0.00  0.00    -0.265 OA
BRANCH  11  13
ATOM     13  C   UNL d   1      14.263  15.992  -3.921  0.00  0.00     0.098 C 
BRANCH  13  14
ATOM     14  S   UNL d   1      15.001  16.358  -4.035  0.00  0.00    -0.076 SA
BRANCH  14  15
ATOM     15  C   UNL d   1      15.179  16.717  -4.760  0.00  0.00     0.098 C 
BRANCH  15  16
ATOM     16  C   UNL d   1      14.737  17.361  -5.027  0.00  0.00     0.286 C 
ATOM     17  N   UNL d   1      15.115  17.999  -5.390  0.00  0.00    -0.208 NA
ATOM     18  O   UNL d   1      13.912  17.362  -4.927  0.00  0.00    -0.265 OA
BRANCH  17  19
ATOM     19  C   UNL d   1      14.665  18.645  -5.657  0.00  0.00     0.085 A 
ATOM     20  C   UNL d   1      13.990  18.514  -6.102  0.00  0.00     0.019 A 
ATOM     21  C   UNL d   1      13.546  19.155  -6.365  0.00  0.00     0.002 A 
ATOM     22  C   UNL d   1      13.785  19.931  -6.177  0.00  0.00     0.000 A 
ATOM     23  C   UNL d   1      14.469  20.049  -5.726  0.00  0.00     0.002 A 
ATOM     24  C   UNL d   1      14.913  19.408  -5.464  0.00  0.00     0.019 A 
ENDBRANCH  17  19
ENDBRANCH  15  16
ENDBRANCH  14  15
ENDBRANCH  13  14
ENDBRANCH  11  13
ENDBRANCH   1  10
BRANCH   2  25
ATOM     25  C   UNL d   1      13.113  13.197  -3.994  0.00  0.00     0.108 C 
BRANCH  25  26
ATOM     26  C   UNL d   1      13.357  12.935  -4.734  0.00  0.00     0.135 C 
BRANCH  26  27
ATOM     27  O   UNL d   1      13.056  12.227  -5.037  0.00  0.00    -0.325 OA
ATOM     28  C   UNL d   1      13.488  11.787  -5.584  0.00  0.00     0.182 C 
ENDBRANCH  26  27
ENDBRANCH  25  26
ENDBRANCH   2  25
BRANCH   8  29
ATOM     29  O   UNL d   1      14.459  11.859  -0.561  0.00  0.00    -0.328 OA
ATOM     30  C   UNL d   1      14.893  12.290  -0.017  0.00  0.00     0.181 C 
ENDBRANCH   8  29
TORSDOF 10
ENDMDL
