MODEL 1
REMARK VINA RESULT:      -5.2      0.000      0.000
REMARK  4 active torsions:
REMARK  status: ('A' for Active; 'I' for Inactive)
REMARK    1  A    between atoms: C_2  and  C_1 
REMARK       I    between atoms: N_5  and  C_1 
REMARK    2  A    between atoms: C_4  and  C_2 
REMARK    3  A    between atoms: C_3  and  C_4 
REMARK    4  A    between atoms: C_9  and  N_5 
ROOT
ATOM      1  C   UNL d   1     -41.425-122.390 -52.648  0.00  0.00     0.280 C 
ATOM      2  N   UNL d   1     -41.776-122.853 -53.248  0.00  0.00    -0.208 NA
ATOM      3  O   UNL d   1     -41.123-121.640 -52.810  0.00  0.00    -0.265 OA
ENDROOT
BRANCH   1   4
ATOM      4  C   UNL d   1     -41.381-122.688 -51.885  0.00  0.00     0.069 C 
BRANCH   4   5
ATOM      5  C   UNL d   1     -41.618-122.211 -51.238  0.00  0.00     0.075 C 
BRANCH   5   6
ATOM      6  C   UNL d   1     -41.782-122.570 -50.501  0.00  0.00     0.211 C 
ATOM      7  O   UNL d   1     -42.548-122.501 -50.171  0.00  0.00    -0.644 OA
ATOM      8  O   UNL d   1     -41.201-122.993 -50.086  0.00  0.00    -0.644 OA
ENDBRANCH   5   6
ENDBRANCH   4   5
ENDBRANCH   1   4
BRANCH   2   9
ATOM      9  C   UNL d   1     -41.819-122.545 -54.024  0.00  0.00     0.085 A 
ATOM     10  C   UNL d   1     -41.222-122.715 -54.571  0.00  0.00     0.019 A 
ATOM     11  C   UNL d   1     -41.260-122.416 -55.331  0.00  0.00     0.002 A 
ATOM     12  C   UNL d   1     -41.891-121.943 -55.563  0.00  0.00     0.000 A 
ATOM     13  C   UNL d   1     -42.502-121.765 -55.014  0.00  0.00     0.002 A 
ATOM     14  C   UNL d   1     -42.450-122.073 -54.253  0.00  0.00     0.019 A 
ENDBRANCH   2   9
TORSDOF 4
ENDMDL
MODEL 2
REMARK VINA RESULT:      -4.9      1.474      3.801
REMARK  4 active torsions:
REMARK  status: ('A' for Active; 'I' for Inactive)
REMARK    1  A    between atoms: C_2  and  C_1 
REMARK       I    between atoms: N_5  and  C_1 
REMARK    2  A    between atoms: C_4  and  C_2 
REMARK    3  A    between atoms: C_3  and  C_4 
REMARK    4  A    between atoms: C_9  and  N_5 
ROOT
ATOM      1  C   UNL d   1     -41.555-122.673 -53.451  0.00  0.00     0.280 C 
ATOM      2  N   UNL d   1     -41.269-122.227 -52.805  0.00  0.00    -0.208 NA
ATOM      3  O   UNL d   1     -41.869-123.427 -53.342  0.00  0.00    -0.265 OA
ENDROOT
BRANCH   1   4
ATOM      4  C   UNL d   1     -41.522-122.352 -54.205  0.00  0.00     0.069 C 
BRANCH   4   5
ATOM      5  C   UNL d   1     -42.211-122.334 -54.680  0.00  0.00     0.075 C 
BRANCH   5   6
ATOM      6  C   UNL d   1     -42.193-121.943 -55.418  0.00  0.00     0.211 C 
ATOM      7  O   UNL d   1     -42.877-121.940 -55.900  0.00  0.00    -0.644 OA
ATOM      8  O   UNL d   1     -41.509-121.557 -55.687  0.00  0.00    -0.644 OA
ENDBRANCH   5   6
ENDBRANCH   4   5
ENDBRANCH   1   4
BRANCH   2   9
ATOM      9  C   UNL d   1     -41.305-122.558 -52.038  0.00  0.00     0.085 A 
ATOM     10  C   UNL d   1     -41.123-123.356 -51.920  0.00  0.00     0.019 A 
ATOM     11  C   UNL d   1     -41.157-123.683 -51.171  0.00  0.00     0.002 A 
ATOM     12  C   UNL d   1     -41.372-123.224 -50.524  0.00  0.00     0.000 A 
ATOM     13  C   UNL d   1     -41.558-122.411 -50.634  0.00  0.00     0.002 A 
ATOM     14  C   UNL d   1     -41.520-122.097 -51.393  0.00  0.00     0.019 A 
ENDBRANCH   2   9
TORSDOF 4
ENDMDL
MODEL 3
REMARK VINA RESULT:      -4.3      1.430      4.141
REMARK  4 active torsions:
REMARK  status: ('A' for Active; 'I' for Inactive)
REMARK    1  A    between atoms: C_2  and  C_1 
REMARK       I    between atoms: N_5  and  C_1 
REMARK    2  A    between atoms: C_4  and  C_2 
REMARK    3  A    between atoms: C_3  and  C_4 
REMARK    4  A    between atoms: C_9  and  N_5 
ROOT
ATOM      1  C   UNL d   1     -41.494-122.939 -51.746  0.00  0.00     0.280 C 
ATOM      2  N   UNL d   1     -41.391-122.422 -51.097  0.00  0.00    -0.208 NA
ATOM      3  O   UNL d   1     -41.840-123.681 -51.648  0.00  0.00    -0.265 OA
ENDROOT
BRANCH   1   4
ATOM      4  C   UNL d   1     -41.246-122.702 -52.491  0.00  0.00     0.069 C 
BRANCH   4   5
ATOM      5  C   UNL d   1     -41.426-123.175 -53.158  0.00  0.00     0.075 C 
BRANCH   5   6
ATOM      6  C   UNL d   1     -41.240-122.894 -53.923  0.00  0.00     0.211 C 
ATOM      7  O   UNL d   1     -41.132-122.073 -54.047  0.00  0.00    -0.644 OA
ATOM      8  O   UNL d   1     -41.159-123.412 -54.567  0.00  0.00    -0.644 OA
ENDBRANCH   5   6
ENDBRANCH   4   5
ENDBRANCH   1   4
BRANCH   2   9
ATOM      9  C   UNL d   1     -41.645-122.667 -50.340  0.00  0.00     0.085 A 
ATOM     10  C   UNL d   1     -41.129-123.082 -49.843  0.00  0.00     0.019 A 
ATOM     11  C   UNL d   1     -41.374-123.324 -49.101  0.00  0.00     0.002 A 
ATOM     12  C   UNL d   1     -42.135-123.159 -48.837  0.00  0.00     0.000 A 
ATOM     13  C   UNL d   1     -42.666-122.737 -49.335  0.00  0.00     0.002 A 
ATOM     14  C   UNL d   1     -42.405-122.501 -50.079  0.00  0.00     0.019 A 
ENDBRANCH   2   9
TORSDOF 4
ENDMDL
MODEL 4
REMARK VINA RESULT:      -4.0      1.531      2.291
REMARK  4 active torsions:
REMARK  status: ('A' for Active; 'I' for Inactive)
REMARK    1  A    between atoms: C_2  and  C_1 
REMARK       I    between atoms: N_5  and  C_1 
REMARK    2  A    between atoms: C_4  and  C_2 
REMARK    3  A    between atoms: C_3  and  C_4 
REMARK    4  A    between atoms: C_9  and  N_5 
ROOT
ATOM      1  C   UNL d   1     -41.817-122.790 -50.747  0.00  0.00     0.280 C 
ATOM      2  N   UNL d   1     -41.155-123.075 -51.170  0.00  0.00    -0.208 NA
ATOM      3  O   UNL d   1     -42.475-122.485 -51.140  0.00  0.00    -0.265 OA
ENDROOT
BRANCH   1   4
ATOM      4  C   UNL d   1     -41.810-122.816 -49.928  0.00  0.00     0.069 C 
BRANCH   4   5
ATOM      5  C   UNL d   1     -42.525-122.936 -49.510  0.00  0.00     0.075 C 
BRANCH   5   6
ATOM      6  C   UNL d   1     -42.511-122.995 -48.676  0.00  0.00     0.211 C 
ATOM      7  O   UNL d   1     -42.131-123.648 -48.316  0.00  0.00    -0.644 OA
ATOM      8  O   UNL d   1     -42.864-122.419 -48.194  0.00  0.00    -0.644 OA
ENDBRANCH   5   6
ENDBRANCH   4   5
ENDBRANCH   1   4
BRANCH   2   9
ATOM      9  C   UNL d   1     -41.166-123.047 -52.006  0.00  0.00     0.085 A 
ATOM     10  C   UNL d   1     -41.143-122.319 -52.397  0.00  0.00     0.019 A 
ATOM     11  C   UNL d   1     -41.154-122.287 -53.215  0.00  0.00     0.002 A 
ATOM     12  C   UNL d   1     -41.188-122.978 -53.659  0.00  0.00     0.000 A 
ATOM     13  C   UNL d   1     -41.211-123.723 -53.269  0.00  0.00     0.002 A 
ATOM     14  C   UNL d   1     -41.200-123.739 -52.447  0.00  0.00     0.019 A 
ENDBRANCH   2   9
TORSDOF 4
ENDMDL
