MODEL 1
REMARK VINA RESULT:      22.5      0.000      0.000
REMARK  5 active torsions:
REMARK  status: ('A' for Active; 'I' for Inactive)
REMARK    1  A    between atoms: S_2  and  C_1 
REMARK    2  A    between atoms: C_8  and  S_2 
REMARK    3  A    between atoms: C_23  and  N_7 
REMARK    4  A    between atoms: N_13  and  C_10 
REMARK    5  A    between atoms: C_31  and  C_23 
ROOT
ATOM      1  C   UNL d   1     -42.693-122.398 -49.923  0.00  0.00     0.144 A 
ATOM      2  C   UNL d   1     -42.220-122.106 -51.248  0.00  0.00     0.058 A 
ATOM      3  C   UNL d   1     -42.070-122.217 -50.444  0.00  0.00     0.209 A 
ATOM      4  C   UNL d   1     -43.465-122.467 -50.213  0.00  0.00     0.095 A 
ATOM      5  C   UNL d   1     -42.991-122.174 -51.538  0.00  0.00     0.069 A 
ATOM      6  N   UNL d   1     -43.613-122.354 -51.025  0.00  0.00    -0.303 N 
ATOM      7  C   UNL d   1     -43.142-122.063 -52.342  0.00  0.00     0.037 A 
ATOM      8  C   UNL d   1     -42.521-121.884 -52.855  0.00  0.00     0.093 A 
ATOM      9  C   UNL d   1     -41.600-121.927 -51.761  0.00  0.00     0.036 A 
ATOM     10  C   UNL d   1     -41.750-121.815 -52.564  0.00  0.00     0.156 A 
ATOM     11  O   UNL d   1     -41.300-122.149 -50.154  0.00  0.00    -0.286 OA
ATOM     12  F   UNL d   1     -41.126-121.634 -53.089  0.00  0.00    -0.203 F 
ENDROOT
BRANCH   1  13
ATOM     13  S   UNL d   1     -42.545-122.511 -49.116  0.00  0.00     0.214 S 
ATOM     14  O   UNL d   1     -42.906-121.775 -48.952  0.00  0.00    -0.217 OA
ATOM     15  O   UNL d   1     -42.184-123.246 -49.281  0.00  0.00    -0.217 OA
BRANCH  13  16
ATOM     16  C   UNL d   1     -42.397-122.620 -48.301  0.00  0.00     0.088 A 
ATOM     17  C   UNL d   1     -42.748-123.246 -47.894  0.00  0.00     0.011 A 
ATOM     18  C   UNL d   1     -42.598-123.349 -47.090  0.00  0.00     0.001 A 
ATOM     19  C   UNL d   1     -43.249-123.769 -48.293  0.00  0.00     0.001 C 
ATOM     20  C   UNL d   1     -42.094-122.824 -46.690  0.00  0.00     0.000 A 
ATOM     21  C   UNL d   1     -41.745-122.200 -47.098  0.00  0.00     0.001 A 
ATOM     22  C   UNL d   1     -41.893-122.094 -47.901  0.00  0.00     0.011 A 
ATOM     23  C   UNL d   1     -41.243-121.675 -46.703  0.00  0.00     0.000 C 
ENDBRANCH  13  16
ENDBRANCH   1  13
BRANCH   6  24
ATOM     24  C   UNL d   1     -44.383-122.422 -51.316  0.00  0.00     0.080 C 
BRANCH  24  25
ATOM     25  C   UNL d   1     -45.015-122.102 -50.892  0.00  0.00     0.019 C 
ATOM     26  C   UNL d   1     -45.768-122.074 -51.230  0.00  0.00     0.002 C 
ENDBRANCH  24  25
ENDBRANCH   6  24
BRANCH   8  27
ATOM     27  N   UNL d   1     -42.671-121.772 -53.662  0.00  0.00    -0.298 N 
ATOM     28  C   UNL d   1     -42.040-121.746 -54.196  0.00  0.00     0.107 A 
ATOM     29  C   UNL d   1     -42.187-121.635 -55.000  0.00  0.00     0.142 A 
ATOM     30  O   UNL d   1     -42.975-121.549 -55.262  0.00  0.00    -0.300 OA
ATOM     31  C   UNL d   1     -43.601-121.576 -54.722  0.00  0.00     0.142 A 
ATOM     32  C   UNL d   1     -43.444-121.687 -53.926  0.00  0.00     0.107 A 
ENDBRANCH   8  27
TORSDOF 5
ENDMDL
