MODEL 1
REMARK VINA RESULT:      -2.8      0.000      0.000
REMARK  2 active torsions:
REMARK  status: ('A' for Active; 'I' for Inactive)
REMARK    1  A    between atoms: O_3  and  C_1 
REMARK       I    between atoms: N_6  and  C_1 
REMARK    2  A    between atoms: C_5  and  O_3 
ROOT
ATOM      1  C   UNL d   1      29.814  16.276 -23.770  0.00  0.00     0.105 A 
ATOM      2  C   UNL d   1      29.193  16.754 -24.020  0.00  0.00     0.030 A 
ATOM      3  C   UNL d   1      30.599  16.447 -24.010  0.00  0.00     0.122 A 
ATOM      4  N   UNL d   1      29.667  15.622 -23.280  0.00  0.00    -0.242 NA
ATOM      5  C   UNL d   1      29.342  17.405 -24.508  0.00  0.00     0.059 A 
ATOM      6  C   UNL d   1      30.746  17.093 -24.494  0.00  0.00     0.027 A 
ATOM      7  C   UNL d   1      30.127  17.576 -24.748  0.00  0.00     0.013 A 
ATOM      8 CL   UNL d   1      28.718  17.890 -24.763  0.00  0.00    -0.082 Cl
ATOM      9  C   UNL d   1      28.421  16.586 -23.784  0.00  0.00     0.004 A 
ATOM     10  C   UNL d   1      28.894  15.454 -23.044  0.00  0.00     0.099 A 
ATOM     11  C   UNL d   1      28.270  15.939 -23.298  0.00  0.00     0.021 A 
ENDROOT
BRANCH   3  12
ATOM     12  O   UNL d   1      31.230  15.963 -23.757  0.00  0.00    -0.257 OA
BRANCH  12  13
ATOM     13  C   UNL d   1      31.871  15.801 -24.268  0.00  0.00     0.378 C 
ATOM     14  N   UNL d   1      32.608  15.613 -23.968  0.00  0.00    -0.249 N 
ATOM     15  C   UNL d   1      33.237  15.454 -24.477  0.00  0.00     0.104 C 
ATOM     16  C   UNL d   1      32.725  15.582 -23.151  0.00  0.00     0.104 C 
ATOM     17  O   UNL d   1      31.753  15.834 -25.096  0.00  0.00    -0.237 OA
ENDBRANCH  12  13
ENDBRANCH   3  12
TORSDOF 2
ENDMDL
MODEL 2
REMARK VINA RESULT:      -2.7      1.004      1.757
REMARK  2 active torsions:
REMARK  status: ('A' for Active; 'I' for Inactive)
REMARK    1  A    between atoms: O_3  and  C_1 
REMARK       I    between atoms: N_6  and  C_1 
REMARK    2  A    between atoms: C_5  and  O_3 
ROOT
ATOM      1  C   UNL d   1      29.955  16.610 -24.274  0.00  0.00     0.105 A 
ATOM      2  C   UNL d   1      29.168  16.605 -24.032  0.00  0.00     0.030 A 
ATOM      3  C   UNL d   1      30.487  16.033 -23.981  0.00  0.00     0.122 A 
ATOM      4  N   UNL d   1      30.224  17.186 -24.808  0.00  0.00    -0.242 NA
ATOM      5  C   UNL d   1      28.902  16.031 -23.500  0.00  0.00     0.059 A 
ATOM      6  C   UNL d   1      30.222  15.463 -23.453  0.00  0.00     0.027 A 
ATOM      7  C   UNL d   1      29.434  15.454 -23.207  0.00  0.00     0.013 A 
ATOM      8 CL   UNL d   1      28.109  16.022 -23.253  0.00  0.00    -0.082 Cl
ATOM      9  C   UNL d   1      28.644  17.173 -24.320  0.00  0.00     0.004 A 
ATOM     10  C   UNL d   1      29.700  17.754 -25.096  0.00  0.00     0.099 A 
ATOM     11  C   UNL d   1      28.906  17.746 -24.850  0.00  0.00     0.021 A 
ENDROOT
BRANCH   3  12
ATOM     12  O   UNL d   1      31.285  16.036 -24.225  0.00  0.00    -0.257 OA
BRANCH  12  13
ATOM     13  C   UNL d   1      31.895  15.857 -23.683  0.00  0.00     0.378 C 
ATOM     14  N   UNL d   1      32.635  15.628 -23.945  0.00  0.00    -0.249 N 
ATOM     15  C   UNL d   1      33.233  15.453 -23.406  0.00  0.00     0.104 C 
ATOM     16  C   UNL d   1      32.785  15.572 -24.755  0.00  0.00     0.104 C 
ATOM     17  O   UNL d   1      31.742  15.914 -22.862  0.00  0.00    -0.237 OA
ENDBRANCH  12  13
ENDBRANCH   3  12
TORSDOF 2
ENDMDL
MODEL 3
REMARK VINA RESULT:      -2.6      1.798      3.531
REMARK  2 active torsions:
REMARK  status: ('A' for Active; 'I' for Inactive)
REMARK    1  A    between atoms: O_3  and  C_1 
REMARK       I    between atoms: N_6  and  C_1 
REMARK    2  A    between atoms: C_5  and  O_3 
ROOT
ATOM      1  C   UNL d   1      31.428  16.818 -24.042  0.00  0.00     0.105 A 
ATOM      2  C   UNL d   1      32.208  16.736 -23.793  0.00  0.00     0.030 A 
ATOM      3  C   UNL d   1      30.871  16.213 -23.880  0.00  0.00     0.122 A 
ATOM      4  N   UNL d   1      31.189  17.498 -24.454  0.00  0.00    -0.242 NA
ATOM      5  C   UNL d   1      32.444  16.058 -23.384  0.00  0.00     0.059 A 
ATOM      6  C   UNL d   1      31.106  15.540 -23.473  0.00  0.00     0.027 A 
ATOM      7  C   UNL d   1      31.886  15.453 -23.222  0.00  0.00     0.013 A 
ATOM      8 CL   UNL d   1      33.230  15.972 -23.131  0.00  0.00    -0.082 Cl
ATOM      9  C   UNL d   1      32.756  17.332 -23.953  0.00  0.00     0.004 A 
ATOM     10  C   UNL d   1      31.738  18.093 -24.613  0.00  0.00     0.099 A 
ATOM     11  C   UNL d   1      32.525  18.008 -24.361  0.00  0.00     0.021 A 
ENDROOT
BRANCH   3  12
ATOM     12  O   UNL d   1      30.079  16.293 -24.131  0.00  0.00    -0.257 OA
BRANCH  12  13
ATOM     13  C   UNL d   1      29.457  15.956 -23.687  0.00  0.00     0.378 C 
ATOM     14  N   UNL d   1      28.737  15.787 -24.036  0.00  0.00    -0.249 N 
ATOM     15  C   UNL d   1      28.126  15.454 -23.593  0.00  0.00     0.104 C 
ATOM     16  C   UNL d   1      28.619  15.950 -24.837  0.00  0.00     0.104 C 
ATOM     17  O   UNL d   1      29.576  15.790 -22.875  0.00  0.00    -0.237 OA
ENDBRANCH  12  13
ENDBRANCH   3  12
TORSDOF 2
ENDMDL
MODEL 4
REMARK VINA RESULT:      -2.6      1.292      3.101
REMARK  2 active torsions:
REMARK  status: ('A' for Active; 'I' for Inactive)
REMARK    1  A    between atoms: O_3  and  C_1 
REMARK       I    between atoms: N_6  and  C_1 
REMARK    2  A    between atoms: C_5  and  O_3 
ROOT
ATOM      1  C   UNL d   1      31.607  16.474 -23.791  0.00  0.00     0.105 A 
ATOM      2  C   UNL d   1      32.085  17.058 -24.119  0.00  0.00     0.030 A 
ATOM      3  C   UNL d   1      30.778  16.494 -23.910  0.00  0.00     0.122 A 
ATOM      4  N   UNL d   1      31.944  15.863 -23.340  0.00  0.00    -0.242 NA
ATOM      5  C   UNL d   1      31.747  17.665 -24.567  0.00  0.00     0.059 A 
ATOM      6  C   UNL d   1      30.444  17.097 -24.355  0.00  0.00     0.027 A 
ATOM      7  C   UNL d   1      30.918  17.685 -24.686  0.00  0.00     0.013 A 
ATOM      8 CL   UNL d   1      32.226  18.257 -24.901  0.00  0.00    -0.082 Cl
ATOM      9  C   UNL d   1      32.901  17.038 -24.002  0.00  0.00     0.004 A 
ATOM     10  C   UNL d   1      32.761  15.844 -23.223  0.00  0.00     0.099 A 
ATOM     11  C   UNL d   1      33.240  16.435 -23.556  0.00  0.00     0.021 A 
ENDROOT
BRANCH   3  12
ATOM     12  O   UNL d   1      30.292  15.903 -23.577  0.00  0.00    -0.257 OA
BRANCH  12  13
ATOM     13  C   UNL d   1      29.513  15.787 -23.857  0.00  0.00     0.378 C 
ATOM     14  N   UNL d   1      28.914  15.565 -23.347  0.00  0.00    -0.249 N 
ATOM     15  C   UNL d   1      28.147  15.453 -23.628  0.00  0.00     0.104 C 
ATOM     16  C   UNL d   1      29.076  15.453 -22.545  0.00  0.00     0.104 C 
ATOM     17  O   UNL d   1      29.349  15.902 -24.670  0.00  0.00    -0.237 OA
ENDBRANCH  12  13
ENDBRANCH   3  12
TORSDOF 2
ENDMDL
MODEL 5
REMARK VINA RESULT:      -2.2      2.852      3.691
REMARK  2 active torsions:
REMARK  status: ('A' for Active; 'I' for Inactive)
REMARK    1  A    between atoms: O_3  and  C_1 
REMARK       I    between atoms: N_6  and  C_1 
REMARK    2  A    between atoms: C_5  and  O_3 
ROOT
ATOM      1  C   UNL d   1      32.034  17.548 -24.017  0.00  0.00     0.105 A 
ATOM      2  C   UNL d   1      31.989  16.727 -24.013  0.00  0.00     0.030 A 
ATOM      3  C   UNL d   1      32.656  17.936 -23.611  0.00  0.00     0.122 A 
ATOM      4  N   UNL d   1      31.464  17.996 -24.421  0.00  0.00    -0.242 NA
ATOM      5  C   UNL d   1      32.558  16.282 -23.610  0.00  0.00     0.059 A 
ATOM      6  C   UNL d   1      33.220  17.494 -23.211  0.00  0.00     0.027 A 
ATOM      7  C   UNL d   1      33.180  16.670 -23.204  0.00  0.00     0.013 A 
ATOM      8 CL   UNL d   1      32.516  15.453 -23.604  0.00  0.00    -0.082 Cl
ATOM      9  C   UNL d   1      31.376  16.345 -24.413  0.00  0.00     0.004 A 
ATOM     10  C   UNL d   1      30.851  17.615 -24.821  0.00  0.00     0.099 A 
ATOM     11  C   UNL d   1      30.808  16.785 -24.815  0.00  0.00     0.021 A 
ENDROOT
BRANCH   3  12
ATOM     12  O   UNL d   1      32.704  18.769 -23.613  0.00  0.00    -0.257 OA
BRANCH  12  13
ATOM     13  C   UNL d   1      32.851  19.187 -22.905  0.00  0.00     0.378 C 
ATOM     14  N   UNL d   1      33.096  19.967 -22.923  0.00  0.00    -0.249 N 
ATOM     15  C   UNL d   1      33.240  20.375 -22.220  0.00  0.00     0.104 C 
ATOM     16  C   UNL d   1      33.201  20.350 -23.647  0.00  0.00     0.104 C 
ATOM     17  O   UNL d   1      32.745  18.799 -22.171  0.00  0.00    -0.237 OA
ENDBRANCH  12  13
ENDBRANCH   3  12
TORSDOF 2
ENDMDL
MODEL 6
REMARK VINA RESULT:      -2.2      4.892      5.836
REMARK  2 active torsions:
REMARK  status: ('A' for Active; 'I' for Inactive)
REMARK    1  A    between atoms: O_3  and  C_1 
REMARK       I    between atoms: N_6  and  C_1 
REMARK    2  A    between atoms: C_5  and  O_3 
ROOT
ATOM      1  C   UNL d   1      33.215  19.967 -23.315  0.00  0.00     0.105 A 
ATOM      2  C   UNL d   1      33.224  19.155 -23.449  0.00  0.00     0.030 A 
ATOM      3  C   UNL d   1      33.215  20.262 -22.530  0.00  0.00     0.122 A 
ATOM      4  N   UNL d   1      33.207  20.496 -23.954  0.00  0.00    -0.242 NA
ATOM      5  C   UNL d   1      33.231  18.630 -22.811  0.00  0.00     0.059 A 
ATOM      6  C   UNL d   1      33.222  19.740 -21.898  0.00  0.00     0.027 A 
ATOM      7  C   UNL d   1      33.231  18.925 -22.027  0.00  0.00     0.013 A 
ATOM      8 CL   UNL d   1      33.240  17.810 -22.942  0.00  0.00    -0.082 Cl
ATOM      9  C   UNL d   1      33.224  18.864 -24.221  0.00  0.00     0.004 A 
ATOM     10  C   UNL d   1      33.208  20.205 -24.726  0.00  0.00     0.099 A 
ATOM     11  C   UNL d   1      33.216  19.385 -24.859  0.00  0.00     0.021 A 
ENDROOT
BRANCH   3  12
ATOM     12  O   UNL d   1      33.206  21.085 -22.392  0.00  0.00    -0.257 OA
BRANCH  12  13
ATOM     13  C   UNL d   1      32.888  21.393 -21.683  0.00  0.00     0.378 C 
ATOM     14  N   UNL d   1      32.887  22.197 -21.539  0.00  0.00    -0.249 N 
ATOM     15  C   UNL d   1      32.572  22.495 -20.837  0.00  0.00     0.104 C 
ATOM     16  C   UNL d   1      33.203  22.716 -22.099  0.00  0.00     0.104 C 
ATOM     17  O   UNL d   1      32.568  20.866 -21.116  0.00  0.00    -0.237 OA
ENDBRANCH  12  13
ENDBRANCH   3  12
TORSDOF 2
ENDMDL
MODEL 7
REMARK VINA RESULT:      -2.0      4.722      5.524
REMARK  2 active torsions:
REMARK  status: ('A' for Active; 'I' for Inactive)
REMARK    1  A    between atoms: O_3  and  C_1 
REMARK       I    between atoms: N_6  and  C_1 
REMARK    2  A    between atoms: C_5  and  O_3 
ROOT
ATOM      1  C   UNL d   1      33.204  20.725 -22.527  0.00  0.00     0.105 A 
ATOM      2  C   UNL d   1      33.204  21.029 -21.763  0.00  0.00     0.030 A 
ATOM      3  C   UNL d   1      33.223  19.896 -22.649  0.00  0.00     0.122 A 
ATOM      4  N   UNL d   1      33.187  21.237 -23.180  0.00  0.00    -0.242 NA
ATOM      5  C   UNL d   1      33.221  20.517 -21.113  0.00  0.00     0.059 A 
ATOM      6  C   UNL d   1      33.240  19.389 -22.004  0.00  0.00     0.027 A 
ATOM      7  C   UNL d   1      33.239  19.688 -21.235  0.00  0.00     0.013 A 
ATOM      8 CL   UNL d   1      33.221  20.819 -20.340  0.00  0.00    -0.082 Cl
ATOM      9  C   UNL d   1      33.186  21.845 -21.642  0.00  0.00     0.004 A 
ATOM     10  C   UNL d   1      33.169  22.053 -23.060  0.00  0.00     0.099 A 
ATOM     11  C   UNL d   1      33.168  22.357 -22.286  0.00  0.00     0.021 A 
ENDROOT
BRANCH   3  12
ATOM     12  O   UNL d   1      33.223  19.586 -23.424  0.00  0.00    -0.257 OA
BRANCH  12  13
ATOM     13  C   UNL d   1      32.840  18.863 -23.592  0.00  0.00     0.378 C 
ATOM     14  N   UNL d   1      32.834  18.558 -24.350  0.00  0.00    -0.249 N 
ATOM     15  C   UNL d   1      32.454  17.844 -24.510  0.00  0.00     0.104 C 
ATOM     16  C   UNL d   1      33.211  18.966 -24.961  0.00  0.00     0.104 C 
ATOM     17  O   UNL d   1      32.458  18.449 -22.972  0.00  0.00    -0.237 OA
ENDBRANCH  12  13
ENDBRANCH   3  12
TORSDOF 2
ENDMDL
MODEL 8
REMARK VINA RESULT:      -1.9      6.554      7.214
REMARK  2 active torsions:
REMARK  status: ('A' for Active; 'I' for Inactive)
REMARK    1  A    between atoms: O_3  and  C_1 
REMARK       I    between atoms: N_6  and  C_1 
REMARK    2  A    between atoms: C_5  and  O_3 
ROOT
ATOM      1  C   UNL d   1      33.099  21.865 -21.861  0.00  0.00     0.105 A 
ATOM      2  C   UNL d   1      33.009  21.984 -21.052  0.00  0.00     0.030 A 
ATOM      3  C   UNL d   1      33.141  22.522 -22.379  0.00  0.00     0.122 A 
ATOM      4  N   UNL d   1      33.147  21.095 -22.167  0.00  0.00    -0.242 NA
ATOM      5  C   UNL d   1      32.961  22.752 -20.749  0.00  0.00     0.059 A 
ATOM      6  C   UNL d   1      33.093  23.284 -22.078  0.00  0.00     0.027 A 
ATOM      7  C   UNL d   1      33.003  23.409 -21.267  0.00  0.00     0.013 A 
ATOM      8 CL   UNL d   1      32.870  22.876 -19.933  0.00  0.00    -0.082 Cl
ATOM      9  C   UNL d   1      32.967  21.337 -20.541  0.00  0.00     0.004 A 
ATOM     10  C   UNL d   1      33.105  20.448 -21.656  0.00  0.00     0.099 A 
ATOM     11  C   UNL d   1      33.015  20.572 -20.840  0.00  0.00     0.021 A 
ENDROOT
BRANCH   3  12
ATOM     12  O   UNL d   1      33.232  22.404 -23.200  0.00  0.00    -0.257 OA
BRANCH  12  13
ATOM     13  C   UNL d   1      32.945  22.969 -23.745  0.00  0.00     0.378 C 
ATOM     14  N   UNL d   1      32.948  22.816 -24.547  0.00  0.00    -0.249 N 
ATOM     15  C   UNL d   1      32.664  23.377 -25.081  0.00  0.00     0.104 C 
ATOM     16  C   UNL d   1      33.237  22.095 -24.829  0.00  0.00     0.104 C 
ATOM     17  O   UNL d   1      32.653  23.700 -23.460  0.00  0.00    -0.237 OA
ENDBRANCH  12  13
ENDBRANCH   3  12
TORSDOF 2
ENDMDL
