MODEL 1
REMARK VINA RESULT:      -7.3      0.000      0.000
REMARK  6 active torsions:
REMARK  status: ('A' for Active; 'I' for Inactive)
REMARK    1  A    between atoms: C_12  and  C_3 
REMARK    2  A    between atoms: N_16  and  C_4 
REMARK    3  A    between atoms: N_11  and  C_23 
REMARK    4  A    between atoms: C_26  and  N_16 
REMARK    5  A    between atoms: C_23  and  C_24 
REMARK    6  A    between atoms: C_24  and  C_26 
ROOT
ATOM      1  C   UNL d   1      52.508  33.653  53.363  0.00  0.00     0.168 A 
ATOM      2  N   UNL d   1      51.841  33.559  52.843  0.00  0.00    -0.184 N 
ATOM      3  C   UNL d   1      53.046  33.051  53.448  0.00  0.00     0.057 A 
ATOM      4  C   UNL d   1      51.316  34.168  52.771  0.00  0.00     0.218 A 
ATOM      5  N   UNL d   1      52.295  32.249  52.520  0.00  0.00    -0.160 NA
ATOM      6  N   UNL d   1      52.606  34.350  53.777  0.00  0.00    -0.227 NA
ATOM      7  C   UNL d   1      51.406  34.876  53.184  0.00  0.00     0.071 A 
ATOM      8  C   UNL d   1      52.941  32.341  53.024  0.00  0.00     0.124 A 
ATOM      9  C   UNL d   1      52.063  34.969  53.696  0.00  0.00     0.087 A 
ATOM     10  C   UNL d   1      52.166  35.703  54.131  0.00  0.00     0.021 C 
ENDROOT
BRANCH   4  11
ATOM     11  N   UNL d   1      50.641  34.077  52.247  0.00  0.00    -0.380 NA
BRANCH  11  12
ATOM     12  C   UNL d   1      49.976  34.056  51.703  0.00  0.00     0.164 C 
BRANCH  12  13
ATOM     13  C   UNL d   1      49.265  34.477  51.901  0.00  0.00     0.054 C 
BRANCH  13  14
ATOM     14  C   UNL d   1      48.761  34.770  51.276  0.00  0.00     0.084 C 
BRANCH  14  15
ATOM     15  N   UNL d   1      48.041  35.202  51.471  0.00  0.00    -0.285 N 
ATOM     16  C   UNL d   1      47.963  35.824  52.053  0.00  0.00     0.183 A 
ATOM     17  N   UNL d   1      47.152  36.088  52.053  0.00  0.00    -0.222 NA
ATOM     18  C   UNL d   1      46.728  35.626  51.469  0.00  0.00     0.120 A 
ATOM     19  C   UNL d   1      47.273  35.082  51.110  0.00  0.00     0.102 A 
ENDBRANCH  14  15
ENDBRANCH  13  14
ENDBRANCH  12  13
ENDBRANCH  11  12
ENDBRANCH   4  11
BRANCH   3  20
ATOM     20  C   UNL d   1      53.693  33.143  53.952  0.00  0.00     0.005 A 
ATOM     21  C   UNL d   1      54.398  33.424  53.658  0.00  0.00     0.001 A 
ATOM     22  C   UNL d   1      55.045  33.516  54.162  0.00  0.00     0.011 A 
ATOM     23  C   UNL d   1      54.975  33.324  54.952  0.00  0.00     0.058 A 
ATOM     24  C   UNL d   1      54.258  33.041  55.237  0.00  0.00     0.011 A 
ATOM     25 CL   UNL d   1      55.653  33.420  55.480  0.00  0.00    -0.082 Cl
ATOM     26  C   UNL d   1      53.622  32.951  54.741  0.00  0.00     0.001 A 
ENDBRANCH   3  20
TORSDOF 6
ENDMDL
MODEL 2
REMARK VINA RESULT:      -7.3      0.975      1.687
REMARK  6 active torsions:
REMARK  status: ('A' for Active; 'I' for Inactive)
REMARK    1  A    between atoms: C_12  and  C_3 
REMARK    2  A    between atoms: N_16  and  C_4 
REMARK    3  A    between atoms: N_11  and  C_23 
REMARK    4  A    between atoms: C_26  and  N_16 
REMARK    5  A    between atoms: C_23  and  C_24 
REMARK    6  A    between atoms: C_24  and  C_26 
ROOT
ATOM      1  C   UNL d   1      52.406  34.109  53.699  0.00  0.00     0.168 A 
ATOM      2  N   UNL d   1      51.680  34.416  53.380  0.00  0.00    -0.184 N 
ATOM      3  C   UNL d   1      52.882  34.583  54.156  0.00  0.00     0.057 A 
ATOM      4  C   UNL d   1      51.220  33.931  52.927  0.00  0.00     0.218 A 
ATOM      5  N   UNL d   1      51.950  35.668  54.001  0.00  0.00    -0.160 NA
ATOM      6  N   UNL d   1      52.625  33.338  53.546  0.00  0.00    -0.227 NA
ATOM      7  C   UNL d   1      51.431  33.150  52.766  0.00  0.00     0.071 A 
ATOM      8  C   UNL d   1      52.654  35.370  54.311  0.00  0.00     0.124 A 
ATOM      9  C   UNL d   1      52.147  32.849  53.081  0.00  0.00     0.087 A 
ATOM     10  C   UNL d   1      52.376  32.036  52.919  0.00  0.00     0.021 C 
ENDROOT
BRANCH   4  11
ATOM     11  N   UNL d   1      50.485  34.237  52.603  0.00  0.00    -0.380 NA
BRANCH  11  12
ATOM     12  C   UNL d   1      49.761  34.497  52.221  0.00  0.00     0.164 C 
BRANCH  12  13
ATOM     13  C   UNL d   1      49.207  34.970  52.659  0.00  0.00     0.054 C 
BRANCH  13  14
ATOM     14  C   UNL d   1      48.524  35.294  52.262  0.00  0.00     0.084 C 
BRANCH  14  15
ATOM     15  N   UNL d   1      48.001  35.838  52.680  0.00  0.00    -0.285 N 
ATOM     16  C   UNL d   1      48.101  36.126  53.479  0.00  0.00     0.183 A 
ATOM     17  N   UNL d   1      47.451  36.649  53.656  0.00  0.00    -0.222 NA
ATOM     18  C   UNL d   1      46.948  36.685  52.963  0.00  0.00     0.120 A 
ATOM     19  C   UNL d   1      47.286  36.187  52.362  0.00  0.00     0.102 A 
ENDBRANCH  14  15
ENDBRANCH  13  14
ENDBRANCH  12  13
ENDBRANCH  11  12
ENDBRANCH   4  11
BRANCH   3  20
ATOM     20  C   UNL d   1      53.586  34.285  54.466  0.00  0.00     0.005 A 
ATOM     21  C   UNL d   1      54.275  34.343  54.035  0.00  0.00     0.001 A 
ATOM     22  C   UNL d   1      54.979  34.046  54.345  0.00  0.00     0.011 A 
ATOM     23  C   UNL d   1      54.983  33.696  55.081  0.00  0.00     0.058 A 
ATOM     24  C   UNL d   1      54.282  33.644  55.508  0.00  0.00     0.011 A 
ATOM     25 CL   UNL d   1      55.721  33.385  55.406  0.00  0.00    -0.082 Cl
ATOM     26  C   UNL d   1      53.589  33.936  55.202  0.00  0.00     0.001 A 
ENDBRANCH   3  20
TORSDOF 6
ENDMDL
MODEL 3
REMARK VINA RESULT:      -5.6      2.099      3.075
REMARK  6 active torsions:
REMARK  status: ('A' for Active; 'I' for Inactive)
REMARK    1  A    between atoms: C_12  and  C_3 
REMARK    2  A    between atoms: N_16  and  C_4 
REMARK    3  A    between atoms: N_11  and  C_23 
REMARK    4  A    between atoms: C_26  and  N_16 
REMARK    5  A    between atoms: C_23  and  C_24 
REMARK    6  A    between atoms: C_24  and  C_26 
ROOT
ATOM      1  C   UNL d   1      53.160  31.595  53.688  0.00  0.00     0.168 A 
ATOM      2  N   UNL d   1      52.914  32.295  53.270  0.00  0.00    -0.184 N 
ATOM      3  C   UNL d   1      52.977  30.861  53.394  0.00  0.00     0.057 A 
ATOM      4  C   UNL d   1      53.104  33.017  53.577  0.00  0.00     0.218 A 
ATOM      5  N   UNL d   1      52.309  31.474  52.277  0.00  0.00    -0.160 NA
ATOM      6  N   UNL d   1      53.580  31.664  54.385  0.00  0.00    -0.227 NA
ATOM      7  C   UNL d   1      53.527  33.097  54.280  0.00  0.00     0.071 A 
ATOM      8  C   UNL d   1      52.548  30.796  52.682  0.00  0.00     0.124 A 
ATOM      9  C   UNL d   1      53.770  32.408  54.691  0.00  0.00     0.087 A 
ATOM     10  C   UNL d   1      54.212  32.481  55.425  0.00  0.00     0.021 C 
ENDROOT
BRANCH   4  11
ATOM     11  N   UNL d   1      52.857  33.726  53.158  0.00  0.00    -0.380 NA
BRANCH  11  12
ATOM     12  C   UNL d   1      52.550  34.435  52.783  0.00  0.00     0.164 C 
BRANCH  12  13
ATOM     13  C   UNL d   1      51.719  34.604  52.832  0.00  0.00     0.054 C 
BRANCH  13  14
ATOM     14  C   UNL d   1      51.220  34.467  52.152  0.00  0.00     0.084 C 
BRANCH  14  15
ATOM     15  N   UNL d   1      50.367  34.580  52.213  0.00  0.00    -0.285 N 
ATOM     16  C   UNL d   1      49.937  34.829  52.908  0.00  0.00     0.183 A 
ATOM     17  N   UNL d   1      49.108  34.864  52.709  0.00  0.00    -0.222 NA
ATOM     18  C   UNL d   1      49.028  34.636  51.887  0.00  0.00     0.120 A 
ATOM     19  C   UNL d   1      49.801  34.461  51.581  0.00  0.00     0.102 A 
ENDBRANCH  14  15
ENDBRANCH  13  14
ENDBRANCH  12  13
ENDBRANCH  11  12
ENDBRANCH   4  11
BRANCH   3  20
ATOM     20  C   UNL d   1      53.216  30.183  53.799  0.00  0.00     0.005 A 
ATOM     21  C   UNL d   1      53.924  29.827  53.611  0.00  0.00     0.001 A 
ATOM     22  C   UNL d   1      54.163  29.149  54.015  0.00  0.00     0.011 A 
ATOM     23  C   UNL d   1      53.689  28.838  54.601  0.00  0.00     0.058 A 
ATOM     24  C   UNL d   1      52.976  29.205  54.783  0.00  0.00     0.011 A 
ATOM     25 CL   UNL d   1      53.939  28.127  55.026  0.00  0.00    -0.082 Cl
ATOM     26  C   UNL d   1      52.742  29.873  54.384  0.00  0.00     0.001 A 
ENDBRANCH   3  20
TORSDOF 6
ENDMDL
MODEL 4
REMARK VINA RESULT:      -5.1     11.164     12.069
REMARK  6 active torsions:
REMARK  status: ('A' for Active; 'I' for Inactive)
REMARK    1  A    between atoms: C_12  and  C_3 
REMARK    2  A    between atoms: N_16  and  C_4 
REMARK    3  A    between atoms: N_11  and  C_23 
REMARK    4  A    between atoms: C_26  and  N_16 
REMARK    5  A    between atoms: C_23  and  C_24 
REMARK    6  A    between atoms: C_24  and  C_26 
ROOT
ATOM      1  C   UNL d   1      44.742  27.562  58.292  0.00  0.00     0.168 A 
ATOM      2  N   UNL d   1      44.743  26.723  58.150  0.00  0.00    -0.184 N 
ATOM      3  C   UNL d   1      44.877  28.078  57.681  0.00  0.00     0.057 A 
ATOM      4  C   UNL d   1      44.607  26.224  58.770  0.00  0.00     0.218 A 
ATOM      5  N   UNL d   1      45.020  26.969  56.776  0.00  0.00    -0.160 NA
ATOM      6  N   UNL d   1      44.604  27.847  59.045  0.00  0.00    -0.227 NA
ATOM      7  C   UNL d   1      44.466  26.501  59.533  0.00  0.00     0.071 A 
ATOM      8  C   UNL d   1      45.018  27.783  56.914  0.00  0.00     0.124 A 
ATOM      9  C   UNL d   1      44.464  27.327  59.673  0.00  0.00     0.087 A 
ATOM     10  C   UNL d   1      44.319  27.627  60.466  0.00  0.00     0.021 C 
ENDROOT
BRANCH   4  11
ATOM     11  N   UNL d   1      44.608  25.375  58.630  0.00  0.00    -0.380 NA
BRANCH  11  12
ATOM     12  C   UNL d   1      44.591  24.519  58.562  0.00  0.00     0.164 C 
BRANCH  12  13
ATOM     13  C   UNL d   1      44.757  24.160  57.810  0.00  0.00     0.054 C 
BRANCH  13  14
ATOM     14  C   UNL d   1      44.705  23.311  57.729  0.00  0.00     0.084 C 
BRANCH  14  15
ATOM     15  N   UNL d   1      45.008  22.927  57.019  0.00  0.00    -0.285 N 
ATOM     16  C   UNL d   1      44.946  23.219  56.217  0.00  0.00     0.183 A 
ATOM     17  N   UNL d   1      45.323  22.657  55.699  0.00  0.00    -0.222 NA
ATOM     18  C   UNL d   1      45.620  22.015  56.183  0.00  0.00     0.120 A 
ATOM     19  C   UNL d   1      45.426  22.180  56.994  0.00  0.00     0.102 A 
ENDBRANCH  14  15
ENDBRANCH  13  14
ENDBRANCH  12  13
ENDBRANCH  11  12
ENDBRANCH   4  11
BRANCH   3  20
ATOM     20  C   UNL d   1      44.876  28.892  57.819  0.00  0.00     0.005 A 
ATOM     21  C   UNL d   1      44.316  29.362  57.460  0.00  0.00     0.001 A 
ATOM     22  C   UNL d   1      44.314  30.176  57.598  0.00  0.00     0.011 A 
ATOM     23  C   UNL d   1      44.873  30.505  58.092  0.00  0.00     0.058 A 
ATOM     24  C   UNL d   1      45.433  30.020  58.449  0.00  0.00     0.011 A 
ATOM     25 CL   UNL d   1      44.871  31.358  58.237  0.00  0.00    -0.082 Cl
ATOM     26  C   UNL d   1      45.434  29.220  58.314  0.00  0.00     0.001 A 
ENDBRANCH   3  20
TORSDOF 6
ENDMDL
MODEL 5
REMARK VINA RESULT:      -4.9      1.607      2.047
REMARK  6 active torsions:
REMARK  status: ('A' for Active; 'I' for Inactive)
REMARK    1  A    between atoms: C_12  and  C_3 
REMARK    2  A    between atoms: N_16  and  C_4 
REMARK    3  A    between atoms: N_11  and  C_23 
REMARK    4  A    between atoms: C_26  and  N_16 
REMARK    5  A    between atoms: C_23  and  C_24 
REMARK    6  A    between atoms: C_24  and  C_26 
ROOT
ATOM      1  C   UNL d   1      51.660  33.337  53.172  0.00  0.00     0.168 A 
ATOM      2  N   UNL d   1      50.883  33.670  53.073  0.00  0.00    -0.184 N 
ATOM      3  C   UNL d   1      51.748  32.538  53.287  0.00  0.00     0.057 A 
ATOM      4  C   UNL d   1      50.814  34.466  52.960  0.00  0.00     0.218 A 
ATOM      5  N   UNL d   1      50.322  32.370  53.211  0.00  0.00    -0.160 NA
ATOM      6  N   UNL d   1      52.316  33.822  53.151  0.00  0.00    -0.227 NA
ATOM      7  C   UNL d   1      51.470  34.965  52.937  0.00  0.00     0.071 A 
ATOM      8  C   UNL d   1      51.075  32.047  53.308  0.00  0.00     0.124 A 
ATOM      9  C   UNL d   1      52.235  34.637  53.035  0.00  0.00     0.087 A 
ATOM     10  C   UNL d   1      52.926  35.148  53.013  0.00  0.00     0.021 C 
ENDROOT
BRANCH   4  11
ATOM     11  N   UNL d   1      50.031  34.807  52.859  0.00  0.00    -0.380 NA
BRANCH  11  12
ATOM     12  C   UNL d   1      49.267  35.162  52.689  0.00  0.00     0.164 C 
BRANCH  12  13
ATOM     13  C   UNL d   1      48.800  35.467  53.329  0.00  0.00     0.054 C 
BRANCH  13  14
ATOM     14  C   UNL d   1      48.062  35.864  53.160  0.00  0.00     0.084 C 
BRANCH  14  15
ATOM     15  N   UNL d   1      47.565  36.144  53.807  0.00  0.00    -0.285 N 
ATOM     16  C   UNL d   1      47.832  36.533  54.521  0.00  0.00     0.183 A 
ATOM     17  N   UNL d   1      47.148  36.709  54.999  0.00  0.00    -0.222 NA
ATOM     18  C   UNL d   1      46.457  36.427  54.578  0.00  0.00     0.120 A 
ATOM     19  C   UNL d   1      46.712  36.080  53.846  0.00  0.00     0.102 A 
ENDBRANCH  14  15
ENDBRANCH  13  14
ENDBRANCH  12  13
ENDBRANCH  11  12
ENDBRANCH   4  11
BRANCH   3  20
ATOM     20  C   UNL d   1      52.501  32.215  53.383  0.00  0.00     0.005 A 
ATOM     21  C   UNL d   1      52.923  32.367  54.064  0.00  0.00     0.001 A 
ATOM     22  C   UNL d   1      53.676  32.044  54.160  0.00  0.00     0.011 A 
ATOM     23  C   UNL d   1      53.994  31.575  53.574  0.00  0.00     0.058 A 
ATOM     24  C   UNL d   1      53.560  31.429  52.892  0.00  0.00     0.011 A 
ATOM     25 CL   UNL d   1      54.784  31.236  53.674  0.00  0.00    -0.082 Cl
ATOM     26  C   UNL d   1      52.819  31.747  52.797  0.00  0.00     0.001 A 
ENDBRANCH   3  20
TORSDOF 6
ENDMDL
MODEL 6
REMARK VINA RESULT:      -4.7      2.397      5.468
REMARK  6 active torsions:
REMARK  status: ('A' for Active; 'I' for Inactive)
REMARK    1  A    between atoms: C_12  and  C_3 
REMARK    2  A    between atoms: N_16  and  C_4 
REMARK    3  A    between atoms: N_11  and  C_23 
REMARK    4  A    between atoms: C_26  and  N_16 
REMARK    5  A    between atoms: C_23  and  C_24 
REMARK    6  A    between atoms: C_24  and  C_26 
ROOT
ATOM      1  C   UNL d   1      51.499  33.848  53.235  0.00  0.00     0.168 A 
ATOM      2  N   UNL d   1      52.078  33.232  53.327  0.00  0.00    -0.184 N 
ATOM      3  C   UNL d   1      50.730  33.660  53.054  0.00  0.00     0.057 A 
ATOM      4  C   UNL d   1      52.838  33.438  53.508  0.00  0.00     0.218 A 
ATOM      5  N   UNL d   1      51.074  32.263  53.047  0.00  0.00    -0.160 NA
ATOM      6  N   UNL d   1      51.716  34.629  53.330  0.00  0.00    -0.227 NA
ATOM      7  C   UNL d   1      53.068  34.223  53.606  0.00  0.00     0.071 A 
ATOM      8  C   UNL d   1      50.512  32.861  52.958  0.00  0.00     0.124 A 
ATOM      9  C   UNL d   1      52.497  34.830  53.515  0.00  0.00     0.087 A 
ATOM     10  C   UNL d   1      52.727  35.652  53.615  0.00  0.00     0.021 C 
ENDROOT
BRANCH   4  11
ATOM     11  N   UNL d   1      53.427  32.818  53.602  0.00  0.00    -0.380 NA
BRANCH  11  12
ATOM     12  C   UNL d   1      54.041  32.219  53.629  0.00  0.00     0.164 C 
BRANCH  12  13
ATOM     13  C   UNL d   1      53.876  31.471  53.997  0.00  0.00     0.054 C 
BRANCH  13  14
ATOM     14  C   UNL d   1      54.018  30.748  53.565  0.00  0.00     0.084 C 
BRANCH  14  15
ATOM     15  N   UNL d   1      53.592  30.029  53.775  0.00  0.00    -0.285 N 
ATOM     16  C   UNL d   1      52.977  29.651  53.317  0.00  0.00     0.183 A 
ATOM     17  N   UNL d   1      52.717  28.957  53.741  0.00  0.00    -0.222 NA
ATOM     18  C   UNL d   1      53.175  28.908  54.464  0.00  0.00     0.120 A 
ATOM     19  C   UNL d   1      53.712  29.566  54.486  0.00  0.00     0.102 A 
ENDBRANCH  14  15
ENDBRANCH  13  14
ENDBRANCH  12  13
ENDBRANCH  11  12
ENDBRANCH   4  11
BRANCH   3  20
ATOM     20  C   UNL d   1      50.168  34.258  52.965  0.00  0.00     0.005 A 
ATOM     21  C   UNL d   1      49.864  34.629  53.623  0.00  0.00     0.001 A 
ATOM     22  C   UNL d   1      49.302  35.226  53.534  0.00  0.00     0.011 A 
ATOM     23  C   UNL d   1      49.054  35.442  52.788  0.00  0.00     0.058 A 
ATOM     24  C   UNL d   1      49.367  35.061  52.131  0.00  0.00     0.011 A 
ATOM     25 CL   UNL d   1      48.464  36.068  52.695  0.00  0.00    -0.082 Cl
ATOM     26  C   UNL d   1      49.920  34.473  52.219  0.00  0.00     0.001 A 
ENDBRANCH   3  20
TORSDOF 6
ENDMDL
MODEL 7
REMARK VINA RESULT:      -4.6      2.586      5.173
REMARK  6 active torsions:
REMARK  status: ('A' for Active; 'I' for Inactive)
REMARK    1  A    between atoms: C_12  and  C_3 
REMARK    2  A    between atoms: N_16  and  C_4 
REMARK    3  A    between atoms: N_11  and  C_23 
REMARK    4  A    between atoms: C_26  and  N_16 
REMARK    5  A    between atoms: C_23  and  C_24 
REMARK    6  A    between atoms: C_24  and  C_26 
ROOT
ATOM      1  C   UNL d   1      53.005  33.170  53.651  0.00  0.00     0.168 A 
ATOM      2  N   UNL d   1      53.161  32.374  53.396  0.00  0.00    -0.184 N 
ATOM      3  C   UNL d   1      53.582  33.597  54.030  0.00  0.00     0.057 A 
ATOM      4  C   UNL d   1      52.575  31.965  53.020  0.00  0.00     0.218 A 
ATOM      5  N   UNL d   1      54.480  32.478  53.920  0.00  0.00    -0.160 NA
ATOM      6  N   UNL d   1      52.273  33.505  53.515  0.00  0.00    -0.227 NA
ATOM      7  C   UNL d   1      51.833  32.293  52.877  0.00  0.00     0.071 A 
ATOM      8  C   UNL d   1      54.329  33.250  54.168  0.00  0.00     0.124 A 
ATOM      9  C   UNL d   1      51.679  33.078  53.129  0.00  0.00     0.087 A 
ATOM     10  C   UNL d   1      50.908  33.430  52.985  0.00  0.00     0.021 C 
ENDROOT
BRANCH   4  11
ATOM     11  N   UNL d   1      52.729  31.160  52.760  0.00  0.00    -0.380 NA
BRANCH  11  12
ATOM     12  C   UNL d   1      52.862  30.333  52.568  0.00  0.00     0.164 C 
BRANCH  12  13
ATOM     13  C   UNL d   1      53.286  29.842  53.117  0.00  0.00     0.054 C 
BRANCH  13  14
ATOM     14  C   UNL d   1      52.888  29.184  53.488  0.00  0.00     0.084 C 
BRANCH  14  15
ATOM     15  N   UNL d   1      53.150  28.902  54.260  0.00  0.00    -0.285 N 
ATOM     16  C   UNL d   1      53.654  28.227  54.409  0.00  0.00     0.183 A 
ATOM     17  N   UNL d   1      53.764  28.159  55.252  0.00  0.00    -0.222 NA
ATOM     18  C   UNL d   1      53.325  28.795  55.624  0.00  0.00     0.120 A 
ATOM     19  C   UNL d   1      52.948  29.252  55.015  0.00  0.00     0.102 A 
ENDBRANCH  14  15
ENDBRANCH  13  14
ENDBRANCH  12  13
ENDBRANCH  11  12
ENDBRANCH   4  11
BRANCH   3  20
ATOM     20  C   UNL d   1      53.430  34.369  54.278  0.00  0.00     0.005 A 
ATOM     21  C   UNL d   1      53.474  34.982  53.743  0.00  0.00     0.001 A 
ATOM     22  C   UNL d   1      53.322  35.754  53.991  0.00  0.00     0.011 A 
ATOM     23  C   UNL d   1      53.130  35.900  54.770  0.00  0.00     0.058 A 
ATOM     24  C   UNL d   1      53.089  35.274  55.301  0.00  0.00     0.011 A 
ATOM     25 CL   UNL d   1      52.971  36.709  55.030  0.00  0.00    -0.082 Cl
ATOM     26  C   UNL d   1      53.239  34.514  55.057  0.00  0.00     0.001 A 
ENDBRANCH   3  20
TORSDOF 6
ENDMDL
