MODEL 1
REMARK VINA RESULT:      61.1      0.000      0.000
REMARK  2 active torsions:
REMARK  status: ('A' for Active; 'I' for Inactive)
REMARK    1  A    between atoms: N_5  and  C_1 
REMARK       I    between atoms: C_7  and  N_5 
REMARK    2  A    between atoms: C_11  and  C_7 
ROOT
ATOM      1  C   UNL d   1     -58.344 -98.778 -44.911  0.00  0.00     0.124 A 
ATOM      2  C   UNL d   1     -57.656 -98.808 -44.513  0.00  0.00     0.093 A 
ATOM      3  S   UNL d   1     -58.969 -98.757 -44.375  0.00  0.00    -0.067 SA
ATOM      4  C   UNL d   1     -57.813 -98.807 -43.709  0.00  0.00     0.018 A 
ATOM      5  C   UNL d   1     -58.656 -98.775 -43.620  0.00  0.00     0.032 A 
ATOM      6  C   UNL d   1     -56.870 -98.836 -44.867  0.00  0.00     0.103 C 
ATOM      7  N   UNL d   1     -56.114 -98.863 -45.187  0.00  0.00    -0.191 NA
ATOM      8  C   UNL d   1     -57.332 -98.831 -43.048  0.00  0.00     0.001 A 
ATOM      9  C   UNL d   1     -58.983 -98.767 -42.875  0.00  0.00     0.006 A 
ATOM     10  C   UNL d   1     -57.700 -98.822 -42.292  0.00  0.00     0.000 A 
ATOM     11  C   UNL d   1     -58.466 -98.792 -42.211  0.00  0.00     0.001 A 
ENDROOT
BRANCH   1  12
ATOM     12  N   UNL d   1     -58.432 -98.769 -45.754  0.00  0.00    -0.201 NA
ATOM     13  C   UNL d   1     -59.083 -99.135 -46.109  0.00  0.00     0.280 C 
ATOM     14  O   UNL d   1     -59.677 -99.528 -45.632  0.00  0.00    -0.265 OA
BRANCH  13  15
ATOM     15  C   UNL d   1     -59.168 -99.126 -46.917  0.00  0.00     0.058 A 
ATOM     16  C   UNL d   1     -59.865 -98.765 -47.245  0.00  0.00     0.005 A 
ATOM     17  C   UNL d   1     -59.953 -98.756 -48.088  0.00  0.00     0.000 A 
ATOM     18  C   UNL d   1     -59.340 -99.107 -48.562  0.00  0.00     0.000 A 
ATOM     19  C   UNL d   1     -58.674 -99.451 -48.230  0.00  0.00     0.000 A 
ATOM     20  C   UNL d   1     -58.589 -99.460 -47.422  0.00  0.00     0.005 A 
ENDBRANCH  13  15
ENDBRANCH   1  12
TORSDOF 2
ENDMDL
