MODEL 1
REMARK VINA RESULT:      -5.4      0.000      0.000
REMARK  4 active torsions:
REMARK  status: ('A' for Active; 'I' for Inactive)
REMARK    1  A    between atoms: N_2  and  S_1 
REMARK    2  A    between atoms: C_4  and  S_1 
REMARK    3  A    between atoms: O_16  and  C_13 
REMARK    4  A    between atoms: C_19  and  O_16 
ROOT
ATOM      1  S   UNL d   1      57.369  -0.076  31.246  0.00  0.00     0.271 S 
ATOM      2  O   UNL d   1      56.992  -0.747  30.946  0.00  0.00    -0.200 OA
ATOM      3  O   UNL d   1      57.750   0.598  31.547  0.00  0.00    -0.200 OA
ENDROOT
BRANCH   1   4
ATOM      4  N   UNL d   1      57.907  -0.097  30.613  0.00  0.00    -0.229 N 
ATOM      5  C   UNL d   1      58.194  -0.818  30.340  0.00  0.00     0.092 A 
ATOM      6  C   UNL d   1      58.728  -0.835  29.712  0.00  0.00     0.018 A 
ATOM      7  C   UNL d   1      59.017  -1.558  29.436  0.00  0.00     0.002 A 
ATOM      8  C   UNL d   1      58.973  -0.131  29.359  0.00  0.00     0.003 A 
ATOM      9  C   UNL d   1      59.551  -1.575  28.808  0.00  0.00     0.000 A 
ATOM     10  C   UNL d   1      59.796  -0.871  28.455  0.00  0.00     0.000 A 
ATOM     11  C   UNL d   1      59.508  -0.149  28.729  0.00  0.00     0.000 A 
ATOM     12  C   UNL d   1      58.685   0.591  29.633  0.00  0.00     0.020 A 
ATOM     13  C   UNL d   1      58.152   0.607  30.260  0.00  0.00     0.092 A 
ENDBRANCH   1   4
BRANCH   1  14
ATOM     14  C   UNL d   1      56.834  -0.058  31.871  0.00  0.00     0.104 A 
ATOM     15  C   UNL d   1      56.528   0.664  32.134  0.00  0.00     0.015 A 
ATOM     16  C   UNL d   1      55.993   0.682  32.759  0.00  0.00     0.025 A 
ATOM     17  C   UNL d   1      55.762  -0.020  33.126  0.00  0.00     0.100 A 
ATOM     18  C   UNL d   1      56.067  -0.740  32.866  0.00  0.00     0.025 A 
ATOM     19  C   UNL d   1      56.604  -0.760  32.238  0.00  0.00     0.015 A 
BRANCH  17  20
ATOM     20  O   UNL d   1      55.228  -0.003  33.751  0.00  0.00    -0.305 OA
BRANCH  20  21
ATOM     21  C   UNL d   1      55.237   0.626  34.285  0.00  0.00     0.123 C 
ATOM     22  C   UNL d   1      54.740   0.618  34.942  0.00  0.00     0.029 C 
ENDBRANCH  20  21
ENDBRANCH  17  20
ENDBRANCH   1  14
TORSDOF 4
ENDMDL
MODEL 2
REMARK VINA RESULT:      -4.8      1.061      4.908
REMARK  4 active torsions:
REMARK  status: ('A' for Active; 'I' for Inactive)
REMARK    1  A    between atoms: N_2  and  S_1 
REMARK    2  A    between atoms: C_4  and  S_1 
REMARK    3  A    between atoms: O_16  and  C_13 
REMARK    4  A    between atoms: C_19  and  O_16 
ROOT
ATOM      1  S   UNL d   1      57.082  -0.007  32.011  0.00  0.00     0.271 S 
ATOM      2  O   UNL d   1      56.604  -0.675  31.922  0.00  0.00    -0.200 OA
ATOM      3  O   UNL d   1      57.562   0.665  32.102  0.00  0.00    -0.200 OA
ENDROOT
BRANCH   1   4
ATOM      4  N   UNL d   1      56.705   0.166  32.730  0.00  0.00    -0.229 N 
ATOM      5  C   UNL d   1      55.883   0.166  32.775  0.00  0.00     0.092 A 
ATOM      6  C   UNL d   1      55.512   0.338  33.491  0.00  0.00     0.018 A 
ATOM      7  C   UNL d   1      54.686   0.338  33.538  0.00  0.00     0.002 A 
ATOM      8  C   UNL d   1      55.963   0.510  34.160  0.00  0.00     0.003 A 
ATOM      9  C   UNL d   1      54.315   0.509  34.253  0.00  0.00     0.000 A 
ATOM     10  C   UNL d   1      54.766   0.682  34.922  0.00  0.00     0.000 A 
ATOM     11  C   UNL d   1      55.589   0.682  34.877  0.00  0.00     0.000 A 
ATOM     12  C   UNL d   1      56.785   0.510  34.114  0.00  0.00     0.020 A 
ATOM     13  C   UNL d   1      57.156   0.338  33.399  0.00  0.00     0.092 A 
ENDBRANCH   1   4
BRANCH   1  14
ATOM     14  C   UNL d   1      57.454  -0.181  31.298  0.00  0.00     0.104 A 
ATOM     15  C   UNL d   1      57.765   0.428  30.833  0.00  0.00     0.015 A 
ATOM     16  C   UNL d   1      58.138   0.254  30.120  0.00  0.00     0.025 A 
ATOM     17  C   UNL d   1      58.201  -0.528  29.867  0.00  0.00     0.100 A 
ATOM     18  C   UNL d   1      57.892  -1.136  30.329  0.00  0.00     0.025 A 
ATOM     19  C   UNL d   1      57.518  -0.964  31.046  0.00  0.00     0.015 A 
BRANCH  17  20
ATOM     20  O   UNL d   1      58.573  -0.702  29.155  0.00  0.00    -0.305 OA
BRANCH  20  21
ATOM     21  C   UNL d   1      59.389  -0.821  29.132  0.00  0.00     0.123 C 
ATOM     22  C   UNL d   1      59.715  -1.354  28.595  0.00  0.00     0.029 C 
ENDBRANCH  20  21
ENDBRANCH  17  20
ENDBRANCH   1  14
TORSDOF 4
ENDMDL
