MODEL 1
REMARK VINA RESULT:      -7.2      0.000      0.000
REMARK  3 active torsions:
REMARK  status: ('A' for Active; 'I' for Inactive)
REMARK    1  A    between atoms: CB_6  and  CG_1 
REMARK    2  A    between atoms: C_5  and  CA_8 
REMARK    3  A    between atoms: CA_8  and  CB_6 
ROOT
ATOM      1  CG  TRP d   1     -48.246  12.310  23.323  0.00  0.00     0.022 A 
ATOM      2  NE1 TRP d   1     -48.942  11.241  23.698  0.00  0.00    -0.244 NA
ATOM      3  CD1 TRP d   1     -48.187  11.567  23.644  0.00  0.00     0.099 A 
ATOM      4  CD2 TRP d   1     -49.048  12.459  23.169  0.00  0.00     0.019 A 
ATOM      5  CE2 TRP d   1     -49.476  11.796  23.402  0.00  0.00     0.081 A 
ATOM      6  CE3 TRP d   1     -49.441  13.114  22.848  0.00  0.00     0.002 A 
ATOM      7  CZ2 TRP d   1     -50.297  11.783  23.316  0.00  0.00     0.019 A 
ATOM      8  CZ3 TRP d   1     -50.258  13.101  22.761  0.00  0.00     0.000 A 
ATOM      9  CH2 TRP d   1     -50.689  12.438  22.994  0.00  0.00     0.002 A 
ENDROOT
BRANCH   1  10
ATOM     10  CB  TRP d   1     -47.609  12.817  23.179  0.00  0.00     0.029 C 
BRANCH  10  11
ATOM     11  CA  TRP d   1     -46.849  12.575  23.356  0.00  0.00     0.167 C 
ATOM     12  N   TRP d   1     -46.722  11.834  23.697  0.00  0.00    -0.142 N 
BRANCH  11  13
ATOM     13  C   TRP d   1     -46.215  13.071  23.192  0.00  0.00     0.231 C 
ATOM     14  O   TRP d   1     -46.041  13.693  23.690  0.00  0.00    -0.643 OA
ATOM     15  OXT TRP d   1     -45.754  12.935  22.522  0.00  0.00    -0.643 OA
ENDBRANCH  11  13
ENDBRANCH  10  11
ENDBRANCH   1  10
TORSDOF 3
ENDMDL
MODEL 2
REMARK VINA RESULT:      -7.1      1.778      2.010
REMARK  3 active torsions:
REMARK  status: ('A' for Active; 'I' for Inactive)
REMARK    1  A    between atoms: CB_6  and  CG_1 
REMARK    2  A    between atoms: C_5  and  CA_8 
REMARK    3  A    between atoms: CA_8  and  CB_6 
ROOT
ATOM      1  CG  TRP d   1     -48.168  13.749  22.358  0.00  0.00     0.022 A 
ATOM      2  NE1 TRP d   1     -49.082  14.715  22.351  0.00  0.00    -0.244 NA
ATOM      3  CD1 TRP d   1     -48.299  14.531  22.531  0.00  0.00     0.099 A 
ATOM      4  CD2 TRP d   1     -48.876  13.430  22.065  0.00  0.00     0.019 A 
ATOM      5  CE2 TRP d   1     -49.440  14.029  22.062  0.00  0.00     0.081 A 
ATOM      6  CE3 TRP d   1     -49.077  12.671  21.801  0.00  0.00     0.002 A 
ATOM      7  CZ2 TRP d   1     -50.205  13.875  21.796  0.00  0.00     0.019 A 
ATOM      8  CZ3 TRP d   1     -49.840  12.516  21.537  0.00  0.00     0.000 A 
ATOM      9  CH2 TRP d   1     -50.406  13.116  21.533  0.00  0.00     0.002 A 
ENDROOT
BRANCH   1  10
ATOM     10  CB  TRP d   1     -47.449  13.354  22.462  0.00  0.00     0.029 C 
BRANCH  10  11
ATOM     11  CA  TRP d   1     -46.799  13.761  22.740  0.00  0.00     0.167 C 
ATOM     12  N   TRP d   1     -46.819  14.584  22.792  0.00  0.00    -0.142 N 
BRANCH  11  13
ATOM     13  C   TRP d   1     -46.125  13.348  22.967  0.00  0.00     0.231 C 
ATOM     14  O   TRP d   1     -46.092  12.987  23.698  0.00  0.00    -0.643 OA
ATOM     15  OXT TRP d   1     -45.484  13.302  22.452  0.00  0.00    -0.643 OA
ENDBRANCH  11  13
ENDBRANCH  10  11
ENDBRANCH   1  10
TORSDOF 3
ENDMDL
MODEL 3
REMARK VINA RESULT:      -7.0      2.201      3.206
REMARK  3 active torsions:
REMARK  status: ('A' for Active; 'I' for Inactive)
REMARK    1  A    between atoms: CB_6  and  CG_1 
REMARK    2  A    between atoms: C_5  and  CA_8 
REMARK    3  A    between atoms: CA_8  and  CB_6 
ROOT
ATOM      1  CG  TRP d   1     -47.787  13.635  22.959  0.00  0.00     0.022 A 
ATOM      2  NE1 TRP d   1     -46.479  13.541  23.177  0.00  0.00    -0.244 NA
ATOM      3  CD1 TRP d   1     -47.088  14.047  22.946  0.00  0.00     0.099 A 
ATOM      4  CD2 TRP d   1     -47.623  12.858  23.201  0.00  0.00     0.019 A 
ATOM      5  CE2 TRP d   1     -46.813  12.803  23.335  0.00  0.00     0.081 A 
ATOM      6  CE3 TRP d   1     -48.108  12.197  23.315  0.00  0.00     0.002 A 
ATOM      7  CZ2 TRP d   1     -46.484  12.088  23.584  0.00  0.00     0.019 A 
ATOM      8  CZ3 TRP d   1     -47.780  11.484  23.563  0.00  0.00     0.000 A 
ATOM      9  CH2 TRP d   1     -46.969  11.427  23.698  0.00  0.00     0.002 A 
ENDROOT
BRANCH   1  10
ATOM     10  CB  TRP d   1     -48.527  13.950  22.762  0.00  0.00     0.029 C 
BRANCH  10  11
ATOM     11  CA  TRP d   1     -48.616  14.757  22.683  0.00  0.00     0.167 C 
ATOM     12  N   TRP d   1     -47.966  15.227  22.488  0.00  0.00    -0.142 N 
BRANCH  11  13
ATOM     13  C   TRP d   1     -49.355  15.099  22.800  0.00  0.00     0.231 C 
ATOM     14  O   TRP d   1     -49.934  15.030  22.229  0.00  0.00    -0.643 OA
ATOM     15  OXT TRP d   1     -49.506  15.512  23.497  0.00  0.00    -0.643 OA
ENDBRANCH  11  13
ENDBRANCH  10  11
ENDBRANCH   1  10
TORSDOF 3
ENDMDL
MODEL 4
REMARK VINA RESULT:      -7.0      2.154      3.477
REMARK  3 active torsions:
REMARK  status: ('A' for Active; 'I' for Inactive)
REMARK    1  A    between atoms: CB_6  and  CG_1 
REMARK    2  A    between atoms: C_5  and  CA_8 
REMARK    3  A    between atoms: CA_8  and  CB_6 
ROOT
ATOM      1  CG  TRP d   1     -48.520  13.020  22.998  0.00  0.00     0.022 A 
ATOM      2  NE1 TRP d   1     -48.375  14.329  22.813  0.00  0.00    -0.244 NA
ATOM      3  CD1 TRP d   1     -48.922  13.720  22.911  0.00  0.00     0.099 A 
ATOM      4  CD2 TRP d   1     -47.707  13.185  22.956  0.00  0.00     0.019 A 
ATOM      5  CE2 TRP d   1     -47.621  13.995  22.842  0.00  0.00     0.081 A 
ATOM      6  CE3 TRP d   1     -47.038  12.700  23.008  0.00  0.00     0.002 A 
ATOM      7  CZ2 TRP d   1     -46.867  14.325  22.778  0.00  0.00     0.019 A 
ATOM      8  CZ3 TRP d   1     -46.287  13.028  22.945  0.00  0.00     0.000 A 
ATOM      9  CH2 TRP d   1     -46.198  13.839  22.830  0.00  0.00     0.002 A 
ENDROOT
BRANCH   1  10
ATOM     10  CB  TRP d   1     -48.873  12.280  23.109  0.00  0.00     0.029 C 
BRANCH  10  11
ATOM     11  CA  TRP d   1     -49.653  12.167  22.897  0.00  0.00     0.167 C 
ATOM     12  N   TRP d   1     -49.938  12.486  22.191  0.00  0.00    -0.142 N 
BRANCH  11  13
ATOM     13  C   TRP d   1     -50.151  11.736  23.389  0.00  0.00     0.231 C 
ATOM     14  O   TRP d   1     -49.906  11.023  23.698  0.00  0.00    -0.643 OA
ATOM     15  OXT TRP d   1     -50.900  12.030  23.567  0.00  0.00    -0.643 OA
ENDBRANCH  11  13
ENDBRANCH  10  11
ENDBRANCH   1  10
TORSDOF 3
ENDMDL
MODEL 5
REMARK VINA RESULT:      -6.8      1.721      2.068
REMARK  3 active torsions:
REMARK  status: ('A' for Active; 'I' for Inactive)
REMARK    1  A    between atoms: CB_6  and  CG_1 
REMARK    2  A    between atoms: C_5  and  CA_8 
REMARK    3  A    between atoms: CA_8  and  CB_6 
ROOT
ATOM      1  CG  TRP d   1     -48.242  13.867  22.321  0.00  0.00     0.022 A 
ATOM      2  NE1 TRP d   1     -49.328  13.395  21.717  0.00  0.00    -0.244 NA
ATOM      3  CD1 TRP d   1     -48.524  13.272  21.847  0.00  0.00     0.099 A 
ATOM      4  CD2 TRP d   1     -48.874  14.377  22.496  0.00  0.00     0.019 A 
ATOM      5  CE2 TRP d   1     -49.545  14.082  22.121  0.00  0.00     0.081 A 
ATOM      6  CE3 TRP d   1     -48.923  15.069  22.947  0.00  0.00     0.002 A 
ATOM      7  CZ2 TRP d   1     -50.266  14.476  22.195  0.00  0.00     0.019 A 
ATOM      8  CZ3 TRP d   1     -49.641  15.462  23.022  0.00  0.00     0.000 A 
ATOM      9  CH2 TRP d   1     -50.314  15.168  22.647  0.00  0.00     0.002 A 
ENDROOT
BRANCH   1  10
ATOM     10  CB  TRP d   1     -47.459  13.940  22.576  0.00  0.00     0.029 C 
BRANCH  10  11
ATOM     11  CA  TRP d   1     -46.984  13.278  22.623  0.00  0.00     0.167 C 
ATOM     12  N   TRP d   1     -47.253  12.556  22.327  0.00  0.00    -0.142 N 
BRANCH  11  13
ATOM     13  C   TRP d   1     -46.239  13.333  22.966  0.00  0.00     0.231 C 
ATOM     14  O   TRP d   1     -45.641  13.736  22.585  0.00  0.00    -0.643 OA
ATOM     15  OXT TRP d   1     -46.101  12.980  23.698  0.00  0.00    -0.643 OA
ENDBRANCH  11  13
ENDBRANCH  10  11
ENDBRANCH   1  10
TORSDOF 3
ENDMDL
MODEL 6
REMARK VINA RESULT:      -6.6      1.919      3.268
REMARK  3 active torsions:
REMARK  status: ('A' for Active; 'I' for Inactive)
REMARK    1  A    between atoms: CB_6  and  CG_1 
REMARK    2  A    between atoms: C_5  and  CA_8 
REMARK    3  A    between atoms: CA_8  and  CB_6 
ROOT
ATOM      1  CG  TRP d   1     -48.335  12.515  23.346  0.00  0.00     0.022 A 
ATOM      2  NE1 TRP d   1     -47.238  11.799  23.570  0.00  0.00    -0.244 NA
ATOM      3  CD1 TRP d   1     -48.062  11.788  23.581  0.00  0.00     0.099 A 
ATOM      4  CD2 TRP d   1     -47.678  12.996  23.183  0.00  0.00     0.019 A 
ATOM      5  CE2 TRP d   1     -47.000  12.550  23.322  0.00  0.00     0.081 A 
ATOM      6  CE3 TRP d   1     -47.612  13.780  22.926  0.00  0.00     0.002 A 
ATOM      7  CZ2 TRP d   1     -46.255  12.885  23.206  0.00  0.00     0.019 A 
ATOM      8  CZ3 TRP d   1     -46.870  14.114  22.810  0.00  0.00     0.000 A 
ATOM      9  CH2 TRP d   1     -46.190  13.669  22.950  0.00  0.00     0.002 A 
ENDROOT
BRANCH   1  10
ATOM     10  CB  TRP d   1     -49.133  12.725  23.284  0.00  0.00     0.029 C 
BRANCH  10  11
ATOM     11  CA  TRP d   1     -49.710  12.153  23.359  0.00  0.00     0.167 C 
ATOM     12  N   TRP d   1     -49.525  11.423  23.698  0.00  0.00    -0.142 N 
BRANCH  11  13
ATOM     13  C   TRP d   1     -50.474  12.307  23.097  0.00  0.00     0.231 C 
ATOM     14  O   TRP d   1     -50.675  12.172  22.318  0.00  0.00    -0.643 OA
ATOM     15  OXT TRP d   1     -51.034  12.598  23.626  0.00  0.00    -0.643 OA
ENDBRANCH  11  13
ENDBRANCH  10  11
ENDBRANCH   1  10
TORSDOF 3
ENDMDL
MODEL 7
REMARK VINA RESULT:      -5.4      8.960      9.662
REMARK  3 active torsions:
REMARK  status: ('A' for Active; 'I' for Inactive)
REMARK    1  A    between atoms: CB_6  and  CG_1 
REMARK    2  A    between atoms: C_5  and  CA_8 
REMARK    3  A    between atoms: CA_8  and  CB_6 
ROOT
ATOM      1  CG  TRP d   1     -40.269  14.940  19.084  0.00  0.00     0.022 A 
ATOM      2  NE1 TRP d   1     -39.345  14.405  19.876  0.00  0.00    -0.244 NA
ATOM      3  CD1 TRP d   1     -39.628  14.442  19.103  0.00  0.00     0.099 A 
ATOM      4  CD2 TRP d   1     -40.396  15.223  19.854  0.00  0.00     0.019 A 
ATOM      5  CE2 TRP d   1     -39.823  14.890  20.342  0.00  0.00     0.081 A 
ATOM      6  CE3 TRP d   1     -40.960  15.740  20.171  0.00  0.00     0.002 A 
ATOM      7  CZ2 TRP d   1     -39.810  15.072  21.147  0.00  0.00     0.019 A 
ATOM      8  CZ3 TRP d   1     -40.948  15.922  20.972  0.00  0.00     0.000 A 
ATOM      9  CH2 TRP d   1     -40.374  15.590  21.463  0.00  0.00     0.002 A 
ENDROOT
BRANCH   1  10
ATOM     10  CB  TRP d   1     -40.708  15.123  18.407  0.00  0.00     0.029 C 
BRANCH  10  11
ATOM     11  CA  TRP d   1     -40.497  14.800  17.688  0.00  0.00     0.167 C 
ATOM     12  N   TRP d   1     -40.113  14.070  17.660  0.00  0.00    -0.142 N 
BRANCH  11  13
ATOM     13  C   TRP d   1     -40.668  15.206  16.993  0.00  0.00     0.231 C 
ATOM     14  O   TRP d   1     -40.074  15.581  16.580  0.00  0.00    -0.643 OA
ATOM     15  OXT TRP d   1     -41.445  15.231  16.719  0.00  0.00    -0.643 OA
ENDBRANCH  11  13
ENDBRANCH  10  11
ENDBRANCH   1  10
TORSDOF 3
ENDMDL
