MODEL 1
REMARK VINA RESULT:      51.5      0.000      0.000
REMARK  5 active torsions:
REMARK  status: ('A' for Active; 'I' for Inactive)
REMARK    1  A    between atoms: C_9  and  N_1 
REMARK    2  A    between atoms: C_6  and  C_2 
REMARK    3  A    between atoms: O_10  and  C_6 
REMARK    4  A    between atoms: C_13  and  C_9 
REMARK    5  A    between atoms: C_19  and  O_10 
ROOT
ATOM      1  N   UNL d   1      13.782  13.112  -2.028  0.00  0.00    -0.271 N 
ATOM      2  C   UNL d   1      13.458  12.860  -3.292  0.00  0.00     0.120 A 
ATOM      3  C   UNL d   1      13.473  12.538  -2.533  0.00  0.00     0.177 A 
ATOM      4  C   UNL d   1      13.957  13.783  -2.474  0.00  0.00     0.167 A 
ATOM      5  C   UNL d   1      13.758  13.629  -3.251  0.00  0.00     0.124 A 
ATOM      6  N   UNL d   1      14.274  14.515  -2.263  0.00  0.00    -0.225 NA
ATOM      7  N   UNL d   1      13.872  14.204  -3.829  0.00  0.00    -0.241 NA
ATOM      8  C   UNL d   1      14.390  15.091  -2.832  0.00  0.00     0.101 A 
ATOM      9  C   UNL d   1      14.188  14.932  -3.616  0.00  0.00     0.099 A 
ATOM     10  N   UNL d   1      13.224  11.779  -2.313  0.00  0.00    -0.128 N 
ATOM     11  C   UNL d   1      14.705  15.817  -2.617  0.00  0.00     0.021 A 
ATOM     12  C   UNL d   1      14.308  15.520  -4.190  0.00  0.00     0.021 A 
ATOM     13  C   UNL d   1      14.822  16.400  -3.197  0.00  0.00     0.002 A 
ATOM     14  C   UNL d   1      14.622  16.242  -3.972  0.00  0.00     0.002 A 
ENDROOT
BRANCH   2  15
ATOM     15  C   UNL d   1      13.187  12.474  -3.978  0.00  0.00     0.300 C 
ATOM     16  O   UNL d   1      12.769  11.779  -3.917  0.00  0.00    -0.259 OA
BRANCH  15  17
ATOM     17  O   UNL d   1      13.348  12.804  -4.725  0.00  0.00    -0.303 OA
BRANCH  17  18
ATOM     18  C   UNL d   1      13.384  12.311  -5.383  0.00  0.00     0.102 C 
ATOM     19  C   UNL d   1      13.955  12.807  -5.730  0.00  0.00     0.030 C 
ATOM     20  C   UNL d   1      12.816  11.812  -5.045  0.00  0.00     0.030 C 
ATOM     21  C   UNL d   1      13.417  11.809  -6.047  0.00  0.00     0.030 C 
ENDBRANCH  17  18
ENDBRANCH  15  17
ENDBRANCH   2  15
BRANCH   1  22
ATOM     22  C   UNL d   1      13.897  13.027  -1.217  0.00  0.00     0.108 C 
BRANCH  22  23
ATOM     23  C   UNL d   1      14.586  12.665  -0.932  0.00  0.00     0.118 A 
ATOM     24  O   UNL d   1      14.868  11.922  -1.155  0.00  0.00    -0.304 OA
ATOM     25  C   UNL d   1      15.569  11.783  -0.734  0.00  0.00     0.123 A 
ATOM     26  C   UNL d   1      15.706  12.439  -0.262  0.00  0.00     0.029 A 
ATOM     27  C   UNL d   1      15.105  12.982  -0.380  0.00  0.00     0.028 A 
ENDBRANCH  22  23
ENDBRANCH   1  22
TORSDOF 5
ENDMDL
MODEL 2
REMARK VINA RESULT:      52.5      1.264      4.027
REMARK  5 active torsions:
REMARK  status: ('A' for Active; 'I' for Inactive)
REMARK    1  A    between atoms: C_9  and  N_1 
REMARK    2  A    between atoms: C_6  and  C_2 
REMARK    3  A    between atoms: O_10  and  C_6 
REMARK    4  A    between atoms: C_13  and  C_9 
REMARK    5  A    between atoms: C_19  and  O_10 
ROOT
ATOM      1  N   UNL d   1      14.163  14.936  -2.927  0.00  0.00    -0.271 N 
ATOM      2  C   UNL d   1      14.485  13.928  -2.123  0.00  0.00     0.120 A 
ATOM      3  C   UNL d   1      14.519  14.748  -2.207  0.00  0.00     0.177 A 
ATOM      4  C   UNL d   1      13.911  14.236  -3.283  0.00  0.00     0.167 A 
ATOM      5  C   UNL d   1      14.110  13.617  -2.790  0.00  0.00     0.124 A 
ATOM      6  N   UNL d   1      13.526  14.092  -3.998  0.00  0.00    -0.225 NA
ATOM      7  N   UNL d   1      13.926  12.843  -3.003  0.00  0.00    -0.241 NA
ATOM      8  C   UNL d   1      13.340  13.326  -4.216  0.00  0.00     0.101 A 
ATOM      9  C   UNL d   1      13.542  12.702  -3.715  0.00  0.00     0.099 A 
ATOM     10  N   UNL d   1      14.848  15.286  -1.671  0.00  0.00    -0.128 N 
ATOM     11  C   UNL d   1      12.957  13.188  -4.928  0.00  0.00     0.021 A 
ATOM     12  C   UNL d   1      13.351  11.926  -3.942  0.00  0.00     0.021 A 
ATOM     13  C   UNL d   1      12.770  12.409  -5.147  0.00  0.00     0.002 A 
ATOM     14  C   UNL d   1      12.969  11.793  -4.652  0.00  0.00     0.002 A 
ENDROOT
BRANCH   2  15
ATOM     15  C   UNL d   1      14.780  13.494  -1.477  0.00  0.00     0.300 C 
ATOM     16  O   UNL d   1      15.517  13.661  -1.176  0.00  0.00    -0.259 OA
BRANCH  15  17
ATOM     17  O   UNL d   1      14.316  12.890  -1.143  0.00  0.00    -0.303 OA
BRANCH  17  18
ATOM     18  C   UNL d   1      14.656  12.379  -0.593  0.00  0.00     0.102 C 
ATOM     19  C   UNL d   1      14.698  11.779  -1.170  0.00  0.00     0.030 C 
ATOM     20  C   UNL d   1      14.618  12.970  -0.014  0.00  0.00     0.030 C 
ATOM     21  C   UNL d   1      15.000  11.866  -0.035  0.00  0.00     0.030 C 
ENDBRANCH  17  18
ENDBRANCH  15  17
ENDBRANCH   2  15
BRANCH   1  22
ATOM     22  C   UNL d   1      14.074  15.695  -3.235  0.00  0.00     0.108 C 
BRANCH  22  23
ATOM     23  C   UNL d   1      14.589  15.964  -3.827  0.00  0.00     0.118 A 
ATOM     24  O   UNL d   1      15.412  15.899  -3.815  0.00  0.00    -0.304 OA
ATOM     25  C   UNL d   1      15.699  16.240  -4.515  0.00  0.00     0.123 A 
ATOM     26  C   UNL d   1      15.053  16.507  -4.942  0.00  0.00     0.029 A 
ATOM     27  C   UNL d   1      14.370  16.339  -4.523  0.00  0.00     0.028 A 
ENDBRANCH  22  23
ENDBRANCH   1  22
TORSDOF 5
ENDMDL
