MODEL 1
REMARK VINA RESULT:     136.5      0.000      0.000
REMARK  2 active torsions:
REMARK  status: ('A' for Active; 'I' for Inactive)
REMARK    1  A    between atoms: C_7  and  C_1 
REMARK       I    between atoms: N_13  and  C_7 
REMARK    2  A    between atoms: C_18  and  N_13 
ROOT
ATOM      1  N   UNL d   1      62.831  40.516  51.078  0.00  0.00    -0.191 NA
ATOM      2  C   UNL d   1      62.652  41.329  51.065  0.00  0.00     0.101 C 
ATOM      3  C   UNL d   1      62.112  43.762  51.027  0.00  0.00     0.085 A 
ATOM      4  C   UNL d   1      62.472  42.142  51.051  0.00  0.00     0.068 A 
ATOM      5  C   UNL d   1      61.729  43.257  51.549  0.00  0.00     0.020 A 
ATOM      6  C   UNL d   1      62.691  43.445  50.503  0.00  0.00     0.020 A 
ATOM      7  C   UNL d   1      61.897  42.449  51.573  0.00  0.00     0.012 A 
ATOM      8  C   UNL d   1      62.859  42.637  50.527  0.00  0.00     0.012 A 
ENDROOT
BRANCH   3   9
ATOM      9  N   UNL d   1      61.949  44.566  50.999  0.00  0.00    -0.208 NA
ATOM     10  C   UNL d   1      61.721  44.884  50.262  0.00  0.00     0.283 C 
ATOM     11  O   UNL d   1      61.662  44.429  49.603  0.00  0.00    -0.265 OA
BRANCH  10  12
ATOM     12  C   UNL d   1      61.556  45.691  50.227  0.00  0.00     0.101 A 
ATOM     13  C   UNL d   1      61.623  46.115  49.527  0.00  0.00     0.208 A 
ATOM     14  O   UNL d   1      61.460  46.919  49.484  0.00  0.00    -0.288 OA
ATOM     15  N   UNL d   1      61.867  45.712  48.829  0.00  0.00    -0.121 N 
ATOM     16  C   UNL d   1      61.216  47.322  50.183  0.00  0.00     0.103 A 
ATOM     17  C   UNL d   1      61.150  46.885  50.891  0.00  0.00     0.023 A 
ATOM     18  C   UNL d   1      61.055  48.104  50.153  0.00  0.00     0.039 A 
ATOM     19  C   UNL d   1      61.312  46.095  50.926  0.00  0.00     0.010 A 
ATOM     20  C   UNL d   1      60.906  47.280  51.594  0.00  0.00     0.003 A 
ATOM     21  C   UNL d   1      60.743  48.084  51.552  0.00  0.00     0.016 A 
ATOM     22  C   UNL d   1      60.810  48.508  50.851  0.00  0.00     0.066 A 
ATOM     23  C   UNL d   1      60.498  48.509  52.237  0.00  0.00     0.003 A 
ATOM     24  N   UNL d   1      60.650  49.284  50.826  0.00  0.00    -0.304 N 
ATOM     25  C   UNL d   1      60.717  49.708  50.126  0.00  0.00     0.080 A 
ATOM     26  C   UNL d   1      60.406  49.687  51.524  0.00  0.00     0.080 A 
ATOM     27  C   UNL d   1      60.961  49.304  49.427  0.00  0.00     0.019 A 
ATOM     28  C   UNL d   1      61.122  48.522  49.457  0.00  0.00     0.005 A 
ATOM     29  C   UNL d   1      60.337  49.277  52.216  0.00  0.00     0.019 A 
ENDBRANCH  10  12
ENDBRANCH   3   9
TORSDOF 2
ENDMDL
