MODEL 1
REMARK VINA RESULT:      -7.2      0.000      0.000
REMARK  4 active torsions:
REMARK  status: ('A' for Active; 'I' for Inactive)
REMARK    1  A    between atoms: N_8  and  C_2 
REMARK    2  A    between atoms: C_9  and  C_3 
REMARK       I    between atoms: C_6  and  N_7 
REMARK    3  A    between atoms: C_11  and  C_6 
REMARK    4  A    between atoms: N_7  and  N_8 
ROOT
ATOM      1  N   UNL d   1     -47.312  12.976  22.892  0.00  0.00    -0.221 NA
ATOM      2  C   UNL d   1     -47.546  13.752  22.820  0.00  0.00     0.186 A 
ATOM      3  C   UNL d   1     -46.514  12.980  23.026  0.00  0.00     0.090 A 
ATOM      4  S   UNL d   1     -46.898  14.229  22.907  0.00  0.00    -0.047 SA
ATOM      5  C   UNL d   1     -46.256  13.749  23.035  0.00  0.00     0.058 A 
ENDROOT
BRANCH   2   6
ATOM      6  N   UNL d   1     -48.330  14.020  22.677  0.00  0.00    -0.275 N 
ATOM      7  H   UNL d   1     -48.863  13.519  22.299  0.00  0.00     0.189 HD
BRANCH   6   8
ATOM      8  N   UNL d   1     -48.556  14.778  22.916  0.00  0.00    -0.264 N 
ATOM      9  C   UNL d   1     -49.354  14.990  22.866  0.00  0.00     0.271 C 
ATOM     10  O   UNL d   1     -49.580  15.748  23.105  0.00  0.00    -0.266 OA
ATOM     11  H   UNL d   1     -47.987  15.295  23.193  0.00  0.00     0.190 HD
BRANCH   9  12
ATOM     12  C   UNL d   1     -49.912  14.467  22.588  0.00  0.00     0.057 A 
ATOM     13  C   UNL d   1     -50.303  13.995  23.147  0.00  0.00     0.005 A 
ATOM     14  C   UNL d   1     -50.876  13.453  22.895  0.00  0.00     0.000 A 
ATOM     15  C   UNL d   1     -51.064  13.376  22.099  0.00  0.00     0.000 A 
ATOM     16  C   UNL d   1     -50.661  13.860  21.538  0.00  0.00     0.000 A 
ATOM     17  C   UNL d   1     -50.092  14.398  21.786  0.00  0.00     0.005 A 
ENDBRANCH   9  12
ENDBRANCH   6   8
ENDBRANCH   2   6
BRANCH   3  18
ATOM     18  C   UNL d   1     -46.046  12.310  23.133  0.00  0.00     0.018 A 
ATOM     19  C   UNL d   1     -46.334  11.680  23.582  0.00  0.00     0.002 A 
ATOM     20  C   UNL d   1     -45.872  11.008  23.693  0.00  0.00     0.000 A 
ATOM     21  C   UNL d   1     -45.115  10.969  23.352  0.00  0.00     0.000 A 
ATOM     22  C   UNL d   1     -44.826  11.599  22.903  0.00  0.00     0.000 A 
ATOM     23  C   UNL d   1     -44.643  10.300  23.457  0.00  0.00     0.000 C 
ATOM     24  C   UNL d   1     -45.295  12.274  22.793  0.00  0.00     0.002 A 
ENDBRANCH   3  18
TORSDOF 4
ENDMDL
MODEL 2
REMARK VINA RESULT:      -6.8      1.338      1.666
REMARK  4 active torsions:
REMARK  status: ('A' for Active; 'I' for Inactive)
REMARK    1  A    between atoms: N_8  and  C_2 
REMARK    2  A    between atoms: C_9  and  C_3 
REMARK       I    between atoms: C_6  and  N_7 
REMARK    3  A    between atoms: C_11  and  C_6 
REMARK    4  A    between atoms: N_7  and  N_8 
ROOT
ATOM      1  N   UNL d   1     -47.327  11.943  23.122  0.00  0.00    -0.221 NA
ATOM      2  C   UNL d   1     -47.800  12.605  23.158  0.00  0.00     0.186 A 
ATOM      3  C   UNL d   1     -46.569  12.184  23.276  0.00  0.00     0.090 A 
ATOM      4  S   UNL d   1     -47.338  13.246  23.333  0.00  0.00    -0.047 SA
ATOM      5  C   UNL d   1     -46.573  12.985  23.407  0.00  0.00     0.058 A 
ENDROOT
BRANCH   2   6
ATOM      6  N   UNL d   1     -48.632  12.624  23.035  0.00  0.00    -0.275 N 
ATOM      7  H   UNL d   1     -48.960  13.249  22.612  0.00  0.00     0.189 HD
BRANCH   6   8
ATOM      8  N   UNL d   1     -49.107  12.020  23.338  0.00  0.00    -0.264 N 
ATOM      9  C   UNL d   1     -49.919  12.038  23.185  0.00  0.00     0.271 C 
ATOM     10  O   UNL d   1     -50.394  11.433  23.489  0.00  0.00    -0.266 OA
ATOM     11  H   UNL d   1     -48.762  11.423  23.778  0.00  0.00     0.190 HD
BRANCH   9  12
ATOM     12  C   UNL d   1     -50.252  12.637  22.746  0.00  0.00     0.057 A 
ATOM     13  C   UNL d   1     -50.307  12.522  21.926  0.00  0.00     0.005 A 
ATOM     14  C   UNL d   1     -50.641  13.113  21.452  0.00  0.00     0.000 A 
ATOM     15  C   UNL d   1     -50.919  13.812  21.781  0.00  0.00     0.000 A 
ATOM     16  C   UNL d   1     -50.860  13.920  22.616  0.00  0.00     0.000 A 
ATOM     17  C   UNL d   1     -50.528  13.334  23.088  0.00  0.00     0.005 A 
ENDBRANCH   9  12
ENDBRANCH   6   8
ENDBRANCH   2   6
BRANCH   3  18
ATOM     18  C   UNL d   1     -45.908  11.692  23.296  0.00  0.00     0.018 A 
ATOM     19  C   UNL d   1     -45.958  10.959  23.672  0.00  0.00     0.002 A 
ATOM     20  C   UNL d   1     -45.301  10.464  23.696  0.00  0.00     0.000 A 
ATOM     21  C   UNL d   1     -44.590  10.705  23.339  0.00  0.00     0.000 A 
ATOM     22  C   UNL d   1     -44.541  11.438  22.962  0.00  0.00     0.000 A 
ATOM     23  C   UNL d   1     -43.926  10.216  23.356  0.00  0.00     0.000 C 
ATOM     24  C   UNL d   1     -45.205  11.935  22.941  0.00  0.00     0.002 A 
ENDBRANCH   3  18
TORSDOF 4
ENDMDL
MODEL 3
REMARK VINA RESULT:      -6.5      8.454      9.532
REMARK  4 active torsions:
REMARK  status: ('A' for Active; 'I' for Inactive)
REMARK    1  A    between atoms: N_8  and  C_2 
REMARK    2  A    between atoms: C_9  and  C_3 
REMARK       I    between atoms: C_6  and  N_7 
REMARK    3  A    between atoms: C_11  and  C_6 
REMARK    4  A    between atoms: N_7  and  N_8 
ROOT
ATOM      1  N   UNL d   1     -39.655  14.929  19.935  0.00  0.00    -0.221 NA
ATOM      2  C   UNL d   1     -40.119  15.376  19.436  0.00  0.00     0.186 A 
ATOM      3  C   UNL d   1     -39.879  15.108  20.692  0.00  0.00     0.090 A 
ATOM      4  S   UNL d   1     -40.623  15.825  19.882  0.00  0.00    -0.047 SA
ATOM      5  C   UNL d   1     -40.474  15.658  20.663  0.00  0.00     0.058 A 
ENDROOT
BRANCH   2   6
ATOM      6  N   UNL d   1     -40.084  15.375  18.596  0.00  0.00    -0.275 N 
ATOM      7  H   UNL d   1     -39.358  15.492  18.225  0.00  0.00     0.189 HD
BRANCH   6   8
ATOM      8  N   UNL d   1     -40.772  15.257  18.156  0.00  0.00    -0.264 N 
ATOM      9  C   UNL d   1     -40.711  15.175  17.335  0.00  0.00     0.271 C 
ATOM     10  O   UNL d   1     -41.401  15.057  16.894  0.00  0.00    -0.266 OA
ATOM     11  H   UNL d   1     -41.492  15.225  18.541  0.00  0.00     0.190 HD
BRANCH   9  12
ATOM     12  C   UNL d   1     -39.989  15.208  16.961  0.00  0.00     0.057 A 
ATOM     13  C   UNL d   1     -39.609  14.489  16.801  0.00  0.00     0.005 A 
ATOM     14  C   UNL d   1     -38.873  14.490  16.422  0.00  0.00     0.000 A 
ATOM     15  C   UNL d   1     -38.513  15.194  16.201  0.00  0.00     0.000 A 
ATOM     16  C   UNL d   1     -38.906  15.922  16.368  0.00  0.00     0.000 A 
ATOM     17  C   UNL d   1     -39.637  15.922  16.744  0.00  0.00     0.005 A 
ENDBRANCH   9  12
ENDBRANCH   6   8
ENDBRANCH   2   6
BRANCH   3  18
ATOM     18  C   UNL d   1     -39.553  14.781  21.374  0.00  0.00     0.018 A 
ATOM     19  C   UNL d   1     -39.148  15.268  21.904  0.00  0.00     0.002 A 
ATOM     20  C   UNL d   1     -38.820  14.948  22.588  0.00  0.00     0.000 A 
ATOM     21  C   UNL d   1     -38.899  14.135  22.741  0.00  0.00     0.000 A 
ATOM     22  C   UNL d   1     -39.304  13.648  22.211  0.00  0.00     0.000 A 
ATOM     23  C   UNL d   1     -38.574  13.803  23.424  0.00  0.00     0.000 C 
ATOM     24  C   UNL d   1     -39.633  13.974  21.523  0.00  0.00     0.002 A 
ENDBRANCH   3  18
TORSDOF 4
ENDMDL
MODEL 4
REMARK VINA RESULT:      -5.3      8.793     10.178
REMARK  4 active torsions:
REMARK  status: ('A' for Active; 'I' for Inactive)
REMARK    1  A    between atoms: N_8  and  C_2 
REMARK    2  A    between atoms: C_9  and  C_3 
REMARK       I    between atoms: C_6  and  N_7 
REMARK    3  A    between atoms: C_11  and  C_6 
REMARK    4  A    between atoms: N_7  and  N_8 
ROOT
ATOM      1  N   UNL d   1     -39.622  15.239  19.045  0.00  0.00    -0.221 NA
ATOM      2  C   UNL d   1     -38.874  15.212  19.365  0.00  0.00     0.186 A 
ATOM      3  C   UNL d   1     -39.543  15.475  18.275  0.00  0.00     0.090 A 
ATOM      4  S   UNL d   1     -38.340  15.429  18.797  0.00  0.00    -0.047 SA
ATOM      5  C   UNL d   1     -38.756  15.593  18.119  0.00  0.00     0.058 A 
ENDROOT
BRANCH   2   6
ATOM      6  N   UNL d   1     -38.682  14.995  20.155  0.00  0.00    -0.275 N 
ATOM      7  H   UNL d   1     -38.808  14.218  20.398  0.00  0.00     0.189 HD
BRANCH   6   8
ATOM      8  N   UNL d   1     -38.373  15.558  20.673  0.00  0.00    -0.264 N 
ATOM      9  C   UNL d   1     -38.279  15.357  21.470  0.00  0.00     0.271 C 
ATOM     10  O   UNL d   1     -37.969  15.922  21.988  0.00  0.00    -0.266 OA
ATOM     11  H   UNL d   1     -38.169  16.296  20.386  0.00  0.00     0.190 HD
BRANCH   9  12
ATOM     12  C   UNL d   1     -38.484  14.620  21.745  0.00  0.00     0.057 A 
ATOM     13  C   UNL d   1     -39.199  14.555  22.161  0.00  0.00     0.005 A 
ATOM     14  C   UNL d   1     -39.436  13.817  22.454  0.00  0.00     0.000 A 
ATOM     15  C   UNL d   1     -38.974  13.148  22.339  0.00  0.00     0.000 A 
ATOM     16  C   UNL d   1     -38.248  13.224  21.915  0.00  0.00     0.000 A 
ATOM     17  C   UNL d   1     -38.011  13.955  21.624  0.00  0.00     0.005 A 
ENDBRANCH   9  12
ENDBRANCH   6   8
ENDBRANCH   2   6
BRANCH   3  18
ATOM     18  C   UNL d   1     -40.163  15.578  17.742  0.00  0.00     0.018 A 
ATOM     19  C   UNL d   1     -40.903  15.818  18.020  0.00  0.00     0.002 A 
ATOM     20  C   UNL d   1     -41.526  15.922  17.494  0.00  0.00     0.000 A 
ATOM     21  C   UNL d   1     -41.407  15.784  16.682  0.00  0.00     0.000 A 
ATOM     22  C   UNL d   1     -40.667  15.545  16.404  0.00  0.00     0.000 A 
ATOM     23  C   UNL d   1     -42.025  15.886  16.145  0.00  0.00     0.000 C 
ATOM     24  C   UNL d   1     -40.042  15.441  16.938  0.00  0.00     0.002 A 
ENDBRANCH   3  18
TORSDOF 4
ENDMDL
MODEL 5
REMARK VINA RESULT:      -5.1      8.040      9.800
REMARK  4 active torsions:
REMARK  status: ('A' for Active; 'I' for Inactive)
REMARK    1  A    between atoms: N_8  and  C_2 
REMARK    2  A    between atoms: C_9  and  C_3 
REMARK       I    between atoms: C_6  and  N_7 
REMARK    3  A    between atoms: C_11  and  C_6 
REMARK    4  A    between atoms: N_7  and  N_8 
ROOT
ATOM      1  N   UNL d   1     -39.560  14.715  18.377  0.00  0.00    -0.221 NA
ATOM      2  C   UNL d   1     -40.116  15.134  18.799  0.00  0.00     0.186 A 
ATOM      3  C   UNL d   1     -39.690  14.869  17.593  0.00  0.00     0.090 A 
ATOM      4  S   UNL d   1     -40.584  15.542  18.279  0.00  0.00    -0.047 SA
ATOM      5  C   UNL d   1     -40.319  15.377  17.530  0.00  0.00     0.058 A 
ENDROOT
BRANCH   2   6
ATOM      6  N   UNL d   1     -40.196  15.145  19.636  0.00  0.00    -0.275 N 
ATOM      7  H   UNL d   1     -39.557  15.384  20.097  0.00  0.00     0.189 HD
BRANCH   6   8
ATOM      8  N   UNL d   1     -40.909  14.917  19.984  0.00  0.00    -0.264 N 
ATOM      9  C   UNL d   1     -40.947  14.848  20.808  0.00  0.00     0.271 C 
ATOM     10  O   UNL d   1     -41.661  14.620  21.155  0.00  0.00    -0.266 OA
ATOM     11  H   UNL d   1     -41.556  14.765  19.507  0.00  0.00     0.190 HD
BRANCH   9  12
ATOM     12  C   UNL d   1     -40.297  15.001  21.273  0.00  0.00     0.057 A 
ATOM     13  C   UNL d   1     -39.837  14.353  21.509  0.00  0.00     0.005 A 
ATOM     14  C   UNL d   1     -39.169  14.476  21.983  0.00  0.00     0.000 A 
ATOM     15  C   UNL d   1     -38.955  15.232  22.223  0.00  0.00     0.000 A 
ATOM     16  C   UNL d   1     -39.428  15.886  21.978  0.00  0.00     0.000 A 
ATOM     17  C   UNL d   1     -40.091  15.765  21.507  0.00  0.00     0.005 A 
ENDBRANCH   9  12
ENDBRANCH   6   8
ENDBRANCH   2   6
BRANCH   3  18
ATOM     18  C   UNL d   1     -39.252  14.558  16.968  0.00  0.00     0.018 A 
ATOM     19  C   UNL d   1     -38.935  13.798  17.032  0.00  0.00     0.002 A 
ATOM     20  C   UNL d   1     -38.497  13.482  16.411  0.00  0.00     0.000 A 
ATOM     21  C   UNL d   1     -38.377  13.931  15.722  0.00  0.00     0.000 A 
ATOM     22  C   UNL d   1     -38.695  14.691  15.658  0.00  0.00     0.000 A 
ATOM     23  C   UNL d   1     -37.939  13.623  15.093  0.00  0.00     0.000 C 
ATOM     24  C   UNL d   1     -39.135  15.006  16.285  0.00  0.00     0.002 A 
ENDBRANCH   3  18
TORSDOF 4
ENDMDL
MODEL 6
REMARK VINA RESULT:      -4.9      9.282     10.894
REMARK  4 active torsions:
REMARK  status: ('A' for Active; 'I' for Inactive)
REMARK    1  A    between atoms: N_8  and  C_2 
REMARK    2  A    between atoms: C_9  and  C_3 
REMARK       I    between atoms: C_6  and  N_7 
REMARK    3  A    between atoms: C_11  and  C_6 
REMARK    4  A    between atoms: N_7  and  N_8 
ROOT
ATOM      1  N   UNL d   1     -38.550  14.440  17.451  0.00  0.00    -0.221 NA
ATOM      2  C   UNL d   1     -38.494  15.006  18.034  0.00  0.00     0.186 A 
ATOM      3  C   UNL d   1     -38.206  14.747  16.787  0.00  0.00     0.090 A 
ATOM      4  S   UNL d   1     -38.119  15.656  17.731  0.00  0.00    -0.047 SA
ATOM      5  C   UNL d   1     -37.940  15.495  16.955  0.00  0.00     0.058 A 
ENDROOT
BRANCH   2   6
ATOM      6  N   UNL d   1     -38.777  14.933  18.822  0.00  0.00    -0.275 N 
ATOM      7  H   UNL d   1     -39.588  14.966  18.962  0.00  0.00     0.189 HD
BRANCH   6   8
ATOM      8  N   UNL d   1     -38.243  14.829  19.444  0.00  0.00    -0.264 N 
ATOM      9  C   UNL d   1     -38.528  14.841  20.220  0.00  0.00     0.271 C 
ATOM     10  O   UNL d   1     -37.993  14.737  20.842  0.00  0.00    -0.266 OA
ATOM     11  H   UNL d   1     -37.451  14.718  19.275  0.00  0.00     0.190 HD
BRANCH   9  12
ATOM     12  C   UNL d   1     -39.319  14.953  20.377  0.00  0.00     0.057 A 
ATOM     13  C   UNL d   1     -39.561  15.717  20.586  0.00  0.00     0.005 A 
ATOM     14  C   UNL d   1     -40.359  15.862  20.752  0.00  0.00     0.000 A 
ATOM     15  C   UNL d   1     -40.915  15.260  20.712  0.00  0.00     0.000 A 
ATOM     16  C   UNL d   1     -40.660  14.485  20.498  0.00  0.00     0.000 A 
ATOM     17  C   UNL d   1     -39.868  14.339  20.333  0.00  0.00     0.005 A 
ENDBRANCH   9  12
ENDBRANCH   6   8
ENDBRANCH   2   6
BRANCH   3  18
ATOM     18  C   UNL d   1     -38.140  14.361  16.062  0.00  0.00     0.018 A 
ATOM     19  C   UNL d   1     -38.173  14.799  15.363  0.00  0.00     0.002 A 
ATOM     20  C   UNL d   1     -38.108  14.419  14.636  0.00  0.00     0.000 A 
ATOM     21  C   UNL d   1     -38.008  13.595  14.610  0.00  0.00     0.000 A 
ATOM     22  C   UNL d   1     -37.974  13.156  15.309  0.00  0.00     0.000 A 
ATOM     23  C   UNL d   1     -37.941  13.203  13.886  0.00  0.00     0.000 C 
ATOM     24  C   UNL d   1     -38.041  13.543  16.040  0.00  0.00     0.002 A 
ENDBRANCH   3  18
TORSDOF 4
ENDMDL
MODEL 7
REMARK VINA RESULT:      -4.9      8.971     10.157
REMARK  4 active torsions:
REMARK  status: ('A' for Active; 'I' for Inactive)
REMARK    1  A    between atoms: N_8  and  C_2 
REMARK    2  A    between atoms: C_9  and  C_3 
REMARK       I    between atoms: C_6  and  N_7 
REMARK    3  A    between atoms: C_11  and  C_6 
REMARK    4  A    between atoms: N_7  and  N_8 
ROOT
ATOM      1  N   UNL d   1     -38.974  14.327  19.592  0.00  0.00    -0.221 NA
ATOM      2  C   UNL d   1     -39.422  14.445  20.261  0.00  0.00     0.186 A 
ATOM      3  C   UNL d   1     -39.479  14.358  18.960  0.00  0.00     0.090 A 
ATOM      4  S   UNL d   1     -40.195  14.547  20.044  0.00  0.00    -0.047 SA
ATOM      5  C   UNL d   1     -40.230  14.493  19.234  0.00  0.00     0.058 A 
ENDROOT
BRANCH   2   6
ATOM      6  N   UNL d   1     -39.134  14.459  21.051  0.00  0.00    -0.275 N 
ATOM      7  H   UNL d   1     -39.150  15.168  21.471  0.00  0.00     0.189 HD
BRANCH   6   8
ATOM      8  N   UNL d   1     -38.841  13.768  21.395  0.00  0.00    -0.264 N 
ATOM      9  C   UNL d   1     -38.518  13.807  22.156  0.00  0.00     0.271 C 
ATOM     10  O   UNL d   1     -38.225  13.115  22.499  0.00  0.00    -0.266 OA
ATOM     11  H   UNL d   1     -38.879  13.067  20.977  0.00  0.00     0.190 HD
BRANCH   9  12
ATOM     12  C   UNL d   1     -38.485  14.511  22.564  0.00  0.00     0.057 A 
ATOM     13  C   UNL d   1     -39.021  14.614  23.188  0.00  0.00     0.005 A 
ATOM     14  C   UNL d   1     -39.013  15.318  23.622  0.00  0.00     0.000 A 
ATOM     15  C   UNL d   1     -38.482  15.918  23.444  0.00  0.00     0.000 A 
ATOM     16  C   UNL d   1     -37.940  15.805  22.807  0.00  0.00     0.000 A 
ATOM     17  C   UNL d   1     -37.947  15.106  22.375  0.00  0.00     0.005 A 
ENDBRANCH   9  12
ENDBRANCH   6   8
ENDBRANCH   2   6
BRANCH   3  18
ATOM     18  C   UNL d   1     -39.260  14.266  18.171  0.00  0.00     0.018 A 
ATOM     19  C   UNL d   1     -38.988  13.531  17.907  0.00  0.00     0.002 A 
ATOM     20  C   UNL d   1     -38.769  13.433  17.120  0.00  0.00     0.000 A 
ATOM     21  C   UNL d   1     -38.821  14.075  16.594  0.00  0.00     0.000 A 
ATOM     22  C   UNL d   1     -39.093  14.809  16.858  0.00  0.00     0.000 A 
ATOM     23  C   UNL d   1     -38.603  13.987  15.803  0.00  0.00     0.000 C 
ATOM     24  C   UNL d   1     -39.314  14.904  17.652  0.00  0.00     0.002 A 
ENDBRANCH   3  18
TORSDOF 4
ENDMDL
MODEL 8
REMARK VINA RESULT:      -4.2      1.666      5.036
REMARK  4 active torsions:
REMARK  status: ('A' for Active; 'I' for Inactive)
REMARK    1  A    between atoms: N_8  and  C_2 
REMARK    2  A    between atoms: C_9  and  C_3 
REMARK       I    between atoms: C_6  and  N_7 
REMARK    3  A    between atoms: C_11  and  C_6 
REMARK    4  A    between atoms: N_7  and  N_8 
ROOT
ATOM      1  N   UNL d   1     -47.311  13.025  22.497  0.00  0.00    -0.221 NA
ATOM      2  C   UNL d   1     -46.559  13.222  22.740  0.00  0.00     0.186 A 
ATOM      3  C   UNL d   1     -47.765  13.692  22.561  0.00  0.00     0.090 A 
ATOM      4  S   UNL d   1     -46.551  14.004  22.953  0.00  0.00    -0.047 SA
ATOM      5  C   UNL d   1     -47.301  14.295  22.841  0.00  0.00     0.058 A 
ENDROOT
BRANCH   2   6
ATOM      6  N   UNL d   1     -45.897  12.704  22.769  0.00  0.00    -0.275 N 
ATOM      7  H   UNL d   1     -45.920  12.052  23.271  0.00  0.00     0.189 HD
BRANCH   6   8
ATOM      8  N   UNL d   1     -45.236  12.855  22.297  0.00  0.00    -0.264 N 
ATOM      9  C   UNL d   1     -44.611  12.314  22.303  0.00  0.00     0.271 C 
ATOM     10  O   UNL d   1     -43.950  12.465  21.830  0.00  0.00    -0.266 OA
ATOM     11  H   UNL d   1     -45.218  13.532  21.839  0.00  0.00     0.190 HD
BRANCH   9  12
ATOM     12  C   UNL d   1     -44.639  11.643  22.763  0.00  0.00     0.057 A 
ATOM     13  C   UNL d   1     -43.917  11.289  22.964  0.00  0.00     0.005 A 
ATOM     14  C   UNL d   1     -43.913  10.605  23.431  0.00  0.00     0.000 A 
ATOM     15  C   UNL d   1     -44.613  10.271  23.698  0.00  0.00     0.000 A 
ATOM     16  C   UNL d   1     -45.344  10.638  23.488  0.00  0.00     0.000 A 
ATOM     17  C   UNL d   1     -45.350  11.317  23.025  0.00  0.00     0.005 A 
ENDBRANCH   9  12
ENDBRANCH   6   8
ENDBRANCH   2   6
BRANCH   3  18
ATOM     18  C   UNL d   1     -48.565  13.743  22.372  0.00  0.00     0.018 A 
ATOM     19  C   UNL d   1     -49.091  14.074  22.916  0.00  0.00     0.002 A 
ATOM     20  C   UNL d   1     -49.891  14.128  22.734  0.00  0.00     0.000 A 
ATOM     21  C   UNL d   1     -50.166  13.849  22.001  0.00  0.00     0.000 A 
ATOM     22  C   UNL d   1     -49.640  13.518  21.456  0.00  0.00     0.000 A 
ATOM     23  C   UNL d   1     -50.967  13.898  21.807  0.00  0.00     0.000 C 
ATOM     24  C   UNL d   1     -48.834  13.465  21.644  0.00  0.00     0.002 A 
ENDBRANCH   3  18
TORSDOF 4
ENDMDL
