MODEL 1
REMARK VINA RESULT:      89.6      0.000      0.000
REMARK  6 active torsions:
REMARK  status: ('A' for Active; 'I' for Inactive)
REMARK    1  A    between atoms: C_11  and  N_3 
REMARK    2  A    between atoms: C_10  and  C_7 
REMARK       I    between atoms: N_19  and  C_10 
REMARK    3  A    between atoms: C_21  and  C_11 
REMARK    4  A    between atoms: N_15  and  C_23 
REMARK    5  A    between atoms: C_22  and  N_19 
REMARK    6  A    between atoms: C_23  and  C_22 
ROOT
ATOM      1  C   UNL d   1     -47.965  30.624  34.481  0.00  0.00     0.154 A 
ATOM      2  C   UNL d   1     -48.652  30.771  34.049  0.00  0.00     0.093 A 
ATOM      3  N   UNL d   1     -47.960  29.821  34.678  0.00  0.00    -0.286 N 
ATOM      4  N   UNL d   1     -47.437  31.236  34.639  0.00  0.00    -0.210 NA
ATOM      5  C   UNL d   1     -48.811  31.530  33.773  0.00  0.00     0.269 A 
ATOM      6  N   UNL d   1     -48.284  32.142  33.930  0.00  0.00    -0.258 N 
ATOM      7  C   UNL d   1     -48.636  29.474  34.372  0.00  0.00     0.124 A 
ATOM      8  C   UNL d   1     -47.597  31.996  34.362  0.00  0.00     0.152 A 
ATOM      9  C   UNL d   1     -49.067  30.058  33.981  0.00  0.00     0.030 A 
ATOM     10  C   UNL d   1     -48.443  32.901  33.654  0.00  0.00     0.084 A 
ATOM     11  O   UNL d   1     -49.498  31.676  33.340  0.00  0.00    -0.266 OA
ATOM     12  C   UNL d   1     -47.069  32.607  34.520  0.00  0.00     0.038 A 
ATOM     13  C   UNL d   1     -47.915  33.518  33.810  0.00  0.00     0.019 A 
ATOM     14  C   UNL d   1     -47.228  33.371  34.243  0.00  0.00     0.005 A 
ENDROOT
BRANCH   7  15
ATOM     15  C   UNL d   1     -48.843  28.679  34.445  0.00  0.00     0.295 C 
ATOM     16  O   UNL d   1     -48.514  28.213  35.038  0.00  0.00    -0.264 OA
ATOM     17  N   UNL d   1     -49.389  28.351  33.911  0.00  0.00    -0.204 NA
BRANCH  17  18
ATOM     18  C   UNL d   1     -49.601  27.552  33.979  0.00  0.00     0.121 C 
BRANCH  18  19
ATOM     19  C   UNL d   1     -49.802  27.121  33.307  0.00  0.00     0.101 C 
BRANCH  19  20
ATOM     20  N   UNL d   1     -50.458  26.621  33.318  0.00  0.00    -0.298 N 
ATOM     21  C   UNL d   1     -50.350  25.799  33.339  0.00  0.00     0.107 A 
ATOM     22  C   UNL d   1     -51.013  25.294  33.349  0.00  0.00     0.142 A 
ATOM     23  O   UNL d   1     -51.777  25.617  33.339  0.00  0.00    -0.300 OA
ATOM     24  C   UNL d   1     -51.881  26.434  33.318  0.00  0.00     0.142 A 
ATOM     25  C   UNL d   1     -51.219  26.938  33.307  0.00  0.00     0.107 A 
ENDBRANCH  19  20
ENDBRANCH  18  19
ENDBRANCH  17  18
ENDBRANCH   7  15
BRANCH   3  26
ATOM     26  C   UNL d   1     -47.369  29.440  35.113  0.00  0.00     0.082 C 
BRANCH  26  27
ATOM     27  C   UNL d   1     -47.243  29.632  35.903  0.00  0.00     0.018 A 
ATOM     28  C   UNL d   1     -47.878  29.693  36.421  0.00  0.00     0.002 A 
ATOM     29  C   UNL d   1     -47.756  29.882  37.203  0.00  0.00     0.000 A 
ATOM     30  C   UNL d   1     -46.991  30.014  37.484  0.00  0.00     0.000 A 
ATOM     31  C   UNL d   1     -46.352  29.955  36.976  0.00  0.00     0.000 A 
ATOM     32  C   UNL d   1     -46.477  29.764  36.185  0.00  0.00     0.002 A 
ENDBRANCH  26  27
ENDBRANCH   3  26
TORSDOF 6
ENDMDL
MODEL 2
REMARK VINA RESULT:      91.0      1.791      6.414
REMARK  6 active torsions:
REMARK  status: ('A' for Active; 'I' for Inactive)
REMARK    1  A    between atoms: C_11  and  N_3 
REMARK    2  A    between atoms: C_10  and  C_7 
REMARK       I    between atoms: N_19  and  C_10 
REMARK    3  A    between atoms: C_21  and  C_11 
REMARK    4  A    between atoms: N_15  and  C_23 
REMARK    5  A    between atoms: C_22  and  N_19 
REMARK    6  A    between atoms: C_23  and  C_22 
ROOT
ATOM      1  C   UNL d   1     -50.999  25.774  33.696  0.00  0.00     0.154 A 
ATOM      2  C   UNL d   1     -51.565  26.369  33.624  0.00  0.00     0.093 A 
ATOM      3  N   UNL d   1     -50.265  26.138  33.805  0.00  0.00    -0.286 N 
ATOM      4  N   UNL d   1     -51.223  24.983  33.653  0.00  0.00    -0.210 NA
ATOM      5  C   UNL d   1     -52.356  26.174  33.509  0.00  0.00     0.269 A 
ATOM      6  N   UNL d   1     -52.581  25.383  33.465  0.00  0.00    -0.258 N 
ATOM      7  C   UNL d   1     -50.375  26.950  33.802  0.00  0.00     0.124 A 
ATOM      8  C   UNL d   1     -52.015  24.788  33.537  0.00  0.00     0.152 A 
ATOM      9  C   UNL d   1     -51.177  27.098  33.690  0.00  0.00     0.030 A 
ATOM     10  C   UNL d   1     -53.372  25.188  33.350  0.00  0.00     0.084 A 
ATOM     11  O   UNL d   1     -52.922  26.769  33.437  0.00  0.00    -0.266 OA
ATOM     12  C   UNL d   1     -52.239  23.997  33.494  0.00  0.00     0.038 A 
ATOM     13  C   UNL d   1     -53.601  24.394  33.306  0.00  0.00     0.019 A 
ATOM     14  C   UNL d   1     -53.034  23.799  33.378  0.00  0.00     0.005 A 
ENDROOT
BRANCH   7  15
ATOM     15  C   UNL d   1     -49.781  27.516  33.894  0.00  0.00     0.295 C 
ATOM     16  O   UNL d   1     -49.638  28.073  33.306  0.00  0.00    -0.264 OA
ATOM     17  N   UNL d   1     -49.327  27.516  34.589  0.00  0.00    -0.204 NA
BRANCH  17  18
ATOM     18  C   UNL d   1     -48.727  28.081  34.690  0.00  0.00     0.121 C 
BRANCH  18  19
ATOM     19  C   UNL d   1     -48.885  28.782  35.091  0.00  0.00     0.101 C 
BRANCH  19  20
ATOM     20  N   UNL d   1     -48.264  29.265  35.339  0.00  0.00    -0.298 N 
ATOM     21  C   UNL d   1     -48.082  29.322  36.146  0.00  0.00     0.107 A 
ATOM     22  C   UNL d   1     -47.455  29.810  36.397  0.00  0.00     0.142 A 
ATOM     23  O   UNL d   1     -47.015  30.235  35.837  0.00  0.00    -0.300 OA
ATOM     24  C   UNL d   1     -47.197  30.177  35.036  0.00  0.00     0.142 A 
ATOM     25  C   UNL d   1     -47.825  29.689  34.785  0.00  0.00     0.107 A 
ENDBRANCH  19  20
ENDBRANCH  18  19
ENDBRANCH  17  18
ENDBRANCH   7  15
BRANCH   3  26
ATOM     26  C   UNL d   1     -49.545  25.743  33.902  0.00  0.00     0.082 C 
BRANCH  26  27
ATOM     27  C   UNL d   1     -49.510  24.922  33.846  0.00  0.00     0.018 A 
ATOM     28  C   UNL d   1     -50.035  24.455  34.273  0.00  0.00     0.002 A 
ATOM     29  C   UNL d   1     -50.001  23.644  34.219  0.00  0.00     0.000 A 
ATOM     30  C   UNL d   1     -49.439  23.281  33.735  0.00  0.00     0.000 A 
ATOM     31  C   UNL d   1     -48.912  23.739  33.306  0.00  0.00     0.000 A 
ATOM     32  C   UNL d   1     -48.947  24.559  33.362  0.00  0.00     0.002 A 
ENDBRANCH  26  27
ENDBRANCH   3  26
TORSDOF 6
ENDMDL
