MODEL 1
REMARK VINA RESULT:      54.1      0.000      0.000
REMARK  2 active torsions:
REMARK  status: ('A' for Active; 'I' for Inactive)
REMARK    1  A    between atoms: N_9  and  C_3 
REMARK    2  A    between atoms: C_11  and  C_4 
ROOT
ATOM      1  N   UNL d   1      14.085  13.514  -2.486  0.00  0.00    -0.196 N 
ATOM      2  C   UNL d   1      13.877  13.812  -3.231  0.00  0.00     0.167 A 
ATOM      3  C   UNL d   1      13.978  12.707  -2.322  0.00  0.00     0.153 A 
ATOM      4  C   UNL d   1      13.978  14.604  -3.403  0.00  0.00     0.057 A 
ATOM      5  N   UNL d   1      14.503  14.817  -2.074  0.00  0.00    -0.161 NA
ATOM      6  N   UNL d   1      13.565  13.307  -3.803  0.00  0.00    -0.227 NA
ATOM      7  C   UNL d   1      13.669  12.216  -2.895  0.00  0.00     0.057 A 
ATOM      8  C   UNL d   1      14.293  15.110  -2.821  0.00  0.00     0.124 A 
ATOM      9  C   UNL d   1      13.461  12.517  -3.639  0.00  0.00     0.086 A 
ATOM     10  C   UNL d   1      13.150  12.012  -4.212  0.00  0.00     0.021 C 
ENDROOT
BRANCH   4  11
ATOM     11  C   UNL d   1      13.772  14.904  -4.143  0.00  0.00     0.004 A 
ATOM     12  C   UNL d   1      12.975  14.971  -4.353  0.00  0.00     0.000 A 
ATOM     13  C   UNL d   1      12.769  15.271  -5.093  0.00  0.00     0.000 A 
ATOM     14  C   UNL d   1      13.372  15.505  -5.627  0.00  0.00     0.000 A 
ATOM     15  C   UNL d   1      14.159  15.431  -5.401  0.00  0.00     0.000 A 
ATOM     16  C   UNL d   1      13.166  15.805  -6.367  0.00  0.00     0.000 C 
ATOM     17  C   UNL d   1      14.364  15.133  -4.664  0.00  0.00     0.000 A 
ENDBRANCH   4  11
BRANCH   3  18
ATOM     18  N   UNL d   1      14.191  12.397  -1.555  0.00  0.00    -0.285 N 
ATOM     19  C   UNL d   1      13.582  12.098  -1.037  0.00  0.00     0.108 A 
ATOM     20  C   UNL d   1      13.798  11.792  -0.277  0.00  0.00     0.142 A 
ATOM     21  O   UNL d   1      14.630  11.779  -0.025  0.00  0.00    -0.300 OA
ATOM     22  C   UNL d   1      15.214  12.080  -0.555  0.00  0.00     0.142 A 
ATOM     23  C   UNL d   1      15.002  12.387  -1.315  0.00  0.00     0.108 A 
ENDBRANCH   3  18
TORSDOF 2
ENDMDL
MODEL 2
REMARK VINA RESULT:      55.7      1.552      2.972
REMARK  2 active torsions:
REMARK  status: ('A' for Active; 'I' for Inactive)
REMARK    1  A    between atoms: N_9  and  C_3 
REMARK    2  A    between atoms: C_11  and  C_4 
ROOT
ATOM      1  N   UNL d   1      14.350  14.236  -2.270  0.00  0.00    -0.196 N 
ATOM      2  C   UNL d   1      14.071  13.927  -2.987  0.00  0.00     0.167 A 
ATOM      3  C   UNL d   1      14.545  15.041  -2.220  0.00  0.00     0.153 A 
ATOM      4  C   UNL d   1      13.876  13.135  -3.047  0.00  0.00     0.057 A 
ATOM      5  N   UNL d   1      14.240  12.947  -1.663  0.00  0.00    -0.161 NA
ATOM      6  N   UNL d   1      13.988  14.419  -3.643  0.00  0.00    -0.227 NA
ATOM      7  C   UNL d   1      14.460  15.520  -2.875  0.00  0.00     0.057 A 
ATOM      8  C   UNL d   1      13.961  12.642  -2.381  0.00  0.00     0.124 A 
ATOM      9  C   UNL d   1      14.180  15.207  -3.590  0.00  0.00     0.086 A 
ATOM     10  C   UNL d   1      14.098  15.699  -4.246  0.00  0.00     0.021 C 
ENDROOT
BRANCH   4  11
ATOM     11  C   UNL d   1      13.597  12.824  -3.759  0.00  0.00     0.004 A 
ATOM     12  C   UNL d   1      13.053  13.252  -4.211  0.00  0.00     0.000 A 
ATOM     13  C   UNL d   1      12.774  12.940  -4.922  0.00  0.00     0.000 A 
ATOM     14  C   UNL d   1      13.048  12.191  -5.180  0.00  0.00     0.000 A 
ATOM     15  C   UNL d   1      13.590  11.780  -4.718  0.00  0.00     0.000 A 
ATOM     16  C   UNL d   1      12.770  11.879  -5.892  0.00  0.00     0.000 C 
ATOM     17  C   UNL d   1      13.867  12.089  -4.010  0.00  0.00     0.000 A 
ENDBRANCH   4  11
BRANCH   3  18
ATOM     18  N   UNL d   1      14.833  15.364  -1.482  0.00  0.00    -0.285 N 
ATOM     19  C   UNL d   1      14.940  14.848  -0.810  0.00  0.00     0.108 A 
ATOM     20  C   UNL d   1      15.226  15.173  -0.082  0.00  0.00     0.142 A 
ATOM     21  O   UNL d   1      15.410  16.020  -0.016  0.00  0.00    -0.300 OA
ATOM     22  C   UNL d   1      15.296  16.508  -0.694  0.00  0.00     0.142 A 
ATOM     23  C   UNL d   1      15.010  16.189  -1.424  0.00  0.00     0.108 A 
ENDBRANCH   3  18
TORSDOF 2
ENDMDL
