MODEL 1
REMARK VINA RESULT:      -3.4      0.000      0.000
REMARK  4 active torsions:
REMARK  status: ('A' for Active; 'I' for Inactive)
REMARK    1  A    between atoms: C_2  and  S_1 
REMARK    2  A    between atoms: N_4  and  S_1 
REMARK    3  A    between atoms: C_11  and  N_4 
REMARK    4  A    between atoms: C_9  and  C_11 
ROOT
ATOM      1  S   UNL d   1      57.739  -0.093  30.686  0.00  0.00     0.285 S 
ATOM      2  O   UNL d   1      58.177  -0.511  31.247  0.00  0.00    -0.198 OA
ATOM      3  O   UNL d   1      57.301   0.325  30.126  0.00  0.00    -0.198 OA
ENDROOT
BRANCH   1   4
ATOM      4  C   UNL d   1      58.405  -0.043  30.203  0.00  0.00     0.105 A 
ATOM      5  C   UNL d   1      58.598  -0.672  29.699  0.00  0.00     0.012 A 
ATOM      6  C   UNL d   1      59.264  -0.622  29.216  0.00  0.00     0.001 A 
ATOM      7  C   UNL d   1      58.125  -1.348  29.680  0.00  0.00     0.001 C 
ATOM      8  C   UNL d   1      59.458  -1.248  28.713  0.00  0.00     0.000 C 
ATOM      9  C   UNL d   1      59.739   0.057  29.236  0.00  0.00     0.000 A 
ATOM     10  C   UNL d   1      59.545   0.682  29.739  0.00  0.00     0.001 A 
ATOM     11  C   UNL d   1      60.406   0.107  28.753  0.00  0.00     0.000 C 
ATOM     12  C   UNL d   1      58.879   0.632  30.221  0.00  0.00     0.013 A 
ENDBRANCH   1   4
BRANCH   1  13
ATOM     13  N   UNL d   1      57.072  -0.143  31.169  0.00  0.00    -0.155 NA
BRANCH  13  14
ATOM     14  C   UNL d   1      57.130   0.052  31.973  0.00  0.00     0.137 C 
BRANCH  14  15
ATOM     15  C   UNL d   1      56.456   0.034  32.449  0.00  0.00     0.120 A 
ATOM     16  O   UNL d   1      55.983   0.680  32.640  0.00  0.00    -0.304 OA
ATOM     17  C   UNL d   1      55.376   0.411  33.124  0.00  0.00     0.123 A 
ATOM     18  C   UNL d   1      55.474  -0.401  33.231  0.00  0.00     0.029 A 
ATOM     19  C   UNL d   1      56.142  -0.633  32.813  0.00  0.00     0.028 A 
ENDBRANCH  14  15
ENDBRANCH  13  14
ENDBRANCH   1  13
TORSDOF 4
ENDMDL
MODEL 2
REMARK VINA RESULT:      -2.1      1.505      2.274
REMARK  4 active torsions:
REMARK  status: ('A' for Active; 'I' for Inactive)
REMARK    1  A    between atoms: C_2  and  S_1 
REMARK    2  A    between atoms: N_4  and  S_1 
REMARK    3  A    between atoms: C_11  and  N_4 
REMARK    4  A    between atoms: C_9  and  C_11 
ROOT
ATOM      1  S   UNL d   1      56.444  -0.011  32.508  0.00  0.00     0.285 S 
ATOM      2  O   UNL d   1      56.945  -0.466  32.979  0.00  0.00    -0.198 OA
ATOM      3  O   UNL d   1      55.942   0.445  32.038  0.00  0.00    -0.198 OA
ENDROOT
BRANCH   1   4
ATOM      4  C   UNL d   1      57.017   0.008  31.915  0.00  0.00     0.105 A 
ATOM      5  C   UNL d   1      57.095  -0.635  31.397  0.00  0.00     0.012 A 
ATOM      6  C   UNL d   1      57.668  -0.617  30.804  0.00  0.00     0.001 A 
ATOM      7  C   UNL d   1      56.601  -1.292  31.474  0.00  0.00     0.001 C 
ATOM      8  C   UNL d   1      57.748  -1.256  30.287  0.00  0.00     0.000 C 
ATOM      9  C   UNL d   1      58.163   0.044  30.728  0.00  0.00     0.000 A 
ATOM     10  C   UNL d   1      58.083   0.682  31.245  0.00  0.00     0.001 A 
ATOM     11  C   UNL d   1      58.736   0.062  30.135  0.00  0.00     0.000 C 
ATOM     12  C   UNL d   1      57.511   0.664  31.838  0.00  0.00     0.013 A 
ENDBRANCH   1   4
BRANCH   1  13
ATOM     13  N   UNL d   1      55.871  -0.029  33.101  0.00  0.00    -0.155 NA
BRANCH  13  14
ATOM     14  C   UNL d   1      56.089   0.104  33.890  0.00  0.00     0.137 C 
BRANCH  14  15
ATOM     15  C   UNL d   1      55.517   0.320  34.443  0.00  0.00     0.120 A 
ATOM     16  O   UNL d   1      55.653   0.481  35.239  0.00  0.00    -0.304 OA
ATOM     17  C   UNL d   1      54.932   0.673  35.582  0.00  0.00     0.123 A 
ATOM     18  C   UNL d   1      54.351   0.632  34.998  0.00  0.00     0.029 A 
ATOM     19  C   UNL d   1      54.714   0.414  34.295  0.00  0.00     0.028 A 
ENDBRANCH  14  15
ENDBRANCH  13  14
ENDBRANCH   1  13
TORSDOF 4
ENDMDL
