MODEL 1
REMARK VINA RESULT:       1.6      0.000      0.000
REMARK  4 active torsions:
REMARK  status: ('A' for Active; 'I' for Inactive)
REMARK    1  A    between atoms: C_2  and  C_1 
REMARK    2  A    between atoms: C_16  and  C_4 
REMARK    3  A    between atoms: C_28  and  C_15 
REMARK    4  A    between atoms: N_17  and  C_16 
ROOT
ATOM      1  C   UNL d   1     -41.738-122.982 -50.129  0.00  0.00     0.098 A 
ATOM      2  C   UNL d   1     -41.341-122.396 -52.508  0.00  0.00     0.079 A 
ATOM      3  C   UNL d   1     -41.521-121.993 -51.151  0.00  0.00     0.062 A 
ATOM      4  C   UNL d   1     -41.653-122.181 -50.359  0.00  0.00     0.202 A 
ATOM      5  C   UNL d   1     -41.471-122.590 -51.730  0.00  0.00     0.108 A 
ATOM      6  C   UNL d   1     -41.688-123.579 -50.709  0.00  0.00     0.129 A 
ATOM      7  O   UNL d   1     -41.555-123.387 -51.511  0.00  0.00    -0.305 OA
ATOM      8  C   UNL d   1     -41.258-121.608 -52.730  0.00  0.00     0.199 A 
ATOM      9  C   UNL d   1     -41.438-121.202 -51.370  0.00  0.00     0.008 A 
ATOM     10  C   UNL d   1     -41.307-121.018 -52.158  0.00  0.00     0.039 A 
ATOM     11  O   UNL d   1     -41.701-121.591 -49.793  0.00  0.00    -0.286 OA
ATOM     12  O   UNL d   1     -41.126-121.407 -53.514  0.00  0.00    -0.286 OA
ENDROOT
BRANCH   1  13
ATOM     13  C   UNL d   1     -41.870-123.176 -49.338  0.00  0.00     0.153 A 
ATOM     14  N   UNL d   1     -41.286-123.278 -48.758  0.00  0.00    -0.227 NA
ATOM     15  C   UNL d   1     -41.669-123.467 -48.048  0.00  0.00     0.099 A 
ATOM     16  C   UNL d   1     -41.372-123.625 -47.302  0.00  0.00     0.021 A 
ATOM     17  C   UNL d   1     -42.472-123.483 -48.186  0.00  0.00     0.083 A 
ATOM     18  C   UNL d   1     -41.890-123.802 -46.684  0.00  0.00     0.002 A 
ATOM     19  C   UNL d   1     -42.697-123.817 -46.820  0.00  0.00     0.002 A 
ATOM     20  C   UNL d   1     -42.995-123.656 -47.582  0.00  0.00     0.019 A 
ATOM     21  N   UNL d   1     -42.605-123.301 -48.992  0.00  0.00    -0.288 N 
ATOM     22  C   UNL d   1     -43.334-123.254 -49.377  0.00  0.00     0.101 C 
ENDBRANCH   1  13
BRANCH  10  23
ATOM     23  C   UNL d   1     -41.223-120.220 -52.383  0.00  0.00     0.003 C 
ATOM     24  C   UNL d   1     -41.130-119.630 -51.811  0.00  0.00     0.000 C 
ENDBRANCH  10  23
BRANCH   2  25
ATOM     25  C   UNL d   1     -41.292-122.985 -53.080  0.00  0.00     0.086 C 
BRANCH  25  26
ATOM     26  N   UNL d   1     -41.717-122.919 -53.775  0.00  0.00    -0.300 N 
ATOM     27  C   UNL d   1     -42.545-123.013 -53.769  0.00  0.00     0.100 A 
ATOM     28  C   UNL d   1     -42.969-122.943 -54.488  0.00  0.00     0.100 A 
ATOM     29  N   UNL d   1     -42.576-122.782 -55.192  0.00  0.00    -0.299 N 
ATOM     30  C   UNL d   1     -41.748-122.689 -55.189  0.00  0.00     0.100 A 
ATOM     31  C   UNL d   1     -43.001-122.714 -55.901  0.00  0.00     0.100 C 
ATOM     32  C   UNL d   1     -41.323-122.757 -54.485  0.00  0.00     0.100 A 
ENDBRANCH  25  26
ENDBRANCH   2  25
TORSDOF 4
ENDMDL
