MODEL 1
REMARK VINA RESULT:      -4.6      0.000      0.000
REMARK  9 active torsions:
REMARK  status: ('A' for Active; 'I' for Inactive)
REMARK    1  A    between atoms: N_6  and  C_1 
REMARK    2  A    between atoms: N_2  and  C_12 
REMARK    3  A    between atoms: C_3  and  N_6 
REMARK    4  A    between atoms: N_4  and  C_3 
REMARK       I    between atoms: C_7  and  N_4 
REMARK    5  A    between atoms: C_16  and  C_7 
REMARK    6  A    between atoms: C_10  and  C_8 
REMARK    7  A    between atoms: C_13  and  C_10 
REMARK    8  A    between atoms: O_24  and  C_13 
REMARK    9  A    between atoms: C_25  and  O_24 
ROOT
ATOM      1  C   UNL d   1     -46.159  13.705  22.625  0.00  0.00     0.277 C 
ATOM      2  S   UNL d   1     -46.199  14.515  22.777  0.00  0.00    -0.023 SA
ENDROOT
BRANCH   1   3
ATOM      3  N   UNL d   1     -45.449  13.370  22.369  0.00  0.00    -0.347 NA
BRANCH   3   4
ATOM      4  C   UNL d   1     -44.744  13.035  22.108  0.00  0.00     0.248 A 
ATOM      5  N   UNL d   1     -44.199  13.375  21.581  0.00  0.00    -0.210 NA
ATOM      6  C   UNL d   1     -43.577  12.842  21.480  0.00  0.00     0.096 A 
ATOM      7  C   UNL d   1     -43.737  12.177  21.943  0.00  0.00     0.059 A 
ATOM      8  S   UNL d   1     -44.448  12.295  22.326  0.00  0.00    -0.033 SA
BRANCH   6   9
ATOM      9  C   UNL d   1     -42.919  12.958  21.004  0.00  0.00     0.088 C 
BRANCH   9  10
ATOM     10  C   UNL d   1     -42.247  13.326  21.301  0.00  0.00     0.302 C 
ATOM     11  O   UNL d   1     -41.816  12.956  21.899  0.00  0.00    -0.259 OA
BRANCH  10  12
ATOM     12  O   UNL d   1     -42.006  14.054  21.009  0.00  0.00    -0.271 OA
BRANCH  12  13
ATOM     13  C   UNL d   1     -41.214  14.183  20.822  0.00  0.00     0.126 C 
ATOM     14  C   UNL d   1     -40.949  14.941  20.650  0.00  0.00     0.029 C 
ENDBRANCH  12  13
ENDBRANCH  10  12
ENDBRANCH   9  10
ENDBRANCH   6   9
ENDBRANCH   3   4
ENDBRANCH   1   3
BRANCH   1  15
ATOM     15  N   UNL d   1     -46.828  13.237  22.730  0.00  0.00    -0.168 NA
ATOM     16  C   UNL d   1     -47.569  13.587  22.842  0.00  0.00     0.282 C 
ATOM     17  O   UNL d   1     -47.640  14.405  22.850  0.00  0.00    -0.265 OA
BRANCH  16  18
ATOM     18  C   UNL d   1     -48.237  13.111  22.947  0.00  0.00     0.058 A 
ATOM     19  C   UNL d   1     -48.862  13.163  22.428  0.00  0.00     0.006 A 
ATOM     20  C   UNL d   1     -49.531  12.686  22.534  0.00  0.00     0.024 A 
ATOM     21  C   UNL d   1     -49.562  12.156  23.168  0.00  0.00     0.127 A 
ATOM     22  C   UNL d   1     -48.922  12.106  23.695  0.00  0.00     0.024 A 
ATOM     23  C   UNL d   1     -48.262  12.580  23.586  0.00  0.00     0.006 A 
BRANCH  21  24
ATOM     24  N   UNL d   1     -50.223  11.680  23.278  0.00  0.00    -0.114 N 
ATOM     25  O   UNL d   1     -50.146  10.933  23.626  0.00  0.00    -0.532 OA
ATOM     26  O   UNL d   1     -50.962  11.948  23.041  0.00  0.00    -0.532 OA
ENDBRANCH  21  24
ENDBRANCH  16  18
ENDBRANCH   1  15
TORSDOF 9
ENDMDL
MODEL 2
REMARK VINA RESULT:      -4.1      2.103      3.371
REMARK  9 active torsions:
REMARK  status: ('A' for Active; 'I' for Inactive)
REMARK    1  A    between atoms: N_6  and  C_1 
REMARK    2  A    between atoms: N_2  and  C_12 
REMARK    3  A    between atoms: C_3  and  N_6 
REMARK    4  A    between atoms: N_4  and  C_3 
REMARK       I    between atoms: C_7  and  N_4 
REMARK    5  A    between atoms: C_16  and  C_7 
REMARK    6  A    between atoms: C_10  and  C_8 
REMARK    7  A    between atoms: C_13  and  C_10 
REMARK    8  A    between atoms: O_24  and  C_13 
REMARK    9  A    between atoms: C_25  and  O_24 
ROOT
ATOM      1  C   UNL d   1     -43.366  12.942  21.559  0.00  0.00     0.277 C 
ATOM      2  S   UNL d   1     -43.250  12.146  21.744  0.00  0.00    -0.023 SA
ENDROOT
BRANCH   1   3
ATOM      3  N   UNL d   1     -42.745  13.385  21.246  0.00  0.00    -0.347 NA
BRANCH   3   4
ATOM      4  C   UNL d   1     -42.122  13.823  20.932  0.00  0.00     0.248 A 
ATOM      5  N   UNL d   1     -41.673  13.632  20.260  0.00  0.00    -0.210 NA
ATOM      6  C   UNL d   1     -41.111  14.227  20.152  0.00  0.00     0.096 A 
ATOM      7  C   UNL d   1     -41.213  14.782  20.756  0.00  0.00     0.059 A 
ATOM      8  S   UNL d   1     -41.829  14.535  21.230  0.00  0.00    -0.033 SA
BRANCH   6   9
ATOM      9  C   UNL d   1     -40.553  14.257  19.552  0.00  0.00     0.088 C 
BRANCH   9  10
ATOM     10  C   UNL d   1     -40.785  14.366  18.771  0.00  0.00     0.302 C 
ATOM     11  O   UNL d   1     -41.080  13.726  18.345  0.00  0.00    -0.259 OA
BRANCH  10  12
ATOM     12  O   UNL d   1     -40.723  15.104  18.417  0.00  0.00    -0.271 OA
BRANCH  12  13
ATOM     13  C   UNL d   1     -40.565  15.165  17.611  0.00  0.00     0.126 C 
ATOM     14  C   UNL d   1     -40.539  15.902  17.250  0.00  0.00     0.029 C 
ENDBRANCH  12  13
ENDBRANCH  10  12
ENDBRANCH   9  10
ENDBRANCH   6   9
ENDBRANCH   3   4
ENDBRANCH   1   3
BRANCH   1  15
ATOM     15  N   UNL d   1     -44.103  13.287  21.690  0.00  0.00    -0.168 NA
ATOM     16  C   UNL d   1     -44.651  12.923  22.191  0.00  0.00     0.282 C 
ATOM     17  O   UNL d   1     -44.464  12.215  22.561  0.00  0.00    -0.265 OA
BRANCH  16  18
ATOM     18  C   UNL d   1     -45.389  13.275  22.317  0.00  0.00     0.058 A 
ATOM     19  C   UNL d   1     -45.435  14.047  22.572  0.00  0.00     0.006 A 
ATOM     20  C   UNL d   1     -46.174  14.399  22.699  0.00  0.00     0.024 A 
ATOM     21  C   UNL d   1     -46.865  13.965  22.565  0.00  0.00     0.127 A 
ATOM     22  C   UNL d   1     -46.814  13.178  22.305  0.00  0.00     0.024 A 
ATOM     23  C   UNL d   1     -46.080  12.833  22.181  0.00  0.00     0.006 A 
BRANCH  21  24
ATOM     24  N   UNL d   1     -47.602  14.309  22.689  0.00  0.00    -0.114 N 
ATOM     25  O   UNL d   1     -48.206  13.880  23.058  0.00  0.00    -0.532 OA
ATOM     26  O   UNL d   1     -47.736  15.082  22.445  0.00  0.00    -0.532 OA
ENDBRANCH  21  24
ENDBRANCH  16  18
ENDBRANCH   1  15
TORSDOF 9
ENDMDL
MODEL 3
REMARK VINA RESULT:      -4.1      1.682      2.019
REMARK  9 active torsions:
REMARK  status: ('A' for Active; 'I' for Inactive)
REMARK    1  A    between atoms: N_6  and  C_1 
REMARK    2  A    between atoms: N_2  and  C_12 
REMARK    3  A    between atoms: C_3  and  N_6 
REMARK    4  A    between atoms: N_4  and  C_3 
REMARK       I    between atoms: C_7  and  N_4 
REMARK    5  A    between atoms: C_16  and  C_7 
REMARK    6  A    between atoms: C_10  and  C_8 
REMARK    7  A    between atoms: C_13  and  C_10 
REMARK    8  A    between atoms: O_24  and  C_13 
REMARK    9  A    between atoms: C_25  and  O_24 
ROOT
ATOM      1  C   UNL d   1     -46.933  12.433  23.263  0.00  0.00     0.277 C 
ATOM      2  S   UNL d   1     -47.150  11.766  23.698  0.00  0.00    -0.023 SA
ENDROOT
BRANCH   1   3
ATOM      3  N   UNL d   1     -46.182  12.476  22.925  0.00  0.00    -0.347 NA
BRANCH   3   4
ATOM      4  C   UNL d   1     -45.430  12.519  22.593  0.00  0.00     0.248 A 
ATOM      5  N   UNL d   1     -45.132  13.134  22.120  0.00  0.00    -0.210 NA
ATOM      6  C   UNL d   1     -44.357  12.942  21.912  0.00  0.00     0.096 A 
ATOM      7  C   UNL d   1     -44.177  12.212  22.255  0.00  0.00     0.059 A 
ATOM      8  S   UNL d   1     -44.831  11.955  22.669  0.00  0.00    -0.033 SA
BRANCH   6   9
ATOM      9  C   UNL d   1     -43.858  13.399  21.448  0.00  0.00     0.088 C 
BRANCH   9  10
ATOM     10  C   UNL d   1     -43.116  13.120  21.233  0.00  0.00     0.302 C 
ATOM     11  O   UNL d   1     -43.059  12.442  20.768  0.00  0.00    -0.259 OA
BRANCH  10  12
ATOM     12  O   UNL d   1     -42.436  13.510  21.477  0.00  0.00    -0.271 OA
BRANCH  12  13
ATOM     13  C   UNL d   1     -41.968  13.909  20.929  0.00  0.00     0.126 C 
ATOM     14  C   UNL d   1     -41.191  14.099  21.112  0.00  0.00     0.029 C 
ENDBRANCH  12  13
ENDBRANCH  10  12
ENDBRANCH   9  10
ENDBRANCH   6   9
ENDBRANCH   3   4
ENDBRANCH   1   3
BRANCH   1  15
ATOM     15  N   UNL d   1     -47.470  13.052  23.171  0.00  0.00    -0.168 NA
ATOM     16  C   UNL d   1     -48.280  12.896  23.110  0.00  0.00     0.282 C 
ATOM     17  O   UNL d   1     -48.553  12.122  23.142  0.00  0.00    -0.265 OA
BRANCH  16  18
ATOM     18  C   UNL d   1     -48.813  13.521  23.018  0.00  0.00     0.058 A 
ATOM     19  C   UNL d   1     -48.641  14.133  22.509  0.00  0.00     0.006 A 
ATOM     20  C   UNL d   1     -49.175  14.759  22.416  0.00  0.00     0.024 A 
ATOM     21  C   UNL d   1     -49.883  14.761  22.843  0.00  0.00     0.127 A 
ATOM     22  C   UNL d   1     -50.055  14.136  23.361  0.00  0.00     0.024 A 
ATOM     23  C   UNL d   1     -49.523  13.518  23.450  0.00  0.00     0.006 A 
BRANCH  21  24
ATOM     24  N   UNL d   1     -50.418  15.381  22.755  0.00  0.00    -0.114 N 
ATOM     25  O   UNL d   1     -50.560  15.901  23.383  0.00  0.00    -0.532 OA
ATOM     26  O   UNL d   1     -50.810  15.482  22.041  0.00  0.00    -0.532 OA
ENDBRANCH  21  24
ENDBRANCH  16  18
ENDBRANCH   1  15
TORSDOF 9
ENDMDL
MODEL 4
REMARK VINA RESULT:      -4.0      1.860      2.525
REMARK  9 active torsions:
REMARK  status: ('A' for Active; 'I' for Inactive)
REMARK    1  A    between atoms: N_6  and  C_1 
REMARK    2  A    between atoms: N_2  and  C_12 
REMARK    3  A    between atoms: C_3  and  N_6 
REMARK    4  A    between atoms: N_4  and  C_3 
REMARK       I    between atoms: C_7  and  N_4 
REMARK    5  A    between atoms: C_16  and  C_7 
REMARK    6  A    between atoms: C_10  and  C_8 
REMARK    7  A    between atoms: C_13  and  C_10 
REMARK    8  A    between atoms: O_24  and  C_13 
REMARK    9  A    between atoms: C_25  and  O_24 
ROOT
ATOM      1  C   UNL d   1     -44.459  12.613  22.135  0.00  0.00     0.277 C 
ATOM      2  S   UNL d   1     -44.447  11.893  22.537  0.00  0.00    -0.023 SA
ENDROOT
BRANCH   1   3
ATOM      3  N   UNL d   1     -43.777  12.884  21.757  0.00  0.00    -0.347 NA
BRANCH   3   4
ATOM      4  C   UNL d   1     -43.100  13.152  21.374  0.00  0.00     0.248 A 
ATOM      5  N   UNL d   1     -42.501  13.625  21.702  0.00  0.00    -0.210 NA
ATOM      6  C   UNL d   1     -41.933  13.757  21.119  0.00  0.00     0.096 A 
ATOM      7  C   UNL d   1     -42.180  13.368  20.433  0.00  0.00     0.059 A 
ATOM      8  S   UNL d   1     -42.891  13.000  20.590  0.00  0.00    -0.033 SA
BRANCH   6   9
ATOM      9  C   UNL d   1     -41.246  14.198  21.208  0.00  0.00     0.088 C 
BRANCH   9  10
ATOM     10  C   UNL d   1     -41.172  14.933  20.849  0.00  0.00     0.302 C 
ATOM     11  O   UNL d   1     -41.672  15.546  21.078  0.00  0.00    -0.259 OA
BRANCH  10  12
ATOM     12  O   UNL d   1     -40.606  15.058  20.267  0.00  0.00    -0.271 OA
BRANCH  12  13
ATOM     13  C   UNL d   1     -40.183  15.765  20.246  0.00  0.00     0.126 C 
ATOM     14  C   UNL d   1     -39.578  15.866  19.700  0.00  0.00     0.029 C 
ENDBRANCH  12  13
ENDBRANCH  10  12
ENDBRANCH   9  10
ENDBRANCH   6   9
ENDBRANCH   3   4
ENDBRANCH   1   3
BRANCH   1  15
ATOM     15  N   UNL d   1     -45.153  13.056  22.114  0.00  0.00    -0.168 NA
ATOM     16  C   UNL d   1     -45.723  12.967  22.707  0.00  0.00     0.282 C 
ATOM     17  O   UNL d   1     -45.599  12.435  23.320  0.00  0.00    -0.265 OA
BRANCH  16  18
ATOM     18  C   UNL d   1     -46.418  13.415  22.680  0.00  0.00     0.058 A 
ATOM     19  C   UNL d   1     -47.121  13.067  22.463  0.00  0.00     0.006 A 
ATOM     20  C   UNL d   1     -47.816  13.516  22.436  0.00  0.00     0.024 A 
ATOM     21  C   UNL d   1     -47.794  14.320  22.631  0.00  0.00     0.127 A 
ATOM     22  C   UNL d   1     -47.075  14.671  22.851  0.00  0.00     0.024 A 
ATOM     23  C   UNL d   1     -46.389  14.222  22.877  0.00  0.00     0.006 A 
BRANCH  21  24
ATOM     24  N   UNL d   1     -48.481  14.771  22.606  0.00  0.00    -0.114 N 
ATOM     25  O   UNL d   1     -48.743  15.094  21.890  0.00  0.00    -0.532 OA
ATOM     26  O   UNL d   1     -48.908  14.901  23.295  0.00  0.00    -0.532 OA
ENDBRANCH  21  24
ENDBRANCH  16  18
ENDBRANCH   1  15
TORSDOF 9
ENDMDL
MODEL 5
REMARK VINA RESULT:      -4.0      2.326      5.800
REMARK  9 active torsions:
REMARK  status: ('A' for Active; 'I' for Inactive)
REMARK    1  A    between atoms: N_6  and  C_1 
REMARK    2  A    between atoms: N_2  and  C_12 
REMARK    3  A    between atoms: C_3  and  N_6 
REMARK    4  A    between atoms: N_4  and  C_3 
REMARK       I    between atoms: C_7  and  N_4 
REMARK    5  A    between atoms: C_16  and  C_7 
REMARK    6  A    between atoms: C_10  and  C_8 
REMARK    7  A    between atoms: C_13  and  C_10 
REMARK    8  A    between atoms: O_24  and  C_13 
REMARK    9  A    between atoms: C_25  and  O_24 
ROOT
ATOM      1  C   UNL d   1     -46.575  14.207  22.686  0.00  0.00     0.277 C 
ATOM      2  S   UNL d   1     -46.106  14.788  22.333  0.00  0.00    -0.023 SA
ENDROOT
BRANCH   1   3
ATOM      3  N   UNL d   1     -47.388  14.327  22.762  0.00  0.00    -0.347 NA
BRANCH   3   4
ATOM      4  C   UNL d   1     -48.198  14.451  22.836  0.00  0.00     0.248 A 
ATOM      5  N   UNL d   1     -48.747  13.939  23.191  0.00  0.00    -0.210 NA
ATOM      6  C   UNL d   1     -49.492  14.290  23.139  0.00  0.00     0.096 A 
ATOM      7  C   UNL d   1     -49.404  15.015  22.754  0.00  0.00     0.059 A 
ATOM      8  S   UNL d   1     -48.615  15.113  22.570  0.00  0.00    -0.033 SA
BRANCH   6   9
ATOM      9  C   UNL d   1     -50.194  13.971  23.422  0.00  0.00     0.088 C 
BRANCH   9  10
ATOM     10  C   UNL d   1     -50.398  13.194  23.249  0.00  0.00     0.302 C 
ATOM     11  O   UNL d   1     -50.958  13.045  22.663  0.00  0.00    -0.259 OA
BRANCH  10  12
ATOM     12  O   UNL d   1     -50.050  12.571  23.655  0.00  0.00    -0.271 OA
BRANCH  12  13
ATOM     13  C   UNL d   1     -50.403  11.826  23.653  0.00  0.00     0.126 C 
ATOM     14  C   UNL d   1     -49.939  11.150  23.692  0.00  0.00     0.029 C 
ENDBRANCH  12  13
ENDBRANCH  10  12
ENDBRANCH   9  10
ENDBRANCH   6   9
ENDBRANCH   3   4
ENDBRANCH   1   3
BRANCH   1  15
ATOM     15  N   UNL d   1     -46.226  13.513  22.959  0.00  0.00    -0.168 NA
ATOM     16  C   UNL d   1     -45.800  13.028  22.442  0.00  0.00     0.282 C 
ATOM     17  O   UNL d   1     -45.722  13.238  21.652  0.00  0.00    -0.265 OA
BRANCH  16  18
ATOM     18  C   UNL d   1     -45.453  12.332  22.723  0.00  0.00     0.058 A 
ATOM     19  C   UNL d   1     -45.896  11.796  23.145  0.00  0.00     0.006 A 
ATOM     20  C   UNL d   1     -45.548  11.099  23.427  0.00  0.00     0.024 A 
ATOM     21  C   UNL d   1     -44.748  10.950  23.278  0.00  0.00     0.127 A 
ATOM     22  C   UNL d   1     -44.299  11.499  22.847  0.00  0.00     0.024 A 
ATOM     23  C   UNL d   1     -44.648  12.188  22.570  0.00  0.00     0.006 A 
BRANCH  21  24
ATOM     24  N   UNL d   1     -44.396  10.259  23.555  0.00  0.00    -0.114 N 
ATOM     25  O   UNL d   1     -44.854   9.584  23.689  0.00  0.00    -0.532 OA
ATOM     26  O   UNL d   1     -43.588  10.244  23.698  0.00  0.00    -0.532 OA
ENDBRANCH  21  24
ENDBRANCH  16  18
ENDBRANCH   1  15
TORSDOF 9
ENDMDL
MODEL 6
REMARK VINA RESULT:      -3.6      1.555      6.798
REMARK  9 active torsions:
REMARK  status: ('A' for Active; 'I' for Inactive)
REMARK    1  A    between atoms: N_6  and  C_1 
REMARK    2  A    between atoms: N_2  and  C_12 
REMARK    3  A    between atoms: C_3  and  N_6 
REMARK    4  A    between atoms: N_4  and  C_3 
REMARK       I    between atoms: C_7  and  N_4 
REMARK    5  A    between atoms: C_16  and  C_7 
REMARK    6  A    between atoms: C_10  and  C_8 
REMARK    7  A    between atoms: C_13  and  C_10 
REMARK    8  A    between atoms: O_24  and  C_13 
REMARK    9  A    between atoms: C_25  and  O_24 
ROOT
ATOM      1  C   UNL d   1     -43.817  12.679  21.925  0.00  0.00     0.277 C 
ATOM      2  S   UNL d   1     -43.666  11.891  21.733  0.00  0.00    -0.023 SA
ENDROOT
BRANCH   1   3
ATOM      3  N   UNL d   1     -44.564  12.899  22.200  0.00  0.00    -0.347 NA
BRANCH   3   4
ATOM      4  C   UNL d   1     -45.309  13.121  22.469  0.00  0.00     0.248 A 
ATOM      5  N   UNL d   1     -45.761  12.736  23.050  0.00  0.00    -0.210 NA
ATOM      6  C   UNL d   1     -46.468  13.151  23.140  0.00  0.00     0.096 A 
ATOM      7  C   UNL d   1     -46.453  13.791  22.616  0.00  0.00     0.059 A 
ATOM      8  S   UNL d   1     -45.747  13.771  22.208  0.00  0.00    -0.033 SA
BRANCH   6   9
ATOM      9  C   UNL d   1     -47.075  12.960  23.658  0.00  0.00     0.088 C 
BRANCH   9  10
ATOM     10  C   UNL d   1     -47.539  12.294  23.530  0.00  0.00     0.302 C 
ATOM     11  O   UNL d   1     -47.216  11.547  23.659  0.00  0.00    -0.259 OA
BRANCH  10  12
ATOM     12  O   UNL d   1     -48.316  12.369  23.278  0.00  0.00    -0.271 OA
BRANCH  12  13
ATOM     13  C   UNL d   1     -48.902  11.880  23.589  0.00  0.00     0.126 C 
ATOM     14  C   UNL d   1     -49.678  11.952  23.332  0.00  0.00     0.029 C 
ENDBRANCH  12  13
ENDBRANCH  10  12
ENDBRANCH   9  10
ENDBRANCH   6   9
ENDBRANCH   3   4
ENDBRANCH   1   3
BRANCH   1  15
ATOM     15  N   UNL d   1     -43.220  13.241  21.842  0.00  0.00    -0.168 NA
ATOM     16  C   UNL d   1     -42.687  13.192  21.211  0.00  0.00     0.282 C 
ATOM     17  O   UNL d   1     -42.751  12.583  20.664  0.00  0.00    -0.265 OA
BRANCH  16  18
ATOM     18  C   UNL d   1     -42.091  13.760  21.133  0.00  0.00     0.058 A 
ATOM     19  C   UNL d   1     -42.260  14.490  20.816  0.00  0.00     0.006 A 
ATOM     20  C   UNL d   1     -41.662  15.058  20.738  0.00  0.00     0.024 A 
ATOM     21  C   UNL d   1     -40.892  14.880  20.983  0.00  0.00     0.127 A 
ATOM     22  C   UNL d   1     -40.724  14.134  21.306  0.00  0.00     0.024 A 
ATOM     23  C   UNL d   1     -41.319  13.575  21.381  0.00  0.00     0.006 A 
BRANCH  21  24
ATOM     24  N   UNL d   1     -40.294  15.441  20.908  0.00  0.00    -0.114 N 
ATOM     25  O   UNL d   1     -39.885  15.520  20.194  0.00  0.00    -0.532 OA
ATOM     26  O   UNL d   1     -40.104  15.921  21.547  0.00  0.00    -0.532 OA
ENDBRANCH  21  24
ENDBRANCH  16  18
ENDBRANCH   1  15
TORSDOF 9
ENDMDL
