MODEL 1
REMARK VINA RESULT:      -8.5      0.000      0.000
REMARK  4 active torsions:
REMARK  status: ('A' for Active; 'I' for Inactive)
REMARK    1  A    between atoms: C_8  and  C_1 
REMARK    2  A    between atoms: C_6  and  O_10 
REMARK       I    between atoms: N_13  and  C_6 
REMARK    3  A    between atoms: C_11  and  C_8 
REMARK    4  A    between atoms: O_10  and  C_9 
ROOT
ATOM      1  C   UNL d   1      53.361  32.906  53.579  0.00  0.00     0.141 A 
ATOM      2  C   UNL d   1      52.253  33.631  53.344  0.00  0.00     0.105 A 
ATOM      3  O   UNL d   1      53.044  33.676  53.588  0.00  0.00    -0.304 OA
ATOM      4  C   UNL d   1      52.074  32.836  53.183  0.00  0.00     0.064 A 
ATOM      5  C   UNL d   1      52.752  32.386  53.326  0.00  0.00     0.220 A 
ATOM      6  C   UNL d   1      51.676  34.212  53.250  0.00  0.00     0.046 A 
ATOM      7  C   UNL d   1      50.920  34.002  52.995  0.00  0.00     0.107 A 
ATOM      8  C   UNL d   1      51.320  32.633  52.930  0.00  0.00     0.007 A 
ATOM      9  O   UNL d   1      52.827  31.565  53.237  0.00  0.00    -0.284 OA
ATOM     10  C   UNL d   1      50.741  33.208  52.834  0.00  0.00     0.025 A 
ATOM     11  C   UNL d   1      51.850  35.002  53.409  0.00  0.00     0.004 C 
ENDROOT
BRANCH   1  12
ATOM     12  C   UNL d   1      54.132  32.691  53.781  0.00  0.00     0.053 C 
BRANCH  12  13
ATOM     13  C   UNL d   1      54.509  33.056  54.417  0.00  0.00     0.102 A 
ATOM     14  O   UNL d   1      54.316  32.956  55.218  0.00  0.00    -0.305 OA
ATOM     15  C   UNL d   1      54.830  33.421  55.663  0.00  0.00     0.123 A 
ATOM     16  C   UNL d   1      55.342  33.810  55.135  0.00  0.00     0.029 A 
ATOM     17  C   UNL d   1      55.138  33.580  54.370  0.00  0.00     0.027 A 
ENDBRANCH  12  13
ENDBRANCH   1  12
BRANCH   7  18
ATOM     18  O   UNL d   1      50.343  34.579  52.900  0.00  0.00    -0.259 OA
BRANCH  18  19
ATOM     19  C   UNL d   1      49.855  34.580  52.232  0.00  0.00     0.378 C 
ATOM     20  N   UNL d   1      49.110  34.942  52.267  0.00  0.00    -0.249 N 
ATOM     21  C   UNL d   1      48.619  34.945  51.599  0.00  0.00     0.104 C 
ATOM     22  C   UNL d   1      48.853  35.303  52.969  0.00  0.00     0.104 C 
ATOM     23  O   UNL d   1      50.107  34.221  51.533  0.00  0.00    -0.237 OA
ENDBRANCH  18  19
ENDBRANCH   7  18
TORSDOF 4
ENDMDL
MODEL 2
REMARK VINA RESULT:      -7.7      2.317      3.556
REMARK  4 active torsions:
REMARK  status: ('A' for Active; 'I' for Inactive)
REMARK    1  A    between atoms: C_8  and  C_1 
REMARK    2  A    between atoms: C_6  and  O_10 
REMARK       I    between atoms: N_13  and  C_6 
REMARK    3  A    between atoms: C_11  and  C_8 
REMARK    4  A    between atoms: O_10  and  C_9 
ROOT
ATOM      1  C   UNL d   1      53.302  30.649  53.416  0.00  0.00     0.141 A 
ATOM      2  C   UNL d   1      53.454  31.913  53.846  0.00  0.00     0.105 A 
ATOM      3  O   UNL d   1      53.657  31.125  54.000  0.00  0.00    -0.304 OA
ATOM      4  C   UNL d   1      52.973  31.933  53.170  0.00  0.00     0.064 A 
ATOM      5  C   UNL d   1      52.876  31.157  52.901  0.00  0.00     0.220 A 
ATOM      6  C   UNL d   1      53.646  32.613  54.237  0.00  0.00     0.046 A 
ATOM      7  C   UNL d   1      53.359  33.333  53.956  0.00  0.00     0.107 A 
ATOM      8  C   UNL d   1      52.690  32.652  52.893  0.00  0.00     0.007 A 
ATOM      9  O   UNL d   1      52.437  30.916  52.240  0.00  0.00    -0.284 OA
ATOM     10  C   UNL d   1      52.878  33.353  53.279  0.00  0.00     0.025 A 
ATOM     11  C   UNL d   1      54.124  32.598  54.910  0.00  0.00     0.004 C 
ENDROOT
BRANCH   1  12
ATOM     12  C   UNL d   1      53.356  29.828  53.353  0.00  0.00     0.053 C 
BRANCH  12  13
ATOM     13  C   UNL d   1      53.330  29.359  54.031  0.00  0.00     0.102 A 
ATOM     14  O   UNL d   1      52.677  29.274  54.536  0.00  0.00    -0.305 OA
ATOM     15  C   UNL d   1      52.890  28.756  55.141  0.00  0.00     0.123 A 
ATOM     16  C   UNL d   1      53.677  28.521  55.009  0.00  0.00     0.029 A 
ATOM     17  C   UNL d   1      53.940  28.897  54.323  0.00  0.00     0.027 A 
ENDBRANCH  12  13
ENDBRANCH   1  12
BRANCH   7  18
ATOM     18  O   UNL d   1      53.549  34.032  54.343  0.00  0.00    -0.259 OA
BRANCH  18  19
ATOM     19  C   UNL d   1      53.204  34.748  54.112  0.00  0.00     0.378 C 
ATOM     20  N   UNL d   1      53.094  35.350  54.670  0.00  0.00    -0.249 N 
ATOM     21  C   UNL d   1      52.749  36.069  54.442  0.00  0.00     0.104 C 
ATOM     22  C   UNL d   1      53.329  35.238  55.459  0.00  0.00     0.104 C 
ATOM     23  O   UNL d   1      52.970  34.863  53.330  0.00  0.00    -0.237 OA
ENDBRANCH  18  19
ENDBRANCH   7  18
TORSDOF 4
ENDMDL
MODEL 3
REMARK VINA RESULT:      -7.3      1.144      2.082
REMARK  4 active torsions:
REMARK  status: ('A' for Active; 'I' for Inactive)
REMARK    1  A    between atoms: C_8  and  C_1 
REMARK    2  A    between atoms: C_6  and  O_10 
REMARK       I    between atoms: N_13  and  C_6 
REMARK    3  A    between atoms: C_11  and  C_8 
REMARK    4  A    between atoms: O_10  and  C_9 
ROOT
ATOM      1  C   UNL d   1      53.202  32.561  53.565  0.00  0.00     0.141 A 
ATOM      2  C   UNL d   1      52.030  33.108  53.197  0.00  0.00     0.105 A 
ATOM      3  O   UNL d   1      52.410  32.392  53.368  0.00  0.00    -0.304 OA
ATOM      4  C   UNL d   1      52.579  33.724  53.284  0.00  0.00     0.064 A 
ATOM      5  C   UNL d   1      53.302  33.393  53.511  0.00  0.00     0.220 A 
ATOM      6  C   UNL d   1      51.255  33.274  52.972  0.00  0.00     0.046 A 
ATOM      7  C   UNL d   1      51.025  34.054  52.835  0.00  0.00     0.107 A 
ATOM      8  C   UNL d   1      52.346  34.499  53.147  0.00  0.00     0.007 A 
ATOM      9  O   UNL d   1      54.007  33.803  53.660  0.00  0.00    -0.284 OA
ATOM     10  C   UNL d   1      51.574  34.671  52.922  0.00  0.00     0.025 A 
ATOM     11  C   UNL d   1      50.705  32.665  52.884  0.00  0.00     0.004 C 
ENDROOT
BRANCH   1  12
ATOM     12  C   UNL d   1      53.782  32.014  53.774  0.00  0.00     0.053 C 
BRANCH  12  13
ATOM     13  C   UNL d   1      53.616  31.206  53.750  0.00  0.00     0.102 A 
ATOM     14  O   UNL d   1      53.311  30.755  54.377  0.00  0.00    -0.305 OA
ATOM     15  C   UNL d   1      53.231  29.978  54.115  0.00  0.00     0.123 A 
ATOM     16  C   UNL d   1      53.488  29.949  53.325  0.00  0.00     0.029 A 
ATOM     17  C   UNL d   1      53.723  30.709  53.107  0.00  0.00     0.027 A 
ENDBRANCH  12  13
ENDBRANCH   1  12
BRANCH   7  18
ATOM     18  O   UNL d   1      50.253  34.224  52.611  0.00  0.00    -0.259 OA
BRANCH  18  19
ATOM     19  C   UNL d   1      49.833  34.834  52.977  0.00  0.00     0.378 C 
ATOM     20  N   UNL d   1      49.121  35.100  52.648  0.00  0.00    -0.249 N 
ATOM     21  C   UNL d   1      48.697  35.712  53.013  0.00  0.00     0.104 C 
ATOM     22  C   UNL d   1      48.828  34.756  51.951  0.00  0.00     0.104 C 
ATOM     23  O   UNL d   1      50.120  35.179  53.670  0.00  0.00    -0.237 OA
ENDBRANCH  18  19
ENDBRANCH   7  18
TORSDOF 4
ENDMDL
MODEL 4
REMARK VINA RESULT:      -7.2      2.239      4.738
REMARK  4 active torsions:
REMARK  status: ('A' for Active; 'I' for Inactive)
REMARK    1  A    between atoms: C_8  and  C_1 
REMARK    2  A    between atoms: C_6  and  O_10 
REMARK       I    between atoms: N_13  and  C_6 
REMARK    3  A    between atoms: C_11  and  C_8 
REMARK    4  A    between atoms: O_10  and  C_9 
ROOT
ATOM      1  C   UNL d   1      52.489  33.700  53.025  0.00  0.00     0.141 A 
ATOM      2  C   UNL d   1      52.795  32.404  53.211  0.00  0.00     0.105 A 
ATOM      3  O   UNL d   1      52.292  32.921  52.804  0.00  0.00    -0.304 OA
ATOM      4  C   UNL d   1      53.306  32.854  53.685  0.00  0.00     0.064 A 
ATOM      5  C   UNL d   1      53.122  33.653  53.575  0.00  0.00     0.220 A 
ATOM      6  C   UNL d   1      52.850  31.582  53.208  0.00  0.00     0.046 A 
ATOM      7  C   UNL d   1      53.415  31.207  53.678  0.00  0.00     0.107 A 
ATOM      8  C   UNL d   1      53.866  32.476  54.152  0.00  0.00     0.007 A 
ATOM      9  O   UNL d   1      53.492  34.299  53.938  0.00  0.00    -0.284 OA
ATOM     10  C   UNL d   1      53.926  31.657  54.153  0.00  0.00     0.025 A 
ATOM     11  C   UNL d   1      52.344  31.130  52.738  0.00  0.00     0.004 C 
ENDROOT
BRANCH   1  12
ATOM     12  C   UNL d   1      52.130  34.392  52.755  0.00  0.00     0.053 C 
BRANCH  12  13
ATOM     13  C   UNL d   1      51.321  34.403  52.596  0.00  0.00     0.102 A 
ATOM     14  O   UNL d   1      50.718  34.506  53.157  0.00  0.00    -0.305 OA
ATOM     15  C   UNL d   1      49.996  34.480  52.762  0.00  0.00     0.123 A 
ATOM     16  C   UNL d   1      50.153  34.361  51.955  0.00  0.00     0.029 A 
ATOM     17  C   UNL d   1      50.971  34.314  51.860  0.00  0.00     0.027 A 
ENDBRANCH  12  13
ENDBRANCH   1  12
BRANCH   7  18
ATOM     18  O   UNL d   1      53.474  30.387  53.679  0.00  0.00    -0.259 OA
BRANCH  18  19
ATOM     19  C   UNL d   1      53.401  29.960  54.382  0.00  0.00     0.378 C 
ATOM     20  N   UNL d   1      53.456  29.133  54.370  0.00  0.00    -0.249 N 
ATOM     21  C   UNL d   1      53.384  28.702  55.075  0.00  0.00     0.104 C 
ATOM     22  C   UNL d   1      53.584  28.733  53.654  0.00  0.00     0.104 C 
ATOM     23  O   UNL d   1      53.274  30.354  55.096  0.00  0.00    -0.237 OA
ENDBRANCH  18  19
ENDBRANCH   7  18
TORSDOF 4
ENDMDL
MODEL 5
REMARK VINA RESULT:      -6.7      2.412      4.147
REMARK  4 active torsions:
REMARK  status: ('A' for Active; 'I' for Inactive)
REMARK    1  A    between atoms: C_8  and  C_1 
REMARK    2  A    between atoms: C_6  and  O_10 
REMARK       I    between atoms: N_13  and  C_6 
REMARK    3  A    between atoms: C_11  and  C_8 
REMARK    4  A    between atoms: O_10  and  C_9 
ROOT
ATOM      1  C   UNL d   1      52.751  33.862  53.136  0.00  0.00     0.141 A 
ATOM      2  C   UNL d   1      53.121  32.639  53.552  0.00  0.00     0.105 A 
ATOM      3  O   UNL d   1      53.251  33.450  53.659  0.00  0.00    -0.304 OA
ATOM      4  C   UNL d   1      52.542  32.541  52.965  0.00  0.00     0.064 A 
ATOM      5  C   UNL d   1      52.310  33.291  52.705  0.00  0.00     0.220 A 
ATOM      6  C   UNL d   1      53.456  31.979  53.915  0.00  0.00     0.046 A 
ATOM      7  C   UNL d   1      53.216  31.222  53.693  0.00  0.00     0.107 A 
ATOM      8  C   UNL d   1      52.306  31.785  52.748  0.00  0.00     0.007 A 
ATOM      9  O   UNL d   1      51.745  33.459  52.124  0.00  0.00    -0.284 OA
ATOM     10  C   UNL d   1      52.638  31.124  53.106  0.00  0.00     0.025 A 
ATOM     11  C   UNL d   1      54.032  32.071  54.499  0.00  0.00     0.004 C 
ENDROOT
BRANCH   1  12
ATOM     12  C   UNL d   1      52.696  34.682  53.055  0.00  0.00     0.053 C 
BRANCH  12  13
ATOM     13  C   UNL d   1      52.782  35.169  53.714  0.00  0.00     0.102 A 
ATOM     14  O   UNL d   1      52.189  35.350  54.265  0.00  0.00    -0.305 OA
ATOM     15  C   UNL d   1      52.513  35.853  54.832  0.00  0.00     0.123 A 
ATOM     16  C   UNL d   1      53.308  35.984  54.629  0.00  0.00     0.029 A 
ATOM     17  C   UNL d   1      53.467  35.559  53.940  0.00  0.00     0.027 A 
ENDBRANCH  12  13
ENDBRANCH   1  12
BRANCH   7  18
ATOM     18  O   UNL d   1      53.548  30.562  54.052  0.00  0.00    -0.259 OA
BRANCH  18  19
ATOM     19  C   UNL d   1      53.379  29.802  53.776  0.00  0.00     0.378 C 
ATOM     20  N   UNL d   1      53.325  29.171  54.310  0.00  0.00    -0.249 N 
ATOM     21  C   UNL d   1      53.156  28.407  54.035  0.00  0.00     0.104 C 
ATOM     22  C   UNL d   1      53.440  29.300  55.122  0.00  0.00     0.104 C 
ATOM     23  O   UNL d   1      53.264  29.669  52.969  0.00  0.00    -0.237 OA
ENDBRANCH  18  19
ENDBRANCH   7  18
TORSDOF 4
ENDMDL
MODEL 6
REMARK VINA RESULT:      -5.8      1.782      2.743
REMARK  4 active torsions:
REMARK  status: ('A' for Active; 'I' for Inactive)
REMARK    1  A    between atoms: C_8  and  C_1 
REMARK    2  A    between atoms: C_6  and  O_10 
REMARK       I    between atoms: N_13  and  C_6 
REMARK    3  A    between atoms: C_11  and  C_8 
REMARK    4  A    between atoms: O_10  and  C_9 
ROOT
ATOM      1  C   UNL d   1      51.210  34.146  52.785  0.00  0.00     0.141 A 
ATOM      2  C   UNL d   1      49.990  34.703  52.697  0.00  0.00     0.105 A 
ATOM      3  O   UNL d   1      50.620  34.551  53.212  0.00  0.00    -0.304 OA
ATOM      4  C   UNL d   1      50.180  34.395  51.950  0.00  0.00     0.064 A 
ATOM      5  C   UNL d   1      50.930  34.050  51.998  0.00  0.00     0.220 A 
ATOM      6  C   UNL d   1      49.268  35.083  52.815  0.00  0.00     0.046 A 
ATOM      7  C   UNL d   1      48.735  35.156  52.189  0.00  0.00     0.107 A 
ATOM      8  C   UNL d   1      49.647  34.470  51.330  0.00  0.00     0.007 A 
ATOM      9  O   UNL d   1      51.341  33.675  51.384  0.00  0.00    -0.284 OA
ATOM     10  C   UNL d   1      48.925  34.848  51.443  0.00  0.00     0.025 A 
ATOM     11  C   UNL d   1      49.074  35.391  53.555  0.00  0.00     0.004 C 
ENDROOT
BRANCH   1  12
ATOM     12  C   UNL d   1      51.935  33.884  53.078  0.00  0.00     0.053 C 
BRANCH  12  13
ATOM     13  C   UNL d   1      52.372  34.364  53.587  0.00  0.00     0.102 A 
ATOM     14  O   UNL d   1      52.695  35.104  53.398  0.00  0.00    -0.305 OA
ATOM     15  C   UNL d   1      53.086  35.389  54.066  0.00  0.00     0.123 A 
ATOM     16  C   UNL d   1      53.003  34.822  54.668  0.00  0.00     0.029 A 
ATOM     17  C   UNL d   1      52.562  34.194  54.366  0.00  0.00     0.027 A 
ENDBRANCH  12  13
ENDBRANCH   1  12
BRANCH   7  18
ATOM     18  O   UNL d   1      48.014  35.534  52.303  0.00  0.00    -0.259 OA
BRANCH  18  19
ATOM     19  C   UNL d   1      47.396  35.434  51.763  0.00  0.00     0.378 C 
ATOM     20  N   UNL d   1      46.724  35.916  51.812  0.00  0.00    -0.249 N 
ATOM     21  C   UNL d   1      46.103  35.817  51.272  0.00  0.00     0.104 C 
ATOM     22  C   UNL d   1      46.669  36.498  52.401  0.00  0.00     0.104 C 
ATOM     23  O   UNL d   1      47.447  34.855  51.177  0.00  0.00    -0.237 OA
ENDBRANCH  18  19
ENDBRANCH   7  18
TORSDOF 4
ENDMDL
MODEL 7
REMARK VINA RESULT:      -5.6      1.567      4.867
REMARK  4 active torsions:
REMARK  status: ('A' for Active; 'I' for Inactive)
REMARK    1  A    between atoms: C_8  and  C_1 
REMARK    2  A    between atoms: C_6  and  O_10 
REMARK       I    between atoms: N_13  and  C_6 
REMARK    3  A    between atoms: C_11  and  C_8 
REMARK    4  A    between atoms: O_10  and  C_9 
ROOT
ATOM      1  C   UNL d   1      49.182  35.189  52.583  0.00  0.00     0.141 A 
ATOM      2  C   UNL d   1      50.372  34.672  52.937  0.00  0.00     0.105 A 
ATOM      3  O   UNL d   1      49.760  35.173  53.183  0.00  0.00    -0.304 OA
ATOM      4  C   UNL d   1      50.181  34.374  52.186  0.00  0.00     0.064 A 
ATOM      5  C   UNL d   1      49.450  34.688  51.963  0.00  0.00     0.220 A 
ATOM      6  C   UNL d   1      51.077  34.452  53.302  0.00  0.00     0.046 A 
ATOM      7  C   UNL d   1      51.593  33.934  52.920  0.00  0.00     0.107 A 
ATOM      8  C   UNL d   1      50.698  33.858  51.810  0.00  0.00     0.007 A 
ATOM      9  O   UNL d   1      49.045  34.541  51.255  0.00  0.00    -0.284 OA
ATOM     10  C   UNL d   1      51.402  33.635  52.169  0.00  0.00     0.025 A 
ATOM     11  C   UNL d   1      51.271  34.746  54.048  0.00  0.00     0.004 C 
ENDROOT
BRANCH   1  12
ATOM     12  C   UNL d   1      48.477  35.615  52.593  0.00  0.00     0.053 C 
BRANCH  12  13
ATOM     13  C   UNL d   1      48.188  35.921  53.302  0.00  0.00     0.102 A 
ATOM     14  O   UNL d   1      48.458  36.609  53.679  0.00  0.00    -0.305 OA
ATOM     15  C   UNL d   1      48.019  36.709  54.370  0.00  0.00     0.123 A 
ATOM     16  C   UNL d   1      47.478  36.081  54.419  0.00  0.00     0.029 A 
ATOM     17  C   UNL d   1      47.588  35.600  53.759  0.00  0.00     0.027 A 
ENDBRANCH  12  13
ENDBRANCH   1  12
BRANCH   7  18
ATOM     18  O   UNL d   1      52.297  33.712  53.281  0.00  0.00    -0.259 OA
BRANCH  18  19
ATOM     19  C   UNL d   1      52.564  32.930  53.238  0.00  0.00     0.378 C 
ATOM     20  N   UNL d   1      53.347  32.751  53.441  0.00  0.00    -0.249 N 
ATOM     21  C   UNL d   1      53.617  31.968  53.399  0.00  0.00     0.104 C 
ATOM     22  C   UNL d   1      53.864  33.352  53.686  0.00  0.00     0.104 C 
ATOM     23  O   UNL d   1      52.053  32.330  52.995  0.00  0.00    -0.237 OA
ENDBRANCH  18  19
ENDBRANCH   7  18
TORSDOF 4
ENDMDL
