MODEL 1
REMARK VINA RESULT:      20.1      0.000      0.000
REMARK  1 active torsions:
REMARK  status: ('A' for Active; 'I' for Inactive)
REMARK    1  A    between atoms: C_10  and  C_7 
ROOT
ATOM      1  N   UNL d   1     -54.840-101.705 -36.583  0.00  0.00    -0.259 N 
ATOM      2  C   UNL d   1     -54.756-100.894 -36.784  0.00  0.00     0.202 A 
ATOM      3  C   UNL d   1     -54.852-101.744 -35.778  0.00  0.00     0.227 A 
ATOM      4  C   UNL d   1     -54.874-102.108 -37.252  0.00  0.00     0.091 A 
ATOM      5  S   UNL d   1     -54.742-100.825 -37.579  0.00  0.00    -0.047 SA
ATOM      6  N   UNL d   1     -54.720-100.467 -36.089  0.00  0.00    -0.121 NA
ATOM      7  C   UNL d   1     -54.816-101.586 -37.869  0.00  0.00     0.050 A 
ATOM      8  N   UNL d   1     -54.781-101.013 -35.456  0.00  0.00    -0.116 NA
ATOM      9  S   UNL d   1     -54.931-102.487 -35.339  0.00  0.00    -0.036 SA
ENDROOT
BRANCH   7  10
ATOM     10  C   UNL d   1     -54.834-101.840 -38.634  0.00  0.00     0.007 A 
ATOM     11  C   UNL d   1     -54.717-101.280 -39.233  0.00  0.00     0.001 A 
ATOM     12  C   UNL d   1     -54.729-101.503 -40.028  0.00  0.00     0.000 A 
ATOM     13  C   UNL d   1     -54.865-102.319 -40.197  0.00  0.00     0.000 A 
ATOM     14  C   UNL d   1     -54.982-102.878 -39.608  0.00  0.00     0.000 A 
ATOM     15  C   UNL d   1     -54.894-102.648 -41.020  0.00  0.00     0.000 C 
ATOM     16  C   UNL d   1     -54.967-102.641 -38.818  0.00  0.00     0.001 A 
ENDBRANCH   7  10
TORSDOF 1
ENDMDL
