MODEL 1
REMARK VINA RESULT:      28.4      0.000      0.000
REMARK  2 active torsions:
REMARK  status: ('A' for Active; 'I' for Inactive)
REMARK    1  A    between atoms: C_6  and  N_1 
REMARK    2  A    between atoms: C_7  and  C_6 
ROOT
ATOM      1  N   UNL d   1      14.875  14.166  -0.024  0.00  0.00    -0.287 N 
ATOM      2  N   UNL d   1      15.908  13.346  -0.044  0.00  0.00    -0.224 NA
ATOM      3  C   UNL d   1      15.695  14.144  -0.037  0.00  0.00     0.183 A 
ATOM      4  C   UNL d   1      14.587  13.413  -0.024  0.00  0.00     0.083 A 
ATOM      5  C   UNL d   1      15.233  12.900  -0.037  0.00  0.00     0.099 A 
ATOM      6  C   UNL d   1      13.820  13.110  -0.014  0.00  0.00     0.019 A 
ATOM      7  C   UNL d   1      15.112  12.084  -0.039  0.00  0.00     0.021 A 
ATOM      8  C   UNL d   1      13.698  12.294  -0.017  0.00  0.00     0.002 A 
ATOM      9  C   UNL d   1      14.344  11.781  -0.030  0.00  0.00     0.002 A 
ENDROOT
BRANCH   1  10
ATOM     10  C   UNL d   1      14.566  14.938  -0.015  0.00  0.00     0.082 C 
BRANCH  10  11
ATOM     11  C   UNL d   1      14.789  15.474  -0.589  0.00  0.00     0.018 A 
ATOM     12  C   UNL d   1      14.574  15.345  -1.374  0.00  0.00     0.002 A 
ATOM     13  C   UNL d   1      14.797  15.883  -1.958  0.00  0.00     0.011 A 
ATOM     14  C   UNL d   1      15.236  16.552  -1.756  0.00  0.00     0.058 A 
ATOM     15  C   UNL d   1      15.436  16.657  -0.977  0.00  0.00     0.011 A 
ATOM     16 CL   UNL d   1      15.444  17.068  -2.351  0.00  0.00    -0.082 Cl
ATOM     17  C   UNL d   1      15.228  16.142  -0.387  0.00  0.00     0.002 A 
ENDBRANCH  10  11
ENDBRANCH   1  10
TORSDOF 2
ENDMDL
