MODEL 1
REMARK VINA RESULT:      -6.2      0.000      0.000
REMARK  3 active torsions:
REMARK  status: ('A' for Active; 'I' for Inactive)
REMARK    1  A    between atoms: C_9  and  N_1 
REMARK    2  A    between atoms: C_7  and  C_9 
REMARK    3  A    between atoms: C_8  and  C_7 
ROOT
ATOM      1  N   UNL d   1     -47.491  12.974  23.230  0.00  0.00    -0.190 N 
ATOM      2  N   UNL d   1     -48.086  12.420  23.090  0.00  0.00    -0.120 NA
ATOM      3  C   UNL d   1     -46.764  12.733  23.533  0.00  0.00     0.281 A 
ATOM      4  C   UNL d   1     -47.955  11.622  23.253  0.00  0.00     0.296 A 
ATOM      5  C   UNL d   1     -46.635  11.939  23.695  0.00  0.00     0.068 A 
ATOM      6  C   UNL d   1     -47.229  11.384  23.555  0.00  0.00     0.069 A 
ATOM      7  O   UNL d   1     -46.169  13.288  23.673  0.00  0.00    -0.265 OA
ATOM      8  O   UNL d   1     -48.549  11.067  23.114  0.00  0.00    -0.264 OA
ENDROOT
BRANCH   1   9
ATOM      9  C   UNL d   1     -47.626  13.774  23.066  0.00  0.00     0.110 C 
BRANCH   9  10
ATOM     10  C   UNL d   1     -48.374  14.017  22.806  0.00  0.00     0.091 C 
BRANCH  10  11
ATOM     11  C   UNL d   1     -48.539  14.822  22.745  0.00  0.00     0.213 C 
ATOM     12  O   UNL d   1     -48.181  15.282  22.160  0.00  0.00    -0.644 OA
ATOM     13  O   UNL d   1     -49.068  15.172  23.275  0.00  0.00    -0.644 OA
ENDBRANCH  10  11
ENDBRANCH   9  10
ENDBRANCH   1   9
TORSDOF 3
ENDMDL
MODEL 2
REMARK VINA RESULT:      -6.2      1.539      2.758
REMARK  3 active torsions:
REMARK  status: ('A' for Active; 'I' for Inactive)
REMARK    1  A    between atoms: C_9  and  N_1 
REMARK    2  A    between atoms: C_7  and  C_9 
REMARK    3  A    between atoms: C_8  and  C_7 
ROOT
ATOM      1  N   UNL d   1     -48.362  12.283  22.767  0.00  0.00    -0.190 N 
ATOM      2  N   UNL d   1     -48.485  12.769  22.112  0.00  0.00    -0.120 NA
ATOM      3  C   UNL d   1     -48.969  11.799  23.042  0.00  0.00     0.281 A 
ATOM      4  C   UNL d   1     -49.216  12.772  21.730  0.00  0.00     0.296 A 
ATOM      5  C   UNL d   1     -49.696  11.802  22.661  0.00  0.00     0.068 A 
ATOM      6  C   UNL d   1     -49.819  12.288  22.006  0.00  0.00     0.069 A 
ATOM      7  O   UNL d   1     -48.845  11.312  23.698  0.00  0.00    -0.265 OA
ATOM      8  O   UNL d   1     -49.340  13.258  21.075  0.00  0.00    -0.264 OA
ENDROOT
BRANCH   1   9
ATOM      9  C   UNL d   1     -47.627  12.283  23.148  0.00  0.00     0.110 C 
BRANCH   9  10
ATOM     10  C   UNL d   1     -47.028  12.787  22.879  0.00  0.00     0.091 C 
BRANCH  10  11
ATOM     11  C   UNL d   1     -46.321  12.836  23.301  0.00  0.00     0.213 C 
ATOM     12  O   UNL d   1     -46.116  13.531  23.698  0.00  0.00    -0.644 OA
ATOM     13  O   UNL d   1     -45.814  12.184  23.326  0.00  0.00    -0.644 OA
ENDBRANCH  10  11
ENDBRANCH   9  10
ENDBRANCH   1   9
TORSDOF 3
ENDMDL
MODEL 3
REMARK VINA RESULT:      -6.1      1.075      2.512
REMARK  3 active torsions:
REMARK  status: ('A' for Active; 'I' for Inactive)
REMARK    1  A    between atoms: C_9  and  N_1 
REMARK    2  A    between atoms: C_7  and  C_9 
REMARK    3  A    between atoms: C_8  and  C_7 
ROOT
ATOM      1  N   UNL d   1     -47.788  13.094  23.066  0.00  0.00    -0.190 N 
ATOM      2  N   UNL d   1     -47.168  12.570  23.214  0.00  0.00    -0.120 NA
ATOM      3  C   UNL d   1     -47.631  13.889  22.917  0.00  0.00     0.281 A 
ATOM      4  C   UNL d   1     -46.389  12.840  23.213  0.00  0.00     0.296 A 
ATOM      5  C   UNL d   1     -46.855  14.157  22.917  0.00  0.00     0.068 A 
ATOM      6  C   UNL d   1     -46.235  13.633  23.065  0.00  0.00     0.069 A 
ATOM      7  O   UNL d   1     -48.251  14.414  22.770  0.00  0.00    -0.265 OA
ATOM      8  O   UNL d   1     -45.769  12.316  23.361  0.00  0.00    -0.264 OA
ENDROOT
BRANCH   1   9
ATOM      9  C   UNL d   1     -48.569  12.821  23.068  0.00  0.00     0.110 C 
BRANCH   9  10
ATOM     10  C   UNL d   1     -48.717  12.010  22.991  0.00  0.00     0.091 C 
BRANCH  10  11
ATOM     11  C   UNL d   1     -49.494  11.735  23.023  0.00  0.00     0.213 C 
ATOM     12  O   UNL d   1     -50.008  11.851  22.386  0.00  0.00    -0.644 OA
ATOM     13  O   UNL d   1     -49.761  11.341  23.698  0.00  0.00    -0.644 OA
ENDBRANCH  10  11
ENDBRANCH   9  10
ENDBRANCH   1   9
TORSDOF 3
ENDMDL
MODEL 4
REMARK VINA RESULT:      -5.5      1.512      3.155
REMARK  3 active torsions:
REMARK  status: ('A' for Active; 'I' for Inactive)
REMARK    1  A    between atoms: C_9  and  N_1 
REMARK    2  A    between atoms: C_7  and  C_9 
REMARK    3  A    between atoms: C_8  and  C_7 
ROOT
ATOM      1  N   UNL d   1     -48.283  13.870  22.476  0.00  0.00    -0.190 N 
ATOM      2  N   UNL d   1     -48.480  14.520  22.944  0.00  0.00    -0.120 NA
ATOM      3  C   UNL d   1     -48.813  13.593  21.910  0.00  0.00     0.281 A 
ATOM      4  C   UNL d   1     -49.208  14.895  22.847  0.00  0.00     0.296 A 
ATOM      5  C   UNL d   1     -49.537  13.966  21.814  0.00  0.00     0.068 A 
ATOM      6  C   UNL d   1     -49.735  14.616  22.281  0.00  0.00     0.069 A 
ATOM      7  O   UNL d   1     -48.615  12.942  21.441  0.00  0.00    -0.265 OA
ATOM      8  O   UNL d   1     -49.405  15.545  23.315  0.00  0.00    -0.264 OA
ENDROOT
BRANCH   1   9
ATOM      9  C   UNL d   1     -47.552  13.496  22.576  0.00  0.00     0.110 C 
BRANCH   9  10
ATOM     10  C   UNL d   1     -46.933  13.902  22.948  0.00  0.00     0.091 C 
BRANCH  10  11
ATOM     11  C   UNL d   1     -46.215  13.517  23.076  0.00  0.00     0.213 C 
ATOM     12  O   UNL d   1     -46.131  12.981  23.698  0.00  0.00    -0.644 OA
ATOM     13  O   UNL d   1     -45.575  13.670  22.577  0.00  0.00    -0.644 OA
ENDBRANCH  10  11
ENDBRANCH   9  10
ENDBRANCH   1   9
TORSDOF 3
ENDMDL
MODEL 5
REMARK VINA RESULT:      -4.5      9.995     10.472
REMARK  3 active torsions:
REMARK  status: ('A' for Active; 'I' for Inactive)
REMARK    1  A    between atoms: C_9  and  N_1 
REMARK    2  A    between atoms: C_7  and  C_9 
REMARK    3  A    between atoms: C_8  and  C_7 
ROOT
ATOM      1  N   UNL d   1     -39.180  14.199  16.870  0.00  0.00    -0.190 N 
ATOM      2  N   UNL d   1     -39.280  13.544  17.361  0.00  0.00    -0.120 NA
ATOM      3  C   UNL d   1     -38.509  14.262  16.396  0.00  0.00     0.281 A 
ATOM      4  C   UNL d   1     -38.708  12.950  17.379  0.00  0.00     0.296 A 
ATOM      5  C   UNL d   1     -37.941  13.670  16.415  0.00  0.00     0.068 A 
ATOM      6  C   UNL d   1     -38.040  13.015  16.906  0.00  0.00     0.069 A 
ATOM      7  O   UNL d   1     -38.409  14.918  15.904  0.00  0.00    -0.265 OA
ATOM      8  O   UNL d   1     -38.808  12.294  17.870  0.00  0.00    -0.264 OA
ENDROOT
BRANCH   1   9
ATOM      9  C   UNL d   1     -39.755  14.794  16.853  0.00  0.00     0.110 C 
BRANCH   9  10
ATOM     10  C   UNL d   1     -40.435  14.717  17.320  0.00  0.00     0.091 C 
BRANCH  10  11
ATOM     11  C   UNL d   1     -41.014  15.304  17.291  0.00  0.00     0.213 C 
ATOM     12  O   UNL d   1     -41.589  15.298  16.697  0.00  0.00    -0.644 OA
ATOM     13  O   UNL d   1     -41.018  15.902  17.860  0.00  0.00    -0.644 OA
ENDBRANCH  10  11
ENDBRANCH   9  10
ENDBRANCH   1   9
TORSDOF 3
ENDMDL
MODEL 6
REMARK VINA RESULT:      -4.4      9.233     10.082
REMARK  3 active torsions:
REMARK  status: ('A' for Active; 'I' for Inactive)
REMARK    1  A    between atoms: C_9  and  N_1 
REMARK    2  A    between atoms: C_7  and  C_9 
REMARK    3  A    between atoms: C_8  and  C_7 
ROOT
ATOM      1  N   UNL d   1     -40.021  14.679  17.944  0.00  0.00    -0.190 N 
ATOM      2  N   UNL d   1     -40.503  14.763  17.280  0.00  0.00    -0.120 NA
ATOM      3  C   UNL d   1     -40.078  15.217  18.566  0.00  0.00     0.281 A 
ATOM      4  C   UNL d   1     -41.042  15.386  17.235  0.00  0.00     0.296 A 
ATOM      5  C   UNL d   1     -40.614  15.836  18.521  0.00  0.00     0.068 A 
ATOM      6  C   UNL d   1     -41.096  15.920  17.856  0.00  0.00     0.069 A 
ATOM      7  O   UNL d   1     -39.595  15.132  19.231  0.00  0.00    -0.265 OA
ATOM      8  O   UNL d   1     -41.523  15.470  16.571  0.00  0.00    -0.264 OA
ENDROOT
BRANCH   1   9
ATOM      9  C   UNL d   1     -39.482  14.053  17.986  0.00  0.00     0.110 C 
BRANCH   9  10
ATOM     10  C   UNL d   1     -39.240  13.675  17.290  0.00  0.00     0.091 C 
BRANCH  10  11
ATOM     11  C   UNL d   1     -38.692  13.061  17.332  0.00  0.00     0.213 C 
ATOM     12  O   UNL d   1     -38.888  12.347  17.699  0.00  0.00    -0.644 OA
ATOM     13  O   UNL d   1     -37.940  13.161  17.005  0.00  0.00    -0.644 OA
ENDBRANCH  10  11
ENDBRANCH   9  10
ENDBRANCH   1   9
TORSDOF 3
ENDMDL
MODEL 7
REMARK VINA RESULT:      -4.3      8.161      8.872
REMARK  3 active torsions:
REMARK  status: ('A' for Active; 'I' for Inactive)
REMARK    1  A    between atoms: C_9  and  N_1 
REMARK    2  A    between atoms: C_7  and  C_9 
REMARK    3  A    between atoms: C_8  and  C_7 
ROOT
ATOM      1  N   UNL d   1     -40.449  14.961  18.770  0.00  0.00    -0.190 N 
ATOM      2  N   UNL d   1     -40.841  15.489  18.272  0.00  0.00    -0.120 NA
ATOM      3  C   UNL d   1     -40.017  14.336  18.451  0.00  0.00     0.281 A 
ATOM      4  C   UNL d   1     -40.802  15.393  17.454  0.00  0.00     0.296 A 
ATOM      5  C   UNL d   1     -39.978  14.242  17.637  0.00  0.00     0.068 A 
ATOM      6  C   UNL d   1     -40.370  14.770  17.139  0.00  0.00     0.069 A 
ATOM      7  O   UNL d   1     -39.624  13.808  18.950  0.00  0.00    -0.265 OA
ATOM      8  O   UNL d   1     -41.194  15.922  16.956  0.00  0.00    -0.264 OA
ENDROOT
BRANCH   1   9
ATOM      9  C   UNL d   1     -40.490  15.059  19.590  0.00  0.00     0.110 C 
BRANCH   9  10
ATOM     10  C   UNL d   1     -40.777  15.771  19.902  0.00  0.00     0.091 C 
BRANCH  10  11
ATOM     11  C   UNL d   1     -40.886  15.842  20.717  0.00  0.00     0.213 C 
ATOM     12  O   UNL d   1     -41.645  15.834  21.042  0.00  0.00    -0.644 OA
ATOM     13  O   UNL d   1     -40.228  15.921  21.211  0.00  0.00    -0.644 OA
ENDBRANCH  10  11
ENDBRANCH   9  10
ENDBRANCH   1   9
TORSDOF 3
ENDMDL
MODEL 8
REMARK VINA RESULT:      -4.3      8.064      8.719
REMARK  3 active torsions:
REMARK  status: ('A' for Active; 'I' for Inactive)
REMARK    1  A    between atoms: C_9  and  N_1 
REMARK    2  A    between atoms: C_7  and  C_9 
REMARK    3  A    between atoms: C_8  and  C_7 
ROOT
ATOM      1  N   UNL d   1     -40.344  14.972  19.388  0.00  0.00    -0.190 N 
ATOM      2  N   UNL d   1     -40.903  15.448  19.765  0.00  0.00    -0.120 NA
ATOM      3  C   UNL d   1     -39.841  14.495  19.833  0.00  0.00     0.281 A 
ATOM      4  C   UNL d   1     -40.960  15.446  20.588  0.00  0.00     0.296 A 
ATOM      5  C   UNL d   1     -39.898  14.494  20.651  0.00  0.00     0.068 A 
ATOM      6  C   UNL d   1     -40.457  14.970  21.028  0.00  0.00     0.069 A 
ATOM      7  O   UNL d   1     -39.281  14.019  19.455  0.00  0.00    -0.265 OA
ATOM      8  O   UNL d   1     -41.519  15.922  20.965  0.00  0.00    -0.264 OA
ENDROOT
BRANCH   1   9
ATOM      9  C   UNL d   1     -40.289  14.975  18.563  0.00  0.00     0.110 C 
BRANCH   9  10
ATOM     10  C   UNL d   1     -40.784  15.473  18.123  0.00  0.00     0.091 C 
BRANCH  10  11
ATOM     11  C   UNL d   1     -40.749  15.453  17.299  0.00  0.00     0.213 C 
ATOM     12  O   UNL d   1     -40.134  15.827  16.895  0.00  0.00    -0.644 OA
ATOM     13  O   UNL d   1     -41.336  15.054  16.875  0.00  0.00    -0.644 OA
ENDBRANCH  10  11
ENDBRANCH   9  10
ENDBRANCH   1   9
TORSDOF 3
ENDMDL
MODEL 9
REMARK VINA RESULT:      -4.0      9.701     10.436
REMARK  3 active torsions:
REMARK  status: ('A' for Active; 'I' for Inactive)
REMARK    1  A    between atoms: C_9  and  N_1 
REMARK    2  A    between atoms: C_7  and  C_9 
REMARK    3  A    between atoms: C_8  and  C_7 
ROOT
ATOM      1  N   UNL d   1     -39.715  14.456  17.591  0.00  0.00    -0.190 N 
ATOM      2  N   UNL d   1     -39.212  14.252  18.212  0.00  0.00    -0.120 NA
ATOM      3  C   UNL d   1     -40.515  14.591  17.734  0.00  0.00     0.281 A 
ATOM      4  C   UNL d   1     -39.509  14.182  18.979  0.00  0.00     0.296 A 
ATOM      5  C   UNL d   1     -40.809  14.522  18.497  0.00  0.00     0.068 A 
ATOM      6  C   UNL d   1     -40.306  14.317  19.118  0.00  0.00     0.069 A 
ATOM      7  O   UNL d   1     -41.018  14.796  17.112  0.00  0.00    -0.265 OA
ATOM      8  O   UNL d   1     -39.006  13.978  19.600  0.00  0.00    -0.264 OA
ENDROOT
BRANCH   1   9
ATOM      9  C   UNL d   1     -39.415  14.525  16.823  0.00  0.00     0.110 C 
BRANCH   9  10
ATOM     10  C   UNL d   1     -38.636  14.291  16.667  0.00  0.00     0.091 C 
BRANCH  10  11
ATOM     11  C   UNL d   1     -38.335  14.368  15.902  0.00  0.00     0.213 C 
ATOM     12  O   UNL d   1     -38.033  15.091  15.641  0.00  0.00    -0.644 OA
ATOM     13  O   UNL d   1     -38.337  13.716  15.395  0.00  0.00    -0.644 OA
ENDBRANCH  10  11
ENDBRANCH   9  10
ENDBRANCH   1   9
TORSDOF 3
ENDMDL
