MODEL 1
REMARK VINA RESULT:      -5.1      0.000      0.000
REMARK  5 active torsions:
REMARK  status: ('A' for Active; 'I' for Inactive)
REMARK    1  A    between atoms: N_2  and  C_1 
REMARK    2  A    between atoms: C_10  and  C_5 
REMARK       I    between atoms: N_6  and  C_7 
REMARK    3  A    between atoms: C_8  and  N_6 
REMARK    4  A    between atoms: C_7  and  C_11 
REMARK    5  A    between atoms: C_11  and  C_10 
ROOT
ATOM      1  N   UNL d   1      57.011  -0.571  32.099  0.00  0.00    -0.208 NA
ATOM      2  C   UNL d   1      57.224  -0.058  31.488  0.00  0.00     0.279 C 
ATOM      3  O   UNL d   1      56.882   0.675  31.429  0.00  0.00    -0.265 OA
ENDROOT
BRANCH   2   4
ATOM      4  C   UNL d   1      57.790  -0.297  30.937  0.00  0.00     0.063 C 
BRANCH   4   5
ATOM      5  C   UNL d   1      57.918   0.140  30.260  0.00  0.00     0.011 C 
BRANCH   5   6
ATOM      6  C   UNL d   1      58.570  -0.031  29.759  0.00  0.00     0.031 A 
ATOM      7  S   UNL d   1      59.380   0.050  29.871  0.00  0.00    -0.064 SA
ATOM      8  C   UNL d   1      59.739  -0.207  29.186  0.00  0.00     0.156 A 
ATOM      9  C   UNL d   1      59.181  -0.445  28.654  0.00  0.00     0.031 A 
ATOM     10  C   UNL d   1      58.444  -0.333  29.016  0.00  0.00     0.009 A 
BRANCH   8  11
ATOM     11  N   UNL d   1      60.555  -0.217  29.071  0.00  0.00    -0.107 N 
ATOM     12  O   UNL d   1      60.899  -0.679  28.481  0.00  0.00    -0.531 OA
ATOM     13  O   UNL d   1      61.028   0.244  29.556  0.00  0.00    -0.531 OA
ENDBRANCH   8  11
ENDBRANCH   5   6
ENDBRANCH   4   5
ENDBRANCH   2   4
BRANCH   1  14
ATOM     14  C   UNL d   1      56.445  -0.332  32.651  0.00  0.00     0.085 A 
ATOM     15  C   UNL d   1      55.873  -0.870  32.911  0.00  0.00     0.018 A 
ATOM     16  C   UNL d   1      55.319  -0.637  33.450  0.00  0.00     0.002 A 
ATOM     17  C   UNL d   1      55.876  -1.650  32.609  0.00  0.00     0.002 C 
ATOM     18  C   UNL d   1      55.326   0.139  33.741  0.00  0.00     0.000 A 
ATOM     19  C   UNL d   1      55.904   0.682  33.479  0.00  0.00     0.002 A 
ATOM     20  C   UNL d   1      54.754   0.360  34.292  0.00  0.00     0.000 C 
ATOM     21  C   UNL d   1      56.448   0.430  32.940  0.00  0.00     0.019 A 
ENDBRANCH   1  14
TORSDOF 5
ENDMDL
MODEL 2
REMARK VINA RESULT:      -4.8      1.856      5.284
REMARK  5 active torsions:
REMARK  status: ('A' for Active; 'I' for Inactive)
REMARK    1  A    between atoms: N_2  and  C_1 
REMARK    2  A    between atoms: C_10  and  C_5 
REMARK       I    between atoms: N_6  and  C_7 
REMARK    3  A    between atoms: C_8  and  N_6 
REMARK    4  A    between atoms: C_7  and  C_11 
REMARK    5  A    between atoms: C_11  and  C_10 
ROOT
ATOM      1  N   UNL d   1      58.037  -0.207  30.188  0.00  0.00    -0.208 NA
ATOM      2  C   UNL d   1      58.001   0.086  30.958  0.00  0.00     0.279 C 
ATOM      3  O   UNL d   1      58.646   0.451  31.290  0.00  0.00    -0.265 OA
ENDROOT
BRANCH   2   4
ATOM      4  C   UNL d   1      57.303   0.006  31.392  0.00  0.00     0.063 C 
BRANCH   4   5
ATOM      5  C   UNL d   1      57.246   0.314  32.145  0.00  0.00     0.011 C 
BRANCH   5   6
ATOM      6  C   UNL d   1      56.569   0.161  32.618  0.00  0.00     0.031 A 
ATOM      7  S   UNL d   1      56.188   0.615  33.188  0.00  0.00    -0.064 SA
ATOM      8  C   UNL d   1      55.559   0.172  33.458  0.00  0.00     0.156 A 
ATOM      9  C   UNL d   1      55.537  -0.538  33.076  0.00  0.00     0.031 A 
ATOM     10  C   UNL d   1      56.174  -0.545  32.547  0.00  0.00     0.009 A 
BRANCH   8  11
ATOM     11  N   UNL d   1      55.032   0.429  34.037  0.00  0.00    -0.107 N 
ATOM     12  O   UNL d   1      54.269   0.673  33.844  0.00  0.00    -0.531 OA
ATOM     13  O   UNL d   1      55.278   0.440  34.818  0.00  0.00    -0.531 OA
ENDBRANCH   8  11
ENDBRANCH   5   6
ENDBRANCH   4   5
ENDBRANCH   2   4
BRANCH   1  14
ATOM     14  C   UNL d   1      58.734  -0.127  29.754  0.00  0.00     0.085 A 
ATOM     15  C   UNL d   1      59.017  -0.764  29.309  0.00  0.00     0.018 A 
ATOM     16  C   UNL d   1      59.699  -0.686  28.885  0.00  0.00     0.002 A 
ATOM     17  C   UNL d   1      58.590  -1.484  29.306  0.00  0.00     0.002 C 
ATOM     18  C   UNL d   1      60.113   0.032  28.896  0.00  0.00     0.000 A 
ATOM     19  C   UNL d   1      59.828   0.676  29.345  0.00  0.00     0.002 A 
ATOM     20  C   UNL d   1      60.809   0.095  28.457  0.00  0.00     0.000 C 
ATOM     21  C   UNL d   1      59.144   0.578  29.762  0.00  0.00     0.019 A 
ENDBRANCH   1  14
TORSDOF 5
ENDMDL
MODEL 3
REMARK VINA RESULT:      -3.6      1.073      1.449
REMARK  5 active torsions:
REMARK  status: ('A' for Active; 'I' for Inactive)
REMARK    1  A    between atoms: N_2  and  C_1 
REMARK    2  A    between atoms: C_10  and  C_5 
REMARK       I    between atoms: N_6  and  C_7 
REMARK    3  A    between atoms: C_8  and  N_6 
REMARK    4  A    between atoms: C_7  and  C_11 
REMARK    5  A    between atoms: C_11  and  C_10 
ROOT
ATOM      1  N   UNL d   1      57.074   0.319  32.746  0.00  0.00    -0.208 NA
ATOM      2  C   UNL d   1      56.953   0.470  31.944  0.00  0.00     0.279 C 
ATOM      3  O   UNL d   1      56.216   0.676  31.672  0.00  0.00    -0.265 OA
ENDROOT
BRANCH   2   4
ATOM      4  C   UNL d   1      57.586   0.412  31.418  0.00  0.00     0.063 C 
BRANCH   4   5
ATOM      5  C   UNL d   1      57.453   0.351  30.616  0.00  0.00     0.011 C 
BRANCH   5   6
ATOM      6  C   UNL d   1      58.024  -0.011  30.116  0.00  0.00     0.031 A 
ATOM      7  S   UNL d   1      58.300  -0.785  30.073  0.00  0.00    -0.064 SA
ATOM      8  C   UNL d   1      58.854  -0.803  29.476  0.00  0.00     0.156 A 
ATOM      9  C   UNL d   1      58.931  -0.070  29.148  0.00  0.00     0.031 A 
ATOM     10  C   UNL d   1      58.407   0.429  29.551  0.00  0.00     0.009 A 
BRANCH   8  11
ATOM     11  N   UNL d   1      59.266  -1.481  29.254  0.00  0.00    -0.107 N 
ATOM     12  O   UNL d   1      59.046  -2.226  29.530  0.00  0.00    -0.531 OA
ATOM     13  O   UNL d   1      59.906  -1.407  28.749  0.00  0.00    -0.531 OA
ENDBRANCH   8  11
ENDBRANCH   5   6
ENDBRANCH   4   5
ENDBRANCH   2   4
BRANCH   1  14
ATOM     14  C   UNL d   1      56.441   0.377  33.271  0.00  0.00     0.085 A 
ATOM     15  C   UNL d   1      56.582   0.555  34.067  0.00  0.00     0.018 A 
ATOM     16  C   UNL d   1      55.962   0.613  34.581  0.00  0.00     0.002 A 
ATOM     17  C   UNL d   1      57.368   0.674  34.327  0.00  0.00     0.002 C 
ATOM     18  C   UNL d   1      55.188   0.493  34.311  0.00  0.00     0.000 A 
ATOM     19  C   UNL d   1      55.045   0.313  33.508  0.00  0.00     0.002 A 
ATOM     20  C   UNL d   1      54.566   0.556  34.850  0.00  0.00     0.000 C 
ATOM     21  C   UNL d   1      55.677   0.260  33.010  0.00  0.00     0.019 A 
ENDBRANCH   1  14
TORSDOF 5
ENDMDL
MODEL 4
REMARK VINA RESULT:      -2.3      2.256      5.410
REMARK  5 active torsions:
REMARK  status: ('A' for Active; 'I' for Inactive)
REMARK    1  A    between atoms: N_2  and  C_1 
REMARK    2  A    between atoms: C_10  and  C_5 
REMARK       I    between atoms: N_6  and  C_7 
REMARK    3  A    between atoms: C_8  and  N_6 
REMARK    4  A    between atoms: C_7  and  C_11 
REMARK    5  A    between atoms: C_11  and  C_10 
ROOT
ATOM      1  N   UNL d   1      59.455  -1.544  29.438  0.00  0.00    -0.208 NA
ATOM      2  C   UNL d   1      58.727  -1.638  29.816  0.00  0.00     0.279 C 
ATOM      3  O   UNL d   1      58.423  -2.380  29.944  0.00  0.00    -0.265 OA
ENDROOT
BRANCH   2   4
ATOM      4  C   UNL d   1      58.309  -0.972  30.065  0.00  0.00     0.063 C 
BRANCH   4   5
ATOM      5  C   UNL d   1      57.596  -1.052  30.454  0.00  0.00     0.011 C 
BRANCH   5   6
ATOM      6  C   UNL d   1      57.373  -0.505  31.052  0.00  0.00     0.031 A 
ATOM      7  S   UNL d   1      56.974  -0.607  31.763  0.00  0.00    -0.064 SA
ATOM      8  C   UNL d   1      56.920   0.128  32.109  0.00  0.00     0.156 A 
ATOM      9  C   UNL d   1      57.272   0.682  31.639  0.00  0.00     0.031 A 
ATOM     10  C   UNL d   1      57.557   0.282  30.973  0.00  0.00     0.009 A 
BRANCH   8  11
ATOM     11  N   UNL d   1      56.556   0.268  32.835  0.00  0.00    -0.107 N 
ATOM     12  O   UNL d   1      56.999   0.391  33.520  0.00  0.00    -0.531 OA
ATOM     13  O   UNL d   1      55.738   0.284  32.871  0.00  0.00    -0.531 OA
ENDBRANCH   8  11
ENDBRANCH   5   6
ENDBRANCH   4   5
ENDBRANCH   2   4
BRANCH   1  14
ATOM     14  C   UNL d   1      59.873  -2.211  29.190  0.00  0.00     0.085 A 
ATOM     15  C   UNL d   1      60.695  -2.237  29.280  0.00  0.00     0.018 A 
ATOM     16  C   UNL d   1      61.104  -2.889  29.037  0.00  0.00     0.002 A 
ATOM     17  C   UNL d   1      61.091  -1.586  29.623  0.00  0.00     0.002 C 
ATOM     18  C   UNL d   1      60.700  -3.529  28.698  0.00  0.00     0.000 A 
ATOM     19  C   UNL d   1      59.870  -3.503  28.607  0.00  0.00     0.002 A 
ATOM     20  C   UNL d   1      61.133  -4.187  28.455  0.00  0.00     0.000 C 
ATOM     21  C   UNL d   1      59.479  -2.842  28.856  0.00  0.00     0.019 A 
ENDBRANCH   1  14
TORSDOF 5
ENDMDL
