MODEL 1
REMARK VINA RESULT:      -1.5      0.000      0.000
REMARK  6 active torsions:
REMARK  status: ('A' for Active; 'I' for Inactive)
REMARK    1  A    between atoms: C_12  and  N_1 
REMARK    2  A    between atoms: S_10  and  C_2 
REMARK    3  A    between atoms: C_5  and  N_7 
REMARK       I    between atoms: N_7  and  C_11 
REMARK    4  A    between atoms: C_16  and  S_10 
REMARK    5  A    between atoms: C_11  and  C_16 
REMARK    6  A    between atoms: C_17  and  C_12 
ROOT
ATOM      1  N   UNL d   1      33.183  22.366 -22.728  0.00  0.00    -0.303 N 
ATOM      2  C   UNL d   1      33.180  21.358 -23.603  0.00  0.00     0.049 A 
ATOM      3  C   UNL d   1      33.241  21.561 -22.795  0.00  0.00     0.087 A 
ATOM      4  C   UNL d   1      33.085  22.066 -24.019  0.00  0.00     0.024 A 
ATOM      5  C   UNL d   1      33.086  22.689 -23.478  0.00  0.00     0.065 A 
ATOM      6  C   UNL d   1      32.997  22.216 -24.821  0.00  0.00     0.002 A 
ATOM      7  C   UNL d   1      33.000  23.463 -23.740  0.00  0.00     0.018 A 
ATOM      8  C   UNL d   1      32.910  22.994 -25.086  0.00  0.00     0.000 A 
ATOM      9  C   UNL d   1      32.912  23.617 -24.546  0.00  0.00     0.002 A 
ENDROOT
BRANCH   2  10
ATOM     10  S   UNL d   1      33.209  20.603 -23.927  0.00  0.00    -0.080 SA
BRANCH  10  11
ATOM     11  C   UNL d   1      32.956  19.947 -23.485  0.00  0.00     0.098 C 
BRANCH  11  12
ATOM     12  C   UNL d   1      32.877  19.207 -23.833  0.00  0.00     0.288 C 
ATOM     13  N   UNL d   1      32.754  18.531 -23.374  0.00  0.00    -0.182 NA
ATOM     14  O   UNL d   1      32.922  19.142 -24.646  0.00  0.00    -0.265 OA
BRANCH  13  15
ATOM     15  C   UNL d   1      32.677  17.794 -23.732  0.00  0.00     0.197 A 
ATOM     16  N   UNL d   1      32.907  17.522 -24.477  0.00  0.00    -0.219 NA
ATOM     17  C   UNL d   1      32.682  16.725 -24.532  0.00  0.00     0.108 A 
ATOM     18  C   UNL d   1      32.319  16.519 -23.823  0.00  0.00     0.059 A 
ATOM     19  S   UNL d   1      32.316  17.180 -23.329  0.00  0.00    -0.046 SA
ENDBRANCH  13  15
ENDBRANCH  11  12
ENDBRANCH  10  11
ENDBRANCH   2  10
BRANCH   1  20
ATOM     20  C   UNL d   1      33.217  22.799 -22.010  0.00  0.00     0.080 C 
BRANCH  20  21
ATOM     21  C   UNL d   1      32.842  22.515 -21.337  0.00  0.00     0.018 A 
ATOM     22  C   UNL d   1      33.240  22.023 -20.807  0.00  0.00     0.002 A 
ATOM     23  C   UNL d   1      32.859  21.741 -20.133  0.00  0.00     0.000 A 
ATOM     24  C   UNL d   1      32.082  21.946 -19.981  0.00  0.00     0.000 A 
ATOM     25  C   UNL d   1      31.670  22.445 -20.513  0.00  0.00     0.000 A 
ATOM     26  C   UNL d   1      32.058  22.725 -21.189  0.00  0.00     0.002 A 
ENDBRANCH  20  21
ENDBRANCH   1  20
TORSDOF 6
ENDMDL
