MODEL 1
REMARK VINA RESULT:      37.0      0.000      0.000
REMARK  2 active torsions:
REMARK  status: ('A' for Active; 'I' for Inactive)
REMARK       I    between atoms: N_3  and  C_1 
REMARK    1  A    between atoms: C_4  and  C_1 
REMARK    2  A    between atoms: C_10  and  N_3 
ROOT
ATOM      1  C   UNL d   1     -51.250  25.813  33.564  0.00  0.00     0.279 C 
ATOM      2  N   UNL d   1     -51.602  26.550  33.437  0.00  0.00    -0.208 NA
ATOM      3  O   UNL d   1     -50.447  25.764  33.755  0.00  0.00    -0.265 OA
ENDROOT
BRANCH   1   4
ATOM      4  C   UNL d   1     -51.708  25.130  33.498  0.00  0.00     0.059 A 
ATOM      5  C   UNL d   1     -52.527  25.185  33.548  0.00  0.00     0.013 A 
ATOM      6  C   UNL d   1     -52.993  24.515  33.484  0.00  0.00     0.049 A 
ATOM      7  S   UNL d   1     -53.816  24.403  33.513  0.00  0.00    -0.064 SA
ATOM      8  C   UNL d   1     -52.632  23.765  33.366  0.00  0.00     0.088 A 
ATOM      9  C   UNL d   1     -53.952  23.590  33.413  0.00  0.00     0.135 A 
ATOM     10  N   UNL d   1     -53.238  23.192  33.323  0.00  0.00    -0.236 NA
ATOM     11  C   UNL d   1     -51.807  23.698  33.314  0.00  0.00     0.020 A 
ATOM     12  C   UNL d   1     -51.349  24.381  33.380  0.00  0.00     0.006 A 
ENDBRANCH   1   4
BRANCH   2  13
ATOM     13  C   UNL d   1     -51.121  27.253  33.507  0.00  0.00     0.087 A 
ATOM     14  C   UNL d   1     -51.446  27.997  33.372  0.00  0.00     0.049 A 
ATOM     15  C   UNL d   1     -50.981  28.664  33.440  0.00  0.00     0.142 A 
ATOM     16  F   UNL d   1     -51.301  29.420  33.306  0.00  0.00    -0.204 F 
ATOM     17  C   UNL d   1     -50.192  28.592  33.643  0.00  0.00     0.030 A 
ATOM     18  C   UNL d   1     -49.863  27.851  33.779  0.00  0.00     0.004 A 
ATOM     19  C   UNL d   1     -50.333  27.172  33.710  0.00  0.00     0.019 A 
ENDBRANCH   2  13
TORSDOF 2
ENDMDL
