MODEL 1
REMARK VINA RESULT:      47.8      0.000      0.000
REMARK  4 active torsions:
REMARK  status: ('A' for Active; 'I' for Inactive)
REMARK    1  A    between atoms: C_10  and  C_2 
REMARK    2  A    between atoms: C_13  and  C_6 
REMARK    3  A    between atoms: O_17  and  C_10 
REMARK    4  A    between atoms: C_23  and  O_17 
ROOT
ATOM      1  C   UNL d   1      57.524  49.669  51.964  0.00  0.00     0.081 A 
ATOM      2  C   UNL d   1      58.686  49.634  51.125  0.00  0.00     0.106 A 
ATOM      3  C   UNL d   1      59.176  49.626  51.795  0.00  0.00     0.208 A 
ATOM      4  C   UNL d   1      58.015  49.661  52.634  0.00  0.00     0.108 A 
ATOM      5  C   UNL d   1      56.702  49.690  52.053  0.00  0.00     0.281 A 
ATOM      6  C   UNL d   1      57.858  49.656  51.207  0.00  0.00     0.015 A 
ATOM      7  O   UNL d   1      58.831  49.639  52.549  0.00  0.00    -0.288 OA
ATOM      8  N   UNL d   1      56.367  49.703  52.810  0.00  0.00    -0.208 NA
ATOM      9  C   UNL d   1      57.684  49.673  53.394  0.00  0.00     0.044 A 
ATOM     10  C   UNL d   1      56.854  49.695  53.489  0.00  0.00     0.087 A 
ATOM     11  O   UNL d   1      56.219  49.698  51.388  0.00  0.00    -0.265 OA
ATOM     12  N   UNL d   1      59.986  49.605  51.709  0.00  0.00    -0.121 N 
ATOM     13  C   UNL d   1      56.522  49.708  54.234  0.00  0.00     0.021 C 
ENDROOT
BRANCH   6  14
ATOM     14  C   UNL d   1      57.372  49.664  50.544  0.00  0.00     0.004 A 
ATOM     15  C   UNL d   1      56.554  49.671  50.642  0.00  0.00     0.021 A 
ATOM     16  C   UNL d   1      56.068  49.679  49.979  0.00  0.00     0.099 A 
ATOM     17  N   UNL d   1      56.399  49.681  49.228  0.00  0.00    -0.242 NA
ATOM     18  C   UNL d   1      57.221  49.674  49.136  0.00  0.00     0.099 A 
ATOM     19  C   UNL d   1      57.703  49.666  49.792  0.00  0.00     0.021 A 
ENDBRANCH   6  14
BRANCH   2  20
ATOM     20  C   UNL d   1      59.024  49.621  50.375  0.00  0.00     0.304 C 
ATOM     21  O   UNL d   1      58.543  49.521  49.715  0.00  0.00    -0.259 OA
BRANCH  20  22
ATOM     22  O   UNL d   1      59.830  49.707  50.285  0.00  0.00    -0.271 OA
BRANCH  22  23
ATOM     23  C   UNL d   1      60.355  49.222  50.691  0.00  0.00     0.126 C 
ATOM     24  C   UNL d   1      61.157  49.412  50.708  0.00  0.00     0.029 C 
ENDBRANCH  22  23
ENDBRANCH  20  22
ENDBRANCH   2  20
TORSDOF 4
ENDMDL
MODEL 2
REMARK VINA RESULT:      48.2      1.257      2.896
REMARK  4 active torsions:
REMARK  status: ('A' for Active; 'I' for Inactive)
REMARK    1  A    between atoms: C_10  and  C_2 
REMARK    2  A    between atoms: C_13  and  C_6 
REMARK    3  A    between atoms: O_17  and  C_10 
REMARK    4  A    between atoms: C_23  and  O_17 
ROOT
ATOM      1  C   UNL d   1      58.448  49.640  50.691  0.00  0.00     0.081 A 
ATOM      2  C   UNL d   1      59.826  49.595  50.300  0.00  0.00     0.106 A 
ATOM      3  C   UNL d   1      59.604  49.589  49.500  0.00  0.00     0.208 A 
ATOM      4  C   UNL d   1      58.226  49.634  49.890  0.00  0.00     0.108 A 
ATOM      5  C   UNL d   1      57.868  49.666  51.281  0.00  0.00     0.281 A 
ATOM      6  C   UNL d   1      59.249  49.621  50.898  0.00  0.00     0.015 A 
ATOM      7  O   UNL d   1      58.798  49.609  49.303  0.00  0.00    -0.288 OA
ATOM      8  N   UNL d   1      57.067  49.685  51.074  0.00  0.00    -0.208 NA
ATOM      9  C   UNL d   1      57.425  49.653  49.679  0.00  0.00     0.044 A 
ATOM     10  C   UNL d   1      56.836  49.679  50.272  0.00  0.00     0.087 A 
ATOM     11  O   UNL d   1      58.091  49.672  52.072  0.00  0.00    -0.265 OA
ATOM     12  N   UNL d   1      60.174  49.564  48.917  0.00  0.00    -0.121 N 
ATOM     13  C   UNL d   1      56.046  49.698  50.071  0.00  0.00     0.021 C 
ENDROOT
BRANCH   6  14
ATOM     14  C   UNL d   1      59.468  49.627  51.691  0.00  0.00     0.004 A 
ATOM     15  C   UNL d   1      58.884  49.610  52.272  0.00  0.00     0.021 A 
ATOM     16  C   UNL d   1      59.103  49.616  53.064  0.00  0.00     0.099 A 
ATOM     17  N   UNL d   1      59.898  49.640  53.270  0.00  0.00    -0.242 NA
ATOM     18  C   UNL d   1      60.479  49.657  52.681  0.00  0.00     0.099 A 
ATOM     19  C   UNL d   1      60.263  49.651  51.897  0.00  0.00     0.021 A 
ENDBRANCH   6  14
BRANCH   2  20
ATOM     20  C   UNL d   1      60.624  49.576  50.499  0.00  0.00     0.304 C 
ATOM     21  O   UNL d   1      60.844  49.444  51.280  0.00  0.00    -0.259 OA
BRANCH  20  22
ATOM     22  O   UNL d   1      61.195  49.687  49.927  0.00  0.00    -0.271 OA
BRANCH  22  23
ATOM     23  C   UNL d   1      61.654  49.060  49.660  0.00  0.00     0.126 C 
ATOM     24  C   UNL d   1      62.042  48.576  50.203  0.00  0.00     0.029 C 
ENDBRANCH  22  23
ENDBRANCH  20  22
ENDBRANCH   2  20
TORSDOF 4
ENDMDL
MODEL 3
REMARK VINA RESULT:      49.7      1.634      3.594
REMARK  4 active torsions:
REMARK  status: ('A' for Active; 'I' for Inactive)
REMARK    1  A    between atoms: C_10  and  C_2 
REMARK    2  A    between atoms: C_13  and  C_6 
REMARK    3  A    between atoms: O_17  and  C_10 
REMARK    4  A    between atoms: C_23  and  O_17 
ROOT
ATOM      1  C   UNL d   1      60.651  49.412  51.751  0.00  0.00     0.081 A 
ATOM      2  C   UNL d   1      59.343  49.413  51.166  0.00  0.00     0.106 A 
ATOM      3  C   UNL d   1      59.009  49.609  51.900  0.00  0.00     0.208 A 
ATOM      4  C   UNL d   1      60.317  49.608  52.486  0.00  0.00     0.108 A 
ATOM      5  C   UNL d   1      61.470  49.315  51.681  0.00  0.00     0.281 A 
ATOM      6  C   UNL d   1      60.165  49.314  51.089  0.00  0.00     0.015 A 
ATOM      7  O   UNL d   1      59.505  49.705  52.559  0.00  0.00    -0.288 OA
ATOM      8  N   UNL d   1      61.957  49.412  52.344  0.00  0.00    -0.208 NA
ATOM      9  C   UNL d   1      60.801  49.706  53.152  0.00  0.00     0.044 A 
ATOM     10  C   UNL d   1      61.628  49.609  53.086  0.00  0.00     0.087 A 
ATOM     11  O   UNL d   1      61.798  49.121  50.953  0.00  0.00    -0.265 OA
ATOM     12  N   UNL d   1      58.203  49.705  51.971  0.00  0.00    -0.121 N 
ATOM     13  C   UNL d   1      62.110  49.704  53.737  0.00  0.00     0.021 C 
ENDROOT
BRANCH   6  14
ATOM     14  C   UNL d   1      60.497  49.121  50.362  0.00  0.00     0.004 A 
ATOM     15  C   UNL d   1      60.695  48.337  50.203  0.00  0.00     0.021 A 
ATOM     16  C   UNL d   1      61.027  48.143  49.476  0.00  0.00     0.099 A 
ATOM     17  N   UNL d   1      61.157  48.729  48.915  0.00  0.00    -0.242 NA
ATOM     18  C   UNL d   1      60.955  49.515  49.081  0.00  0.00     0.099 A 
ATOM     19  C   UNL d   1      60.627  49.707  49.801  0.00  0.00     0.021 A 
ENDBRANCH   6  14
BRANCH   2  20
ATOM     20  C   UNL d   1      58.854  49.318  50.511  0.00  0.00     0.304 C 
ATOM     21  O   UNL d   1      59.040  49.700  49.807  0.00  0.00    -0.259 OA
BRANCH  20  22
ATOM     22  O   UNL d   1      58.189  48.848  50.558  0.00  0.00    -0.271 OA
BRANCH  22  23
ATOM     23  C   UNL d   1      57.528  49.001  50.094  0.00  0.00     0.126 C 
ATOM     24  C   UNL d   1      56.795  48.692  50.311  0.00  0.00     0.029 C 
ENDBRANCH  22  23
ENDBRANCH  20  22
ENDBRANCH   2  20
TORSDOF 4
ENDMDL
