MODEL 1
REMARK VINA RESULT:      52.5      0.000      0.000
REMARK  3 active torsions:
REMARK  status: ('A' for Active; 'I' for Inactive)
REMARK    1  A    between atoms: C_2  and  N_1 
REMARK    2  A    between atoms: C_4  and  N_1 
REMARK    3  A    between atoms: C_5  and  C_2 
ROOT
ATOM      1  N   UNL d   1      61.397  46.668  50.390  0.00  0.00    -0.184 N 
ATOM      2  O   UNL d   1      61.062  46.437  51.104  0.00  0.00    -0.080 OA
ENDROOT
BRANCH   1   3
ATOM      3  C   UNL d   1      61.453  47.463  50.201  0.00  0.00     0.108 C 
BRANCH   3   4
ATOM      4  C   UNL d   1      61.068  48.029  50.666  0.00  0.00     0.020 A 
ATOM      5  C   UNL d   1      60.934  47.874  51.470  0.00  0.00     0.004 A 
ATOM      6  C   UNL d   1      60.551  48.438  51.934  0.00  0.00     0.030 A 
ATOM      7  C   UNL d   1      60.304  49.145  51.606  0.00  0.00     0.140 A 
ATOM      8  C   UNL d   1      60.442  49.288  50.810  0.00  0.00     0.030 A 
ATOM      9  F   UNL d   1      59.922  49.708  52.069  0.00  0.00    -0.204 F 
ATOM     10  C   UNL d   1      60.824  48.731  50.336  0.00  0.00     0.004 A 
ENDBRANCH   3   4
ENDBRANCH   1   3
BRANCH   1  11
ATOM     11  C   UNL d   1      61.680  46.090  49.863  0.00  0.00     0.090 A 
ATOM     12  C   UNL d   1      62.420  46.166  49.532  0.00  0.00     0.020 A 
ATOM     13  C   UNL d   1      62.692  45.593  49.014  0.00  0.00     0.002 A 
ATOM     14  C   UNL d   1      62.216  44.941  48.828  0.00  0.00     0.000 A 
ATOM     15  C   UNL d   1      61.464  44.874  49.171  0.00  0.00     0.002 A 
ATOM     16  C   UNL d   1      61.194  45.444  49.686  0.00  0.00     0.020 A 
ENDBRANCH   1  11
TORSDOF 3
ENDMDL
MODEL 2
REMARK VINA RESULT:      53.3      3.425      4.315
REMARK  3 active torsions:
REMARK  status: ('A' for Active; 'I' for Inactive)
REMARK    1  A    between atoms: C_2  and  N_1 
REMARK    2  A    between atoms: C_4  and  N_1 
REMARK    3  A    between atoms: C_5  and  C_2 
ROOT
ATOM      1  N   UNL d   1      59.491  49.683  50.840  0.00  0.00    -0.184 N 
ATOM      2  O   UNL d   1      59.557  49.704  50.021  0.00  0.00    -0.080 OA
ENDROOT
BRANCH   1   3
ATOM      3  C   UNL d   1      58.753  49.708  51.194  0.00  0.00     0.108 C 
BRANCH   3   4
ATOM      4  C   UNL d   1      58.068  49.676  50.730  0.00  0.00     0.020 A 
ATOM      5  C   UNL d   1      58.137  49.618  49.905  0.00  0.00     0.004 A 
ATOM      6  C   UNL d   1      57.454  49.585  49.442  0.00  0.00     0.030 A 
ATOM      7  C   UNL d   1      56.716  49.610  49.792  0.00  0.00     0.140 A 
ATOM      8  C   UNL d   1      56.660  49.667  50.609  0.00  0.00     0.030 A 
ATOM      9  F   UNL d   1      56.036  49.577  49.331  0.00  0.00    -0.204 F 
ATOM     10  C   UNL d   1      57.336  49.700  51.082  0.00  0.00     0.004 A 
ENDBRANCH   3   4
ENDBRANCH   1   3
BRANCH   1  11
ATOM     11  C   UNL d   1      60.179  49.637  51.307  0.00  0.00     0.090 A 
ATOM     12  C   UNL d   1      60.908  49.566  50.953  0.00  0.00     0.020 A 
ATOM     13  C   UNL d   1      61.581  49.521  51.418  0.00  0.00     0.002 A 
ATOM     14  C   UNL d   1      61.518  49.547  52.243  0.00  0.00     0.000 A 
ATOM     15  C   UNL d   1      60.770  49.618  52.593  0.00  0.00     0.002 A 
ATOM     16  C   UNL d   1      60.101  49.663  52.131  0.00  0.00     0.020 A 
ENDBRANCH   1  11
TORSDOF 3
ENDMDL
MODEL 3
REMARK VINA RESULT:      54.5      2.276      3.238
REMARK  3 active torsions:
REMARK  status: ('A' for Active; 'I' for Inactive)
REMARK    1  A    between atoms: C_2  and  N_1 
REMARK    2  A    between atoms: C_4  and  N_1 
REMARK    3  A    between atoms: C_5  and  C_2 
ROOT
ATOM      1  N   UNL d   1      60.199  49.155  51.370  0.00  0.00    -0.184 N 
ATOM      2  O   UNL d   1      60.291  48.854  52.130  0.00  0.00    -0.080 OA
ENDROOT
BRANCH   1   3
ATOM      3  C   UNL d   1      59.546  49.612  51.185  0.00  0.00     0.108 C 
BRANCH   3   4
ATOM      4  C   UNL d   1      58.823  49.250  51.004  0.00  0.00     0.020 A 
ATOM      5  C   UNL d   1      58.761  48.423  51.039  0.00  0.00     0.004 A 
ATOM      6  C   UNL d   1      58.041  48.062  50.858  0.00  0.00     0.030 A 
ATOM      7  C   UNL d   1      57.394  48.514  50.647  0.00  0.00     0.140 A 
ATOM      8  C   UNL d   1      57.467  49.331  50.615  0.00  0.00     0.030 A 
ATOM      9  F   UNL d   1      56.676  48.155  50.467  0.00  0.00    -0.204 F 
ATOM     10  C   UNL d   1      58.182  49.702  50.794  0.00  0.00     0.004 A 
ENDBRANCH   3   4
ENDBRANCH   1   3
BRANCH   1  11
ATOM     11  C   UNL d   1      60.775  48.991  50.791  0.00  0.00     0.090 A 
ATOM     12  C   UNL d   1      60.969  48.221  50.616  0.00  0.00     0.020 A 
ATOM     13  C   UNL d   1      61.537  48.067  50.045  0.00  0.00     0.002 A 
ATOM     14  C   UNL d   1      61.908  48.693  49.650  0.00  0.00     0.000 A 
ATOM     15  C   UNL d   1      61.702  49.473  49.837  0.00  0.00     0.002 A 
ATOM     16  C   UNL d   1      61.138  49.627  50.404  0.00  0.00     0.020 A 
ENDBRANCH   1  11
TORSDOF 3
ENDMDL
