MODEL 1
REMARK VINA RESULT:      -1.0      0.000      0.000
REMARK  5 active torsions:
REMARK  status: ('A' for Active; 'I' for Inactive)
REMARK    1  A    between atoms: O_4  and  C_1 
REMARK    2  A    between atoms: C_9  and  C_2 
REMARK    3  A    between atoms: C_5  and  O_4 
REMARK    4  A    between atoms: C_12  and  C_5 
REMARK    5  A    between atoms: N_10  and  C_9 
ROOT
ATOM      1  C   UNL d   1      33.079  21.298 -22.072  0.00  0.00     0.122 A 
ATOM      2  C   UNL d   1      33.174  21.705 -22.784  0.00  0.00     0.043 A 
ATOM      3  C   UNL d   1      33.038  20.474 -22.072  0.00  0.00     0.105 A 
ATOM      4  C   UNL d   1      33.093  20.059 -22.782  0.00  0.00     0.030 A 
ATOM      5  C   UNL d   1      33.187  20.471 -23.484  0.00  0.00     0.059 A 
ATOM      6  C   UNL d   1      33.228  21.289 -23.493  0.00  0.00     0.015 A 
ATOM      7  N   UNL d   1      32.944  20.074 -21.365  0.00  0.00    -0.242 NA
ATOM      8 CL   UNL d   1      33.240  20.028 -24.190  0.00  0.00    -0.082 Cl
ATOM      9  C   UNL d   1      33.052  19.247 -22.777  0.00  0.00     0.004 A 
ATOM     10  C   UNL d   1      32.903  19.250 -21.365  0.00  0.00     0.099 A 
ATOM     11  C   UNL d   1      32.958  18.835 -22.075  0.00  0.00     0.021 A 
ENDROOT
BRANCH   1  12
ATOM     12  O   UNL d   1      33.028  21.666 -21.424  0.00  0.00    -0.271 OA
BRANCH  12  13
ATOM     13  C   UNL d   1      32.376  21.949 -20.773  0.00  0.00     0.300 C 
ATOM     14  O   UNL d   1      31.428  21.721 -21.016  0.00  0.00    -0.259 OA
BRANCH  13  15
ATOM     15  C   UNL d   1      32.599  22.342 -20.085  0.00  0.00     0.064 A 
ATOM     16  C   UNL d   1      32.718  21.913 -19.383  0.00  0.00     0.008 A 
ATOM     17  C   UNL d   1      32.944  22.314 -18.688  0.00  0.00     0.030 A 
ATOM     18  C   UNL d   1      33.052  23.143 -18.693  0.00  0.00     0.140 A 
ATOM     19  C   UNL d   1      32.933  23.567 -19.396  0.00  0.00     0.030 A 
ATOM     20  F   UNL d   1      33.217  23.422 -18.181  0.00  0.00    -0.204 F 
ATOM     21  C   UNL d   1      32.707  23.165 -20.090  0.00  0.00     0.008 A 
ENDBRANCH  13  15
ENDBRANCH  12  13
ENDBRANCH   1  12
BRANCH   2  22
ATOM     22  C   UNL d   1      33.238  22.592 -22.980  0.00  0.00     0.082 C 
BRANCH  22  23
ATOM     23  N   UNL d   1      32.893  22.879 -23.667  0.00  0.00    -0.299 N 
ATOM     24  C   UNL d   1      33.166  22.626 -24.394  0.00  0.00     0.107 A 
ATOM     25  C   UNL d   1      32.828  22.906 -25.095  0.00  0.00     0.142 A 
ATOM     26  O   UNL d   1      32.215  23.443 -25.051  0.00  0.00    -0.300 OA
ATOM     27  C   UNL d   1      31.935  23.702 -24.314  0.00  0.00     0.142 A 
ATOM     28  C   UNL d   1      32.281  23.414 -23.630  0.00  0.00     0.107 A 
ENDBRANCH  22  23
ENDBRANCH   2  22
TORSDOF 5
ENDMDL
MODEL 2
REMARK VINA RESULT:      -0.4      1.096      2.930
REMARK  5 active torsions:
REMARK  status: ('A' for Active; 'I' for Inactive)
REMARK    1  A    between atoms: O_4  and  C_1 
REMARK    2  A    between atoms: C_9  and  C_2 
REMARK    3  A    between atoms: C_5  and  O_4 
REMARK    4  A    between atoms: C_12  and  C_5 
REMARK    5  A    between atoms: N_10  and  C_9 
ROOT
ATOM      1  C   UNL d   1      33.027  21.639 -22.658  0.00  0.00     0.122 A 
ATOM      2  C   UNL d   1      33.139  20.861 -22.906  0.00  0.00     0.043 A 
ATOM      3  C   UNL d   1      32.985  22.246 -23.215  0.00  0.00     0.105 A 
ATOM      4  C   UNL d   1      33.056  22.075 -24.018  0.00  0.00     0.030 A 
ATOM      5  C   UNL d   1      33.167  21.298 -24.256  0.00  0.00     0.059 A 
ATOM      6  C   UNL d   1      33.209  20.689 -23.708  0.00  0.00     0.015 A 
ATOM      7  N   UNL d   1      32.874  23.017 -22.966  0.00  0.00    -0.242 NA
ATOM      8 CL   UNL d   1      33.236  21.148 -25.075  0.00  0.00    -0.082 Cl
ATOM      9  C   UNL d   1      33.015  22.676 -24.564  0.00  0.00     0.004 A 
ATOM     10  C   UNL d   1      32.833  23.624 -23.523  0.00  0.00     0.099 A 
ATOM     11  C   UNL d   1      32.903  23.452 -24.326  0.00  0.00     0.021 A 
ENDROOT
BRANCH   1  12
ATOM     12  O   UNL d   1      32.962  21.806 -21.933  0.00  0.00    -0.271 OA
BRANCH  12  13
ATOM     13  C   UNL d   1      32.310  22.109 -21.290  0.00  0.00     0.300 C 
ATOM     14  O   UNL d   1      31.366  22.108 -21.632  0.00  0.00    -0.259 OA
BRANCH  13  15
ATOM     15  C   UNL d   1      32.532  22.343 -20.533  0.00  0.00     0.064 A 
ATOM     16  C   UNL d   1      32.361  23.114 -20.271  0.00  0.00     0.008 A 
ATOM     17  C   UNL d   1      32.588  23.348 -19.503  0.00  0.00     0.030 A 
ATOM     18  C   UNL d   1      32.984  22.814 -18.997  0.00  0.00     0.140 A 
ATOM     19  C   UNL d   1      33.153  22.046 -19.262  0.00  0.00     0.030 A 
ATOM     20  F   UNL d   1      33.143  22.997 -18.441  0.00  0.00    -0.204 F 
ATOM     21  C   UNL d   1      32.926  21.813 -20.030  0.00  0.00     0.008 A 
ENDBRANCH  13  15
ENDBRANCH  12  13
ENDBRANCH   1  12
BRANCH   2  22
ATOM     22  C   UNL d   1      33.208  20.075 -22.450  0.00  0.00     0.082 C 
BRANCH  22  23
ATOM     23  N   UNL d   1      32.818  19.410 -22.731  0.00  0.00    -0.299 N 
ATOM     24  C   UNL d   1      33.236  18.722 -22.865  0.00  0.00     0.107 A 
ATOM     25  C   UNL d   1      32.855  18.044 -23.148  0.00  0.00     0.142 A 
ATOM     26  O   UNL d   1      32.052  18.071 -23.291  0.00  0.00    -0.300 OA
ATOM     27  C   UNL d   1      31.625  18.769 -23.155  0.00  0.00     0.142 A 
ATOM     28  C   UNL d   1      32.018  19.432 -22.876  0.00  0.00     0.107 A 
ENDBRANCH  22  23
ENDBRANCH   2  22
TORSDOF 5
ENDMDL
