MODEL 1
REMARK VINA RESULT:       7.2      0.000      0.000
REMARK  2 active torsions:
REMARK  status: ('A' for Active; 'I' for Inactive)
REMARK    1  A    between atoms: C_6  and  C_1 
REMARK    2  A    between atoms: C_8  and  C_5 
ROOT
ATOM      1  C   UNL d   1      13.412  12.199  -3.416  0.00  0.00     0.169 A 
ATOM      2  C   UNL d   1      14.020  12.324  -2.857  0.00  0.00     0.048 A 
ATOM      3  N   UNL d   1      12.981  11.781  -2.217  0.00  0.00    -0.148 NA
ATOM      4  N   UNL d   1      12.769  11.862  -3.011  0.00  0.00    -0.142 NA
ATOM      5  C   UNL d   1      13.759  12.071  -2.132  0.00  0.00     0.105 A 
ENDROOT
BRANCH   5   6
ATOM      6  C   UNL d   1      14.179  12.094  -1.446  0.00  0.00     0.019 A 
ATOM      7  C   UNL d   1      13.853  11.785  -0.754  0.00  0.00     0.002 A 
ATOM      8  C   UNL d   1      14.272  11.803  -0.043  0.00  0.00     0.000 A 
ATOM      9  C   UNL d   1      15.028  12.137  -0.037  0.00  0.00     0.000 A 
ATOM     10  C   UNL d   1      15.364  12.450  -0.727  0.00  0.00     0.000 A 
ATOM     11  C   UNL d   1      14.934  12.425  -1.425  0.00  0.00     0.002 A 
ENDBRANCH   5   6
BRANCH   1  12
ATOM     12  C   UNL d   1      13.470  12.385  -4.204  0.00  0.00     0.231 C 
ATOM     13  O   UNL d   1      13.754  11.874  -4.751  0.00  0.00    -0.643 OA
ATOM     14  O   UNL d   1      13.233  13.125  -4.478  0.00  0.00    -0.643 OA
ENDBRANCH   1  12
TORSDOF 2
ENDMDL
