MODEL 1
REMARK VINA RESULT:       1.2      0.000      0.000
REMARK  1 active torsions:
REMARK  status: ('A' for Active; 'I' for Inactive)
REMARK    1  A    between atoms: C_11  and  C_2 
ROOT
ATOM      1  C   UNL d   1      31.336  17.967 -24.330  0.00  0.00     0.026 A 
ATOM      2  C   UNL d   1      31.062  17.247 -24.075  0.00  0.00     0.007 A 
ATOM      3  C   UNL d   1      30.816  18.528 -24.615  0.00  0.00     0.103 A 
ATOM      4  C   UNL d   1      30.263  17.074 -24.101  0.00  0.00     0.026 A 
ATOM      5  C   UNL d   1      32.145  18.135 -24.301  0.00  0.00     0.047 A 
ATOM      6  C   UNL d   1      29.740  17.637 -24.387  0.00  0.00     0.103 A 
ATOM      7  O   UNL d   1      30.018  18.374 -24.649  0.00  0.00    -0.307 OA
ATOM      8  C   UNL d   1      31.090  19.257 -24.874  0.00  0.00     0.070 A 
ATOM      9  C   UNL d   1      32.436  18.857 -24.555  0.00  0.00     0.234 A 
ATOM     10  C   UNL d   1      31.912  19.427 -24.844  0.00  0.00     0.236 A 
ATOM     11  C   UNL d   1      29.969  16.350 -23.847  0.00  0.00     0.047 A 
ATOM     12  C   UNL d   1      28.919  17.477 -24.420  0.00  0.00     0.070 A 
ATOM     13  C   UNL d   1      29.150  16.175 -23.873  0.00  0.00     0.234 A 
ATOM     14  C   UNL d   1      28.632  16.750 -24.164  0.00  0.00     0.236 A 
ATOM     15  O   UNL d   1      32.211  20.147 -25.096  0.00  0.00    -0.283 OA
ATOM     16  O   UNL d   1      33.241  19.004 -24.518  0.00  0.00    -0.283 OA
ATOM     17  O   UNL d   1      28.864  15.453 -23.619  0.00  0.00    -0.283 OA
ATOM     18  O   UNL d   1      27.823  16.599 -24.200  0.00  0.00    -0.283 OA
ENDROOT
BRANCH   2  19
ATOM     19  C   UNL d   1      31.585  16.684 -23.788  0.00  0.00     0.039 A 
ATOM     20  C   UNL d   1      31.867  16.084 -24.297  0.00  0.00     0.196 A 
ATOM     21  O   UNL d   1      31.633  16.049 -25.072  0.00  0.00    -0.287 OA
ATOM     22  C   UNL d   1      32.394  15.516 -24.008  0.00  0.00     0.042 A 
ATOM     23  C   UNL d   1      32.643  15.542 -23.207  0.00  0.00     0.003 A 
ATOM     24  C   UNL d   1      32.357  16.140 -22.714  0.00  0.00     0.000 A 
ATOM     25  C   UNL d   1      31.830  16.703 -23.013  0.00  0.00     0.003 A 
ENDBRANCH   2  19
TORSDOF 1
ENDMDL
MODEL 2
REMARK VINA RESULT:       2.7      3.196      5.379
REMARK  1 active torsions:
REMARK  status: ('A' for Active; 'I' for Inactive)
REMARK    1  A    between atoms: C_11  and  C_2 
ROOT
ATOM      1  C   UNL d   1      32.940  20.102 -22.937  0.00  0.00     0.026 A 
ATOM      2  C   UNL d   1      32.849  20.864 -22.676  0.00  0.00     0.007 A 
ATOM      3  C   UNL d   1      33.127  19.953 -23.717  0.00  0.00     0.103 A 
ATOM      4  C   UNL d   1      32.943  21.494 -23.191  0.00  0.00     0.026 A 
ATOM      5  C   UNL d   1      32.843  19.471 -22.411  0.00  0.00     0.047 A 
ATOM      6  C   UNL d   1      33.131  21.344 -23.975  0.00  0.00     0.103 A 
ATOM      7  O   UNL d   1      33.225  20.565 -24.244  0.00  0.00    -0.307 OA
ATOM      8  C   UNL d   1      33.220  19.182 -23.984  0.00  0.00     0.070 A 
ATOM      9  C   UNL d   1      32.932  18.696 -22.659  0.00  0.00     0.234 A 
ATOM     10  C   UNL d   1      33.122  18.542 -23.449  0.00  0.00     0.236 A 
ATOM     11  C   UNL d   1      32.854  22.272 -22.943  0.00  0.00     0.047 A 
ATOM     12  C   UNL d   1      33.231  21.976 -24.515  0.00  0.00     0.070 A 
ATOM     13  C   UNL d   1      32.951  22.915 -23.471  0.00  0.00     0.234 A 
ATOM     14  C   UNL d   1      33.141  22.753 -24.260  0.00  0.00     0.236 A 
ATOM     15  O   UNL d   1      33.209  17.764 -23.690  0.00  0.00    -0.283 OA
ATOM     16  O   UNL d   1      32.832  18.086 -22.123  0.00  0.00    -0.283 OA
ATOM     17  O   UNL d   1      32.862  23.687 -23.219  0.00  0.00    -0.283 OA
ATOM     18  O   UNL d   1      33.241  23.370 -24.797  0.00  0.00    -0.283 OA
ENDROOT
BRANCH   2  19
ATOM     19  C   UNL d   1      32.661  21.014 -21.892  0.00  0.00     0.039 A 
ATOM     20  C   UNL d   1      31.871  20.932 -21.633  0.00  0.00     0.196 A 
ATOM     21  O   UNL d   1      31.284  20.707 -22.144  0.00  0.00    -0.287 OA
ATOM     22  C   UNL d   1      31.681  21.083 -20.842  0.00  0.00     0.042 A 
ATOM     23  C   UNL d   1      32.280  21.318 -20.303  0.00  0.00     0.003 A 
ATOM     24  C   UNL d   1      33.057  21.395 -20.571  0.00  0.00     0.000 A 
ATOM     25  C   UNL d   1      33.237  21.242 -21.364  0.00  0.00     0.003 A 
ENDBRANCH   2  19
TORSDOF 1
ENDMDL
MODEL 3
REMARK VINA RESULT:       2.8      4.231      6.249
REMARK  1 active torsions:
REMARK  status: ('A' for Active; 'I' for Inactive)
REMARK    1  A    between atoms: C_11  and  C_2 
ROOT
ATOM      1  C   UNL d   1      32.870  20.920 -22.219  0.00  0.00     0.026 A 
ATOM      2  C   UNL d   1      32.811  21.644 -21.860  0.00  0.00     0.007 A 
ATOM      3  C   UNL d   1      33.034  20.253 -21.779  0.00  0.00     0.103 A 
ATOM      4  C   UNL d   1      32.915  21.716 -21.051  0.00  0.00     0.026 A 
ATOM      5  C   UNL d   1      32.764  20.855 -23.037  0.00  0.00     0.047 A 
ATOM      6  C   UNL d   1      33.080  21.046 -20.608  0.00  0.00     0.103 A 
ATOM      7  O   UNL d   1      33.141  20.304 -20.974  0.00  0.00    -0.307 OA
ATOM      8  C   UNL d   1      33.094  19.518 -22.141  0.00  0.00     0.070 A 
ATOM      9  C   UNL d   1      32.820  20.131 -23.415  0.00  0.00     0.234 A 
ATOM     10  C   UNL d   1      32.986  19.453 -22.971  0.00  0.00     0.236 A 
ATOM     11  C   UNL d   1      32.859  22.442 -20.670  0.00  0.00     0.047 A 
ATOM     12  C   UNL d   1      33.189  21.101 -19.780  0.00  0.00     0.070 A 
ATOM     13  C   UNL d   1      32.966  22.513 -19.843  0.00  0.00     0.234 A 
ATOM     14  C   UNL d   1      33.132  21.831 -19.405  0.00  0.00     0.236 A 
ATOM     15  O   UNL d   1      33.041  18.733 -23.356  0.00  0.00    -0.283 OA
ATOM     16  O   UNL d   1      32.711  20.088 -24.225  0.00  0.00    -0.283 OA
ATOM     17  O   UNL d   1      32.909  23.238 -19.470  0.00  0.00    -0.283 OA
ATOM     18  O   UNL d   1      33.240  21.878 -18.590  0.00  0.00    -0.283 OA
ENDROOT
BRANCH   2  19
ATOM     19  C   UNL d   1      32.646  22.315 -22.303  0.00  0.00     0.039 A 
ATOM     20  C   UNL d   1      31.860  22.594 -22.354  0.00  0.00     0.196 A 
ATOM     21  O   UNL d   1      31.255  22.212 -21.973  0.00  0.00    -0.287 OA
ATOM     22  C   UNL d   1      31.694  23.270 -22.801  0.00  0.00     0.042 A 
ATOM     23  C   UNL d   1      32.312  23.673 -23.200  0.00  0.00     0.003 A 
ATOM     24  C   UNL d   1      33.085  23.387 -23.141  0.00  0.00     0.000 A 
ATOM     25  C   UNL d   1      33.241  22.710 -22.692  0.00  0.00     0.003 A 
ENDBRANCH   2  19
TORSDOF 1
ENDMDL
MODEL 4
REMARK VINA RESULT:       3.3      4.866      6.390
REMARK  1 active torsions:
REMARK  status: ('A' for Active; 'I' for Inactive)
REMARK    1  A    between atoms: C_11  and  C_2 
ROOT
ATOM      1  C   UNL d   1      32.740  22.435 -22.078  0.00  0.00     0.026 A 
ATOM      2  C   UNL d   1      32.739  22.030 -21.376  0.00  0.00     0.007 A 
ATOM      3  C   UNL d   1      32.837  23.245 -22.087  0.00  0.00     0.103 A 
ATOM      4  C   UNL d   1      32.834  22.428 -20.667  0.00  0.00     0.026 A 
ATOM      5  C   UNL d   1      32.643  22.027 -22.791  0.00  0.00     0.047 A 
ATOM      6  C   UNL d   1      32.932  23.242 -20.675  0.00  0.00     0.103 A 
ATOM      7  O   UNL d   1      32.933  23.658 -21.393  0.00  0.00    -0.307 OA
ATOM      8  C   UNL d   1      32.838  23.658 -22.797  0.00  0.00     0.070 A 
ATOM      9  C   UNL d   1      32.642  22.421 -23.508  0.00  0.00     0.234 A 
ATOM     10  C   UNL d   1      32.740  23.242 -23.520  0.00  0.00     0.236 A 
ATOM     11  C   UNL d   1      32.836  22.033 -19.946  0.00  0.00     0.047 A 
ATOM     12  C   UNL d   1      33.031  23.665 -19.959  0.00  0.00     0.070 A 
ATOM     13  C   UNL d   1      32.934  22.442 -19.222  0.00  0.00     0.234 A 
ATOM     14  C   UNL d   1      33.031  23.263 -19.242  0.00  0.00     0.236 A 
ATOM     15  O   UNL d   1      32.737  23.630 -24.241  0.00  0.00    -0.283 OA
ATOM     16  O   UNL d   1      32.544  21.998 -24.202  0.00  0.00    -0.283 OA
ATOM     17  O   UNL d   1      32.934  22.043 -18.508  0.00  0.00    -0.283 OA
ATOM     18  O   UNL d   1      33.129  23.686 -18.541  0.00  0.00    -0.283 OA
ENDROOT
BRANCH   2  19
ATOM     19  C   UNL d   1      32.642  21.216 -21.367  0.00  0.00     0.039 A 
ATOM     20  C   UNL d   1      31.920  20.888 -21.102  0.00  0.00     0.196 A 
ATOM     21  O   UNL d   1      31.312  21.362 -20.852  0.00  0.00    -0.287 OA
ATOM     22  C   UNL d   1      31.822  20.066 -21.094  0.00  0.00     0.042 A 
ATOM     23  C   UNL d   1      32.445  19.565 -21.350  0.00  0.00     0.003 A 
ATOM     24  C   UNL d   1      33.153  19.902 -21.610  0.00  0.00     0.000 A 
ATOM     25  C   UNL d   1      33.241  20.725 -21.614  0.00  0.00     0.003 A 
ENDBRANCH   2  19
TORSDOF 1
ENDMDL
