MODEL 1
REMARK VINA RESULT:      66.0      0.000      0.000
REMARK  5 active torsions:
REMARK  status: ('A' for Active; 'I' for Inactive)
REMARK    1  A    between atoms: C_10  and  N_6 
REMARK    2  A    between atoms: N_13  and  C_9 
REMARK    3  A    between atoms: C_14  and  C_10 
REMARK    4  A    between atoms: C_21  and  N_13 
REMARK    5  A    between atoms: C_24  and  C_21 
ROOT
ATOM      1  C   UNL d   1      58.332  49.673  50.991  0.00  0.00     0.176 A 
ATOM      2  C   UNL d   1      58.599  49.673  50.238  0.00  0.00     0.159 A 
ATOM      3  N   UNL d   1      58.839  49.662  51.610  0.00  0.00    -0.181 NA
ATOM      4  N   UNL d   1      57.535  49.684  51.139  0.00  0.00    -0.240 N 
ATOM      5  N   UNL d   1      57.284  49.695  49.772  0.00  0.00    -0.223 N 
ATOM      6  N   UNL d   1      59.901  49.650  50.700  0.00  0.00    -0.258 N 
ATOM      7  C   UNL d   1      57.013  49.695  50.537  0.00  0.00     0.343 A 
ATOM      8  C   UNL d   1      58.070  49.684  49.628  0.00  0.00     0.287 A 
ATOM      9  C   UNL d   1      59.615  49.651  51.472  0.00  0.00     0.292 A 
ATOM     10  O   UNL d   1      56.217  49.707  50.680  0.00  0.00    -0.245 OA
ATOM     11  O   UNL d   1      58.344  49.684  48.855  0.00  0.00    -0.265 OA
ATOM     12  C   UNL d   1      57.265  49.684  51.900  0.00  0.00     0.105 C 
ATOM     13  C   UNL d   1      56.743  49.707  49.135  0.00  0.00     0.107 C 
ENDROOT
BRANCH   6  14
ATOM     14  C   UNL d   1      60.534  49.644  50.170  0.00  0.00     0.084 C 
BRANCH  14  15
ATOM     15  C   UNL d   1      60.971  48.947  50.043  0.00  0.00     0.018 A 
ATOM     16  C   UNL d   1      60.767  48.267  50.463  0.00  0.00     0.002 A 
ATOM     17  C   UNL d   1      61.205  47.570  50.336  0.00  0.00     0.000 A 
ATOM     18  C   UNL d   1      61.174  46.792  50.643  0.00  0.00     0.000 C 
ATOM     19  C   UNL d   1      61.840  47.563  49.789  0.00  0.00     0.000 A 
ATOM     20  C   UNL d   1      62.022  48.258  49.381  0.00  0.00     0.000 A 
ATOM     21  C   UNL d   1      61.589  48.948  49.507  0.00  0.00     0.002 A 
ENDBRANCH  14  15
ENDBRANCH   6  14
BRANCH   9  22
ATOM     22  N   UNL d   1      60.136  49.639  52.074  0.00  0.00    -0.365 NA
BRANCH  22  23
ATOM     23  C   UNL d   1      60.826  49.695  52.541  0.00  0.00     0.164 C 
BRANCH  23  24
ATOM     24  C   UNL d   1      60.961  49.139  53.156  0.00  0.00     0.035 C 
ATOM     25  C   UNL d   1      61.524  49.297  53.750  0.00  0.00     0.003 C 
ENDBRANCH  23  24
ENDBRANCH  22  23
ENDBRANCH   9  22
TORSDOF 5
ENDMDL
