MODEL 1
REMARK VINA RESULT:     -10.3      0.000      0.000
REMARK  3 active torsions:
REMARK  status: ('A' for Active; 'I' for Inactive)
REMARK    1  A    between atoms: C_4  and  N_1 
REMARK    2  A    between atoms: S_5  and  C_6 
REMARK    3  A    between atoms: C_9  and  S_5 
ROOT
ATOM      1  C   UNL d   1      53.525  31.700  53.614  0.00  0.00     0.078 A 
ATOM      2  C   UNL d   1      52.812  31.930  53.245  0.00  0.00     0.080 A 
ATOM      3  C   UNL d   1      53.770  30.914  53.582  0.00  0.00     0.018 A 
ATOM      4  C   UNL d   1      52.357  31.364  52.849  0.00  0.00     0.010 A 
ATOM      5  C   UNL d   1      53.314  30.352  53.187  0.00  0.00     0.002 A 
ATOM      6  C   UNL d   1      52.604  30.577  52.819  0.00  0.00     0.001 A 
ENDROOT
BRANCH   1   7
ATOM      7  N   UNL d   1      53.981  32.260  54.008  0.00  0.00    -0.241 N 
ATOM      8  C   UNL d   1      54.567  32.734  53.673  0.00  0.00     0.267 A 
ATOM      9  C   UNL d   1      54.877  33.210  54.268  0.00  0.00     0.061 A 
ATOM     10  O   UNL d   1      54.801  32.730  52.881  0.00  0.00    -0.267 OA
ATOM     11  C   UNL d   1      55.465  33.781  54.257  0.00  0.00     0.005 A 
ATOM     12  C   UNL d   1      54.488  33.035  54.969  0.00  0.00     0.061 A 
ATOM     13  C   UNL d   1      55.667  34.180  54.952  0.00  0.00     0.000 A 
ATOM     14  C   UNL d   1      55.269  33.998  55.657  0.00  0.00     0.000 A 
ATOM     15  C   UNL d   1      54.682  33.427  55.662  0.00  0.00     0.005 A 
ATOM     16  C   UNL d   1      53.931  32.446  54.812  0.00  0.00     0.267 A 
ATOM     17  O   UNL d   1      53.415  32.103  55.360  0.00  0.00    -0.267 OA
ENDBRANCH   1   7
BRANCH   2  18
ATOM     18  S   UNL d   1      52.566  32.717  53.276  0.00  0.00     0.160 S 
ATOM     19  O   UNL d   1      52.579  33.456  53.419  0.00  0.00    -0.244 OA
BRANCH  18  20
ATOM     20  C   UNL d   1      51.830  32.928  52.971  0.00  0.00     0.477 C 
ATOM     21  F   UNL d   1      51.048  32.878  53.338  0.00  0.00    -0.158 F 
ATOM     22  F   UNL d   1      51.634  33.259  52.195  0.00  0.00    -0.158 F 
ATOM     23  F   UNL d   1      51.160  33.120  52.693  0.00  0.00    -0.158 F 
ENDBRANCH  18  20
ENDBRANCH   2  18
TORSDOF 3
ENDMDL
MODEL 2
REMARK VINA RESULT:      -9.7      1.882      3.174
REMARK  3 active torsions:
REMARK  status: ('A' for Active; 'I' for Inactive)
REMARK    1  A    between atoms: C_4  and  N_1 
REMARK    2  A    between atoms: S_5  and  C_6 
REMARK    3  A    between atoms: C_9  and  S_5 
ROOT
ATOM      1  C   UNL d   1      52.832  31.833  53.231  0.00  0.00     0.078 A 
ATOM      2  C   UNL d   1      53.390  31.882  53.851  0.00  0.00     0.080 A 
ATOM      3  C   UNL d   1      52.784  31.148  52.776  0.00  0.00     0.018 A 
ATOM      4  C   UNL d   1      53.890  31.241  54.002  0.00  0.00     0.010 A 
ATOM      5  C   UNL d   1      53.283  30.510  52.929  0.00  0.00     0.002 A 
ATOM      6  C   UNL d   1      53.839  30.557  53.545  0.00  0.00     0.001 A 
ENDROOT
BRANCH   1   7
ATOM      7  N   UNL d   1      52.334  32.468  53.077  0.00  0.00    -0.241 N 
ATOM      8  C   UNL d   1      52.518  33.134  52.627  0.00  0.00     0.267 A 
ATOM      9  C   UNL d   1      51.858  33.625  52.620  0.00  0.00     0.061 A 
ATOM     10  O   UNL d   1      53.238  33.281  52.249  0.00  0.00    -0.267 OA
ATOM     11  C   UNL d   1      51.724  34.352  52.266  0.00  0.00     0.005 A 
ATOM     12  C   UNL d   1      51.266  33.269  53.063  0.00  0.00     0.061 A 
ATOM     13  C   UNL d   1      50.993  34.727  52.354  0.00  0.00     0.000 A 
ATOM     14  C   UNL d   1      50.399  34.360  52.803  0.00  0.00     0.000 A 
ATOM     15  C   UNL d   1      50.538  33.634  53.155  0.00  0.00     0.005 A 
ATOM     16  C   UNL d   1      51.556  32.552  53.349  0.00  0.00     0.267 A 
ATOM     17  O   UNL d   1      51.146  32.011  53.821  0.00  0.00    -0.267 OA
ENDBRANCH   1   7
BRANCH   2  18
ATOM     18  S   UNL d   1      53.439  32.568  54.308  0.00  0.00     0.160 S 
ATOM     19  O   UNL d   1      53.278  33.255  54.571  0.00  0.00    -0.244 OA
BRANCH  18  20
ATOM     20  C   UNL d   1      54.021  32.632  54.887  0.00  0.00     0.477 C 
ATOM     21  F   UNL d   1      54.829  32.938  54.824  0.00  0.00    -0.158 F 
ATOM     22  F   UNL d   1      53.987  32.411  55.724  0.00  0.00    -0.158 F 
ATOM     23  F   UNL d   1      54.552  32.691  55.416  0.00  0.00    -0.158 F 
ENDBRANCH  18  20
ENDBRANCH   2  18
TORSDOF 3
ENDMDL
MODEL 3
REMARK VINA RESULT:      -9.6      1.805      3.630
REMARK  3 active torsions:
REMARK  status: ('A' for Active; 'I' for Inactive)
REMARK    1  A    between atoms: C_4  and  N_1 
REMARK    2  A    between atoms: S_5  and  C_6 
REMARK    3  A    between atoms: C_9  and  S_5 
ROOT
ATOM      1  C   UNL d   1      53.265  33.561  54.092  0.00  0.00     0.078 A 
ATOM      2  C   UNL d   1      53.640  32.816  54.058  0.00  0.00     0.080 A 
ATOM      3  C   UNL d   1      53.539  34.135  54.615  0.00  0.00     0.018 A 
ATOM      4  C   UNL d   1      54.286  32.661  54.552  0.00  0.00     0.010 A 
ATOM      5  C   UNL d   1      54.182  33.979  55.106  0.00  0.00     0.002 A 
ATOM      6  C   UNL d   1      54.558  33.238  55.074  0.00  0.00     0.001 A 
ENDROOT
BRANCH   1   7
ATOM      7  N   UNL d   1      52.623  33.719  53.603  0.00  0.00    -0.241 N 
ATOM      8  C   UNL d   1      51.829  33.584  53.784  0.00  0.00     0.267 A 
ATOM      9  C   UNL d   1      51.380  33.823  53.137  0.00  0.00     0.061 A 
ATOM     10  O   UNL d   1      51.538  33.267  54.488  0.00  0.00    -0.267 OA
ATOM     11  C   UNL d   1      50.571  33.818  53.005  0.00  0.00     0.005 A 
ATOM     12  C   UNL d   1      51.888  34.104  52.557  0.00  0.00     0.061 A 
ATOM     13  C   UNL d   1      50.266  34.097  52.289  0.00  0.00     0.000 A 
ATOM     14  C   UNL d   1      50.787  34.379  51.708  0.00  0.00     0.000 A 
ATOM     15  C   UNL d   1      51.595  34.381  51.845  0.00  0.00     0.005 A 
ATOM     16  C   UNL d   1      52.660  34.041  52.842  0.00  0.00     0.267 A 
ATOM     17  O   UNL d   1      53.349  34.261  52.441  0.00  0.00    -0.267 OA
ENDBRANCH   1   7
BRANCH   2  18
ATOM     18  S   UNL d   1      53.366  32.239  53.535  0.00  0.00     0.160 S 
ATOM     19  O   UNL d   1      52.980  31.923  52.971  0.00  0.00    -0.244 OA
BRANCH  18  20
ATOM     20  C   UNL d   1      53.649  31.467  53.592  0.00  0.00     0.477 C 
ATOM     21  F   UNL d   1      53.340  30.802  54.053  0.00  0.00    -0.158 F 
ATOM     22  F   UNL d   1      54.334  31.106  53.207  0.00  0.00    -0.158 F 
ATOM     23  F   UNL d   1      53.906  30.764  53.644  0.00  0.00    -0.158 F 
ENDBRANCH  18  20
ENDBRANCH   2  18
TORSDOF 3
ENDMDL
MODEL 4
REMARK VINA RESULT:      -9.3      2.057      3.512
REMARK  3 active torsions:
REMARK  status: ('A' for Active; 'I' for Inactive)
REMARK    1  A    between atoms: C_4  and  N_1 
REMARK    2  A    between atoms: S_5  and  C_6 
REMARK    3  A    between atoms: C_9  and  S_5 
ROOT
ATOM      1  C   UNL d   1      53.139  33.521  53.572  0.00  0.00     0.078 A 
ATOM      2  C   UNL d   1      53.504  33.808  54.266  0.00  0.00     0.080 A 
ATOM      3  C   UNL d   1      52.816  34.050  53.029  0.00  0.00     0.018 A 
ATOM      4  C   UNL d   1      53.539  34.624  54.401  0.00  0.00     0.010 A 
ATOM      5  C   UNL d   1      52.852  34.862  53.166  0.00  0.00     0.002 A 
ATOM      6  C   UNL d   1      53.215  35.151  53.856  0.00  0.00     0.001 A 
ENDROOT
BRANCH   1   7
ATOM      7  N   UNL d   1      53.102  32.712  53.434  0.00  0.00    -0.241 N 
ATOM      8  C   UNL d   1      53.708  32.242  53.130  0.00  0.00     0.267 A 
ATOM      9  C   UNL d   1      53.430  31.469  53.084  0.00  0.00     0.061 A 
ATOM     10  O   UNL d   1      54.460  32.502  52.909  0.00  0.00    -0.267 OA
ATOM     11  C   UNL d   1      53.786  30.777  52.828  0.00  0.00     0.005 A 
ATOM     12  C   UNL d   1      52.656  31.456  53.358  0.00  0.00     0.061 A 
ATOM     13  C   UNL d   1      53.366  30.065  52.844  0.00  0.00     0.000 A 
ATOM     14  C   UNL d   1      52.584  30.060  53.123  0.00  0.00     0.000 A 
ATOM     15  C   UNL d   1      52.234  30.754  53.378  0.00  0.00     0.005 A 
ATOM     16  C   UNL d   1      52.449  32.224  53.576  0.00  0.00     0.267 A 
ATOM     17  O   UNL d   1      51.720  32.466  53.882  0.00  0.00    -0.267 OA
ENDBRANCH   1   7
BRANCH   2  18
ATOM     18  S   UNL d   1      53.828  33.280  54.810  0.00  0.00     0.160 S 
ATOM     19  O   UNL d   1      53.942  32.642  55.195  0.00  0.00    -0.244 OA
BRANCH  18  20
ATOM     20  C   UNL d   1      54.438  33.527  55.307  0.00  0.00     0.477 C 
ATOM     21  F   UNL d   1      55.294  33.500  55.182  0.00  0.00    -0.158 F 
ATOM     22  F   UNL d   1      54.391  33.883  56.095  0.00  0.00    -0.158 F 
ATOM     23  F   UNL d   1      54.993  33.752  55.760  0.00  0.00    -0.158 F 
ENDBRANCH  18  20
ENDBRANCH   2  18
TORSDOF 3
ENDMDL
MODEL 5
REMARK VINA RESULT:      -8.9      1.470      2.840
REMARK  3 active torsions:
REMARK  status: ('A' for Active; 'I' for Inactive)
REMARK    1  A    between atoms: C_4  and  N_1 
REMARK    2  A    between atoms: S_5  and  C_6 
REMARK    3  A    between atoms: C_9  and  S_5 
ROOT
ATOM      1  C   UNL d   1      53.011  33.323  53.482  0.00  0.00     0.078 A 
ATOM      2  C   UNL d   1      52.258  33.682  53.456  0.00  0.00     0.080 A 
ATOM      3  C   UNL d   1      53.689  33.791  53.491  0.00  0.00     0.018 A 
ATOM      4  C   UNL d   1      52.199  34.507  53.439  0.00  0.00     0.010 A 
ATOM      5  C   UNL d   1      53.628  34.613  53.474  0.00  0.00     0.002 A 
ATOM      6  C   UNL d   1      52.880  34.973  53.448  0.00  0.00     0.001 A 
ENDROOT
BRANCH   1   7
ATOM      7  N   UNL d   1      53.073  32.503  53.499  0.00  0.00    -0.241 N 
ATOM      8  C   UNL d   1      52.980  31.995  52.856  0.00  0.00     0.267 A 
ATOM      9  C   UNL d   1      53.090  31.225  53.126  0.00  0.00     0.061 A 
ATOM     10  O   UNL d   1      52.807  32.219  52.081  0.00  0.00    -0.267 OA
ATOM     11  C   UNL d   1      53.063  30.504  52.737  0.00  0.00     0.005 A 
ATOM     12  C   UNL d   1      53.251  31.252  53.930  0.00  0.00     0.061 A 
ATOM     13  C   UNL d   1      53.198  29.804  53.155  0.00  0.00     0.000 A 
ATOM     14  C   UNL d   1      53.360  29.839  53.968  0.00  0.00     0.000 A 
ATOM     15  C   UNL d   1      53.386  30.563  54.351  0.00  0.00     0.005 A 
ATOM     16  C   UNL d   1      53.242  32.043  54.165  0.00  0.00     0.267 A 
ATOM     17  O   UNL d   1      53.376  32.327  54.930  0.00  0.00    -0.267 OA
ENDBRANCH   1   7
BRANCH   2  18
ATOM     18  S   UNL d   1      51.578  33.215  53.447  0.00  0.00     0.160 S 
ATOM     19  O   UNL d   1      51.141  32.601  53.471  0.00  0.00    -0.244 OA
BRANCH  18  20
ATOM     20  C   UNL d   1      50.839  33.568  53.354  0.00  0.00     0.477 C 
ATOM     21  F   UNL d   1      50.437  33.819  52.629  0.00  0.00    -0.158 F 
ATOM     22  F   UNL d   1      50.259  33.788  53.957  0.00  0.00    -0.158 F 
ATOM     23  F   UNL d   1      50.166  33.891  53.269  0.00  0.00    -0.158 F 
ENDBRANCH  18  20
ENDBRANCH   2  18
TORSDOF 3
ENDMDL
MODEL 6
REMARK VINA RESULT:      -8.7      1.284      1.980
REMARK  3 active torsions:
REMARK  status: ('A' for Active; 'I' for Inactive)
REMARK    1  A    between atoms: C_4  and  N_1 
REMARK    2  A    between atoms: S_5  and  C_6 
REMARK    3  A    between atoms: C_9  and  S_5 
ROOT
ATOM      1  C   UNL d   1      52.610  33.572  53.250  0.00  0.00     0.078 A 
ATOM      2  C   UNL d   1      52.294  32.832  53.031  0.00  0.00     0.080 A 
ATOM      3  C   UNL d   1      52.261  34.266  52.974  0.00  0.00     0.018 A 
ATOM      4  C   UNL d   1      51.631  32.801  52.537  0.00  0.00     0.010 A 
ATOM      5  C   UNL d   1      51.601  34.232  52.482  0.00  0.00     0.002 A 
ATOM      6  C   UNL d   1      51.284  33.496  52.262  0.00  0.00     0.001 A 
ENDROOT
BRANCH   1   7
ATOM      7  N   UNL d   1      53.269  33.608  53.740  0.00  0.00    -0.241 N 
ATOM      8  C   UNL d   1      54.057  33.561  53.501  0.00  0.00     0.267 A 
ATOM      9  C   UNL d   1      54.528  33.620  54.173  0.00  0.00     0.061 A 
ATOM     10  O   UNL d   1      54.325  33.470  52.725  0.00  0.00    -0.267 OA
ATOM     11  C   UNL d   1      55.342  33.609  54.269  0.00  0.00     0.005 A 
ATOM     12  C   UNL d   1      54.039  33.704  54.827  0.00  0.00     0.061 A 
ATOM     13  C   UNL d   1      55.671  33.681  55.024  0.00  0.00     0.000 A 
ATOM     14  C   UNL d   1      55.169  33.765  55.680  0.00  0.00     0.000 A 
ATOM     15  C   UNL d   1      54.357  33.776  55.578  0.00  0.00     0.005 A 
ATOM     16  C   UNL d   1      53.257  33.696  54.563  0.00  0.00     0.267 A 
ATOM     17  O   UNL d   1      52.581  33.765  55.034  0.00  0.00    -0.267 OA
ENDBRANCH   1   7
BRANCH   2  18
ATOM     18  S   UNL d   1      52.642  32.136  53.306  0.00  0.00     0.160 S 
ATOM     19  O   UNL d   1      53.084  31.679  53.711  0.00  0.00    -0.244 OA
BRANCH  18  20
ATOM     20  C   UNL d   1      52.423  31.412  52.981  0.00  0.00     0.477 C 
ATOM     21  F   UNL d   1      52.761  30.986  52.307  0.00  0.00    -0.158 F 
ATOM     22  F   UNL d   1      51.791  30.872  53.224  0.00  0.00    -0.158 F 
ATOM     23  F   UNL d   1      52.223  30.751  52.685  0.00  0.00    -0.158 F 
ENDBRANCH  18  20
ENDBRANCH   2  18
TORSDOF 3
ENDMDL
