MODEL 1
REMARK VINA RESULT:      -4.2      0.000      0.000
REMARK  4 active torsions:
REMARK  status: ('A' for Active; 'I' for Inactive)
REMARK    1  A    between atoms: N_11  and  C_4 
REMARK    2  A    between atoms: C_22  and  N_15 
REMARK    3  A    between atoms: O_29  and  C_17 
REMARK    4  A    between atoms: C_21  and  C_22 
ROOT
ATOM      1  N   UNL d   1      33.164  21.308 -21.631  0.00  0.00    -0.195 N 
ATOM      2  C   UNL d   1      33.152  22.105 -21.516  0.00  0.00     0.168 A 
ATOM      3  C   UNL d   1      33.115  22.408 -20.783  0.00  0.00     0.073 A 
ATOM      4  C   UNL d   1      33.202  21.023 -22.371  0.00  0.00     0.153 A 
ATOM      5  N   UNL d   1      33.103  21.111 -20.280  0.00  0.00    -0.143 NA
ATOM      6  C   UNL d   1      33.090  21.909 -20.165  0.00  0.00     0.185 A 
ATOM      7  N   UNL d   1      33.178  22.597 -22.144  0.00  0.00    -0.227 NA
ATOM      8  C   UNL d   1      33.103  23.197 -20.669  0.00  0.00     0.007 A 
ATOM      9  N   UNL d   1      33.053  22.200 -19.416  0.00  0.00    -0.225 NA
ATOM     10  C   UNL d   1      33.227  21.506 -22.995  0.00  0.00     0.057 A 
ATOM     11  C   UNL d   1      33.066  23.499 -19.935  0.00  0.00     0.019 A 
ATOM     12  C   UNL d   1      33.215  22.304 -22.879  0.00  0.00     0.086 A 
ATOM     13  C   UNL d   1      33.041  22.998 -19.301  0.00  0.00     0.083 A 
ATOM     14  C   UNL d   1      33.129  23.690 -21.299  0.00  0.00     0.000 C 
ATOM     15  C   UNL d   1      33.241  22.812 -23.535  0.00  0.00     0.021 C 
ATOM     16  C   UNL d   1      33.004  23.293 -18.568  0.00  0.00     0.021 C 
ENDROOT
BRANCH   4  17
ATOM     17  N   UNL d   1      33.214  20.200 -22.481  0.00  0.00    -0.286 N 
ATOM     18  C   UNL d   1      33.237  19.492 -22.045  0.00  0.00     0.101 A 
ATOM     19  C   UNL d   1      33.241  18.761 -22.428  0.00  0.00     0.100 A 
ATOM     20  N   UNL d   1      33.221  18.740 -23.259  0.00  0.00    -0.300 N 
ATOM     21  C   UNL d   1      33.198  19.431 -23.696  0.00  0.00     0.100 A 
ATOM     22  C   UNL d   1      33.194  20.169 -23.313  0.00  0.00     0.101 A 
BRANCH  20  23
ATOM     23  C   UNL d   1      33.225  18.018 -23.641  0.00  0.00     0.080 C 
BRANCH  23  24
ATOM     24  C   UNL d   1      32.507  17.624 -23.822  0.00  0.00     0.020 A 
ATOM     25  C   UNL d   1      32.248  16.982 -23.372  0.00  0.00     0.033 A 
ATOM     26  C   UNL d   1      31.533  16.591 -23.555  0.00  0.00     0.162 A 
ATOM     27  F   UNL d   1      31.277  15.949 -23.102  0.00  0.00    -0.202 F 
ATOM     28  C   UNL d   1      31.079  16.857 -24.202  0.00  0.00     0.121 A 
ATOM     29  C   UNL d   1      31.331  17.500 -24.661  0.00  0.00     0.027 A 
ATOM     30  C   UNL d   1      32.042  17.888 -24.477  0.00  0.00     0.004 A 
BRANCH  28  31
ATOM     31  O   UNL d   1      30.370  16.472 -24.386  0.00  0.00    -0.326 OA
ATOM     32  C   UNL d   1      29.860  16.780 -24.957  0.00  0.00     0.181 C 
ENDBRANCH  28  31
ENDBRANCH  23  24
ENDBRANCH  20  23
ENDBRANCH   4  17
TORSDOF 4
ENDMDL
MODEL 2
REMARK VINA RESULT:      -2.4      2.294      6.132
REMARK  4 active torsions:
REMARK  status: ('A' for Active; 'I' for Inactive)
REMARK    1  A    between atoms: N_11  and  C_4 
REMARK    2  A    between atoms: C_22  and  N_15 
REMARK    3  A    between atoms: O_29  and  C_17 
REMARK    4  A    between atoms: C_21  and  C_22 
ROOT
ATOM      1  N   UNL d   1      31.511  17.613 -24.029  0.00  0.00    -0.195 N 
ATOM      2  C   UNL d   1      31.252  16.938 -24.386  0.00  0.00     0.168 A 
ATOM      3  C   UNL d   1      30.475  16.802 -24.479  0.00  0.00     0.073 A 
ATOM      4  C   UNL d   1      32.291  17.732 -23.945  0.00  0.00     0.153 A 
ATOM      5  N   UNL d   1      30.217  18.018 -23.854  0.00  0.00    -0.143 NA
ATOM      6  C   UNL d   1      29.958  17.344 -24.212  0.00  0.00     0.185 A 
ATOM      7  N   UNL d   1      31.779  16.402 -24.651  0.00  0.00    -0.227 NA
ATOM      8  C   UNL d   1      30.218  16.135 -24.832  0.00  0.00     0.007 A 
ATOM      9  N   UNL d   1      29.168  17.220 -24.298  0.00  0.00    -0.225 NA
ATOM     10  C   UNL d   1      32.816  17.204 -24.205  0.00  0.00     0.057 A 
ATOM     11  C   UNL d   1      29.441  15.999 -24.924  0.00  0.00     0.019 A 
ATOM     12  C   UNL d   1      32.557  16.530 -24.563  0.00  0.00     0.086 A 
ATOM     13  C   UNL d   1      28.908  16.545 -24.655  0.00  0.00     0.083 A 
ATOM     14  C   UNL d   1      30.748  15.597 -25.097  0.00  0.00     0.000 C 
ATOM     15  C   UNL d   1      33.109  15.974 -24.837  0.00  0.00     0.021 C 
ATOM     16  C   UNL d   1      28.133  16.416 -24.744  0.00  0.00     0.021 C 
ENDROOT
BRANCH   4  17
ATOM     17  N   UNL d   1      32.550  18.430 -23.576  0.00  0.00    -0.286 N 
ATOM     18  C   UNL d   1      32.769  19.212 -23.757  0.00  0.00     0.101 A 
ATOM     19  C   UNL d   1      33.001  19.733 -23.161  0.00  0.00     0.100 A 
ATOM     20  N   UNL d   1      33.012  19.467 -22.373  0.00  0.00    -0.300 N 
ATOM     21  C   UNL d   1      32.798  18.701 -22.185  0.00  0.00     0.100 A 
ATOM     22  C   UNL d   1      32.564  18.172 -22.785  0.00  0.00     0.101 A 
BRANCH  20  23
ATOM     23  C   UNL d   1      33.241  19.981 -21.781  0.00  0.00     0.080 C 
BRANCH  23  24
ATOM     24  C   UNL d   1      32.845  20.711 -21.668  0.00  0.00     0.020 A 
ATOM     25  C   UNL d   1      32.339  20.827 -21.027  0.00  0.00     0.033 A 
ATOM     26  C   UNL d   1      31.945  21.555 -20.917  0.00  0.00     0.162 A 
ATOM     27  F   UNL d   1      31.439  21.667 -20.273  0.00  0.00    -0.202 F 
ATOM     28  C   UNL d   1      32.068  22.170 -21.466  0.00  0.00     0.121 A 
ATOM     29  C   UNL d   1      32.575  22.064 -22.115  0.00  0.00     0.027 A 
ATOM     30  C   UNL d   1      32.965  21.339 -22.222  0.00  0.00     0.004 A 
BRANCH  28  31
ATOM     31  O   UNL d   1      31.680  22.894 -21.361  0.00  0.00    -0.326 OA
ATOM     32  C   UNL d   1      32.049  23.603 -21.565  0.00  0.00     0.181 C 
ENDBRANCH  28  31
ENDBRANCH  23  24
ENDBRANCH  20  23
ENDBRANCH   4  17
TORSDOF 4
ENDMDL
MODEL 3
REMARK VINA RESULT:      -2.0      1.238      2.410
REMARK  4 active torsions:
REMARK  status: ('A' for Active; 'I' for Inactive)
REMARK    1  A    between atoms: N_11  and  C_4 
REMARK    2  A    between atoms: C_22  and  N_15 
REMARK    3  A    between atoms: O_29  and  C_17 
REMARK    4  A    between atoms: C_21  and  C_22 
ROOT
ATOM      1  N   UNL d   1      33.114  20.080 -22.770  0.00  0.00    -0.195 N 
ATOM      2  C   UNL d   1      33.156  20.686 -22.240  0.00  0.00     0.168 A 
ATOM      3  C   UNL d   1      33.157  21.441 -22.486  0.00  0.00     0.073 A 
ATOM      4  C   UNL d   1      33.114  19.332 -22.506  0.00  0.00     0.153 A 
ATOM      5  N   UNL d   1      33.073  20.982 -23.797  0.00  0.00    -0.143 NA
ATOM      6  C   UNL d   1      33.115  21.588 -23.266  0.00  0.00     0.185 A 
ATOM      7  N   UNL d   1      33.198  20.527 -21.460  0.00  0.00    -0.227 NA
ATOM      8  C   UNL d   1      33.199  22.039 -21.962  0.00  0.00     0.007 A 
ATOM      9  N   UNL d   1      33.115  22.347 -23.531  0.00  0.00    -0.225 NA
ATOM     10  C   UNL d   1      33.155  19.171 -21.735  0.00  0.00     0.057 A 
ATOM     11  C   UNL d   1      33.200  22.795 -22.209  0.00  0.00     0.019 A 
ATOM     12  C   UNL d   1      33.198  19.776 -21.205  0.00  0.00     0.086 A 
ATOM     13  C   UNL d   1      33.158  22.953 -23.001  0.00  0.00     0.083 A 
ATOM     14  C   UNL d   1      33.241  21.879 -21.179  0.00  0.00     0.000 C 
ATOM     15  C   UNL d   1      33.241  19.607 -20.393  0.00  0.00     0.021 C 
ATOM     16  C   UNL d   1      33.158  23.702 -23.253  0.00  0.00     0.021 C 
ENDROOT
BRANCH   4  17
ATOM     17  N   UNL d   1      33.070  18.714 -23.060  0.00  0.00    -0.286 N 
ATOM     18  C   UNL d   1      33.237  18.551 -23.858  0.00  0.00     0.101 A 
ATOM     19  C   UNL d   1      33.088  17.804 -24.176  0.00  0.00     0.100 A 
ATOM     20  N   UNL d   1      32.765  17.213 -23.687  0.00  0.00    -0.300 N 
ATOM     21  C   UNL d   1      32.597  17.365 -22.901  0.00  0.00     0.100 A 
ATOM     22  C   UNL d   1      32.747  18.117 -22.577  0.00  0.00     0.101 A 
BRANCH  20  23
ATOM     23  C   UNL d   1      32.616  16.474 -23.999  0.00  0.00     0.080 C 
BRANCH  23  24
ATOM     24  C   UNL d   1      31.831  16.219 -24.146  0.00  0.00     0.020 A 
ATOM     25  C   UNL d   1      31.345  15.962 -23.531  0.00  0.00     0.033 A 
ATOM     26  C   UNL d   1      30.563  15.710 -23.680  0.00  0.00     0.162 A 
ATOM     27  F   UNL d   1      30.078  15.453 -23.062  0.00  0.00    -0.202 F 
ATOM     28  C   UNL d   1      30.276  15.719 -24.463  0.00  0.00     0.121 A 
ATOM     29  C   UNL d   1      30.756  15.976 -25.088  0.00  0.00     0.027 A 
ATOM     30  C   UNL d   1      31.533  16.227 -24.937  0.00  0.00     0.004 A 
BRANCH  28  31
ATOM     31  O   UNL d   1      29.501  15.469 -24.614  0.00  0.00    -0.326 OA
ATOM     32  C   UNL d   1      28.928  16.007 -24.866  0.00  0.00     0.181 C 
ENDBRANCH  28  31
ENDBRANCH  23  24
ENDBRANCH  20  23
ENDBRANCH   4  17
TORSDOF 4
ENDMDL
