MODEL 1
REMARK VINA RESULT:       4.5      0.000      0.000
REMARK  9 active torsions:
REMARK  status: ('A' for Active; 'I' for Inactive)
REMARK    1  A    between atoms: N_3  and  C_1 
REMARK       I    between atoms: C_7  and  N_3 
REMARK    2  A    between atoms: S_10  and  C_4 
REMARK    3  A    between atoms: C_9  and  C_7 
REMARK    4  A    between atoms: C_8  and  C_17 
REMARK       I    between atoms: N_12  and  C_8 
REMARK    5  A    between atoms: C_17  and  S_10 
REMARK    6  A    between atoms: C_18  and  N_12 
REMARK    7  A    between atoms: C_22  and  C_18 
REMARK    8  A    between atoms: O_23  and  C_19 
REMARK    9  A    between atoms: C_25  and  O_23 
ROOT
ATOM      1  C   UNL d   1      58.891  -1.477  28.925  0.00  0.00     0.219 A 
ATOM      2  S   UNL d   1      58.958  -1.060  29.632  0.00  0.00    -0.019 SA
ATOM      3  C   UNL d   1      58.434  -0.429  29.617  0.00  0.00     0.165 A 
ATOM      4  N   UNL d   1      58.315  -1.097  28.468  0.00  0.00    -0.120 NA
ATOM      5  N   UNL d   1      58.033  -0.451  28.894  0.00  0.00    -0.133 NA
ENDROOT
BRANCH   1   6
ATOM      6  N   UNL d   1      59.322  -2.153  28.715  0.00  0.00    -0.181 NA
ATOM      7  C   UNL d   1      59.428  -2.756  29.273  0.00  0.00     0.281 C 
ATOM      8  O   UNL d   1      59.108  -2.684  30.027  0.00  0.00    -0.265 OA
BRANCH   7   9
ATOM      9  C   UNL d   1      59.858  -3.432  29.066  0.00  0.00     0.058 A 
ATOM     10  C   UNL d   1      60.612  -3.352  28.747  0.00  0.00     0.007 A 
ATOM     11  C   UNL d   1      61.035  -4.030  28.544  0.00  0.00     0.025 A 
ATOM     12  C   UNL d   1      60.710  -4.770  28.657  0.00  0.00     0.100 A 
ATOM     13  C   UNL d   1      59.950  -4.849  28.978  0.00  0.00     0.025 A 
ATOM     14  C   UNL d   1      59.527  -4.170  29.182  0.00  0.00     0.007 A 
BRANCH  12  15
ATOM     15  O   UNL d   1      61.129  -5.451  28.455  0.00  0.00    -0.305 OA
BRANCH  15  16
ATOM     16  C   UNL d   1      61.050  -6.140  28.887  0.00  0.00     0.123 C 
ATOM     17  C   UNL d   1      61.134  -6.889  28.516  0.00  0.00     0.029 C 
ENDBRANCH  15  16
ENDBRANCH  12  15
ENDBRANCH   7   9
ENDBRANCH   1   6
BRANCH   3  18
ATOM     18  S   UNL d   1      58.328   0.125  30.218  0.00  0.00    -0.054 SA
BRANCH  18  19
ATOM     19  C   UNL d   1      57.597   0.168  30.608  0.00  0.00     0.100 C 
BRANCH  19  20
ATOM     20  C   UNL d   1      57.572   0.265  31.425  0.00  0.00     0.286 C 
ATOM     21  N   UNL d   1      56.858   0.189  31.823  0.00  0.00    -0.204 NA
ATOM     22  O   UNL d   1      58.263   0.438  31.851  0.00  0.00    -0.265 OA
BRANCH  21  23
ATOM     23  C   UNL d   1      56.832   0.286  32.647  0.00  0.00     0.127 C 
BRANCH  23  24
ATOM     24  C   UNL d   1      56.140   0.115  33.057  0.00  0.00     0.119 A 
ATOM     25  O   UNL d   1      55.975  -0.574  33.485  0.00  0.00    -0.304 OA
ATOM     26  C   UNL d   1      55.210  -0.505  33.808  0.00  0.00     0.123 A 
ATOM     27  C   UNL d   1      54.901   0.220  33.584  0.00  0.00     0.029 A 
ATOM     28  C   UNL d   1      55.472   0.599  33.125  0.00  0.00     0.028 A 
ENDBRANCH  23  24
ENDBRANCH  21  23
ENDBRANCH  19  20
ENDBRANCH  18  19
ENDBRANCH   3  18
TORSDOF 9
ENDMDL
