MODEL 1
REMARK VINA RESULT:      78.6      0.000      0.000
REMARK  4 active torsions:
REMARK  status: ('A' for Active; 'I' for Inactive)
REMARK    1  A    between atoms: C_8  and  C_1 
REMARK    2  A    between atoms: C_4  and  C_2 
REMARK    3  A    between atoms: O_16  and  C_8 
REMARK    4  A    between atoms: C_21  and  O_16 
ROOT
ATOM      1  C   UNL d   1      60.874  48.129  50.666  0.00  0.00     0.099 A 
ATOM      2  C   UNL d   1      60.639  48.920  50.683  0.00  0.00     0.096 A 
ATOM      3  C   UNL d   1      61.386  47.862  50.058  0.00  0.00     0.093 A 
ATOM      4  C   UNL d   1      61.415  49.177  49.505  0.00  0.00     0.369 A 
ATOM      5  N   UNL d   1      61.654  48.391  49.479  0.00  0.00    -0.191 NA
ATOM      6  N   UNL d   1      60.910  49.441  50.105  0.00  0.00    -0.191 NA
ATOM      7  O   UNL d   1      61.683  49.706  48.926  0.00  0.00    -0.242 OA
ATOM      8  C   UNL d   1      61.625  47.079  50.031  0.00  0.00     0.021 C 
ENDROOT
BRANCH   2   9
ATOM      9  C   UNL d   1      60.140  49.180  51.276  0.00  0.00     0.057 A 
ATOM     10  C   UNL d   1      59.340  49.309  51.123  0.00  0.00     0.005 A 
ATOM     11  C   UNL d   1      58.835  49.573  51.722  0.00  0.00     0.000 A 
ATOM     12  C   UNL d   1      59.047  49.172  50.358  0.00  0.00     0.000 A 
ATOM     13  C   UNL d   1      58.034  49.700  51.560  0.00  0.00     0.000 A 
ATOM     14  C   UNL d   1      59.127  49.708  52.478  0.00  0.00     0.003 A 
ATOM     15  C   UNL d   1      57.740  49.565  50.803  0.00  0.00     0.000 A 
ATOM     16  C   UNL d   1      58.245  49.302  50.204  0.00  0.00     0.000 A 
ATOM     17  C   UNL d   1      59.928  49.580  52.640  0.00  0.00     0.042 A 
ATOM     18  C   UNL d   1      60.453  49.307  52.017  0.00  0.00     0.197 A 
ATOM     19  O   UNL d   1      60.666  49.475  52.836  0.00  0.00    -0.286 OA
ENDBRANCH   2   9
BRANCH   1  20
ATOM     20  C   UNL d   1      60.601  47.613  51.246  0.00  0.00     0.303 C 
ATOM     21  O   UNL d   1      60.751  47.767  52.037  0.00  0.00    -0.259 OA
BRANCH  20  22
ATOM     22  O   UNL d   1      60.177  46.943  51.020  0.00  0.00    -0.271 OA
BRANCH  22  23
ATOM     23  C   UNL d   1      60.529  46.206  51.099  0.00  0.00     0.126 C 
ATOM     24  C   UNL d   1      60.198  45.640  51.592  0.00  0.00     0.029 C 
ENDBRANCH  22  23
ENDBRANCH  20  22
ENDBRANCH   1  20
TORSDOF 4
ENDMDL
