MODEL 1
REMARK VINA RESULT:      -2.9      0.000      0.000
REMARK  5 active torsions:
REMARK  status: ('A' for Active; 'I' for Inactive)
REMARK    1  A    between atoms: N_2  and  S_1 
REMARK    2  A    between atoms: C_4  and  S_1 
REMARK    3  A    between atoms: C_3  and  N_2 
REMARK    4  A    between atoms: N_7  and  C_3 
REMARK    5  A    between atoms: C_12  and  N_7 
ROOT
ATOM      1  S   UNL d   1      33.115  20.345 -21.905  0.00  0.00     0.287 S 
ATOM      2  O   UNL d   1      33.240  20.860 -22.542  0.00  0.00    -0.198 OA
ATOM      3  O   UNL d   1      32.986  19.842 -21.255  0.00  0.00    -0.198 OA
ENDROOT
BRANCH   1   4
ATOM      4  N   UNL d   1      33.241  19.692 -22.396  0.00  0.00    -0.128 NA
BRANCH   4   5
ATOM      5  C   UNL d   1      32.989  19.229 -23.033  0.00  0.00     0.232 C 
ATOM      6  S   UNL d   1      33.216  19.421 -23.800  0.00  0.00    -0.036 SA
BRANCH   5   7
ATOM      7  N   UNL d   1      32.510  18.576 -22.892  0.00  0.00    -0.217 NA
BRANCH   7   8
ATOM      8  C   UNL d   1      32.516  17.946 -23.422  0.00  0.00     0.084 A 
ATOM      9  C   UNL d   1      32.003  17.951 -24.061  0.00  0.00     0.019 A 
ATOM     10  C   UNL d   1      32.004  17.327 -24.592  0.00  0.00     0.002 A 
ATOM     11  C   UNL d   1      32.521  16.696 -24.482  0.00  0.00     0.000 A 
ATOM     12  C   UNL d   1      33.034  16.702 -23.835  0.00  0.00     0.002 A 
ATOM     13  C   UNL d   1      33.031  17.318 -23.313  0.00  0.00     0.019 A 
ENDBRANCH   7   8
ENDBRANCH   5   7
ENDBRANCH   4   5
ENDBRANCH   1   4
BRANCH   1  14
ATOM     14  C   UNL d   1      32.988  21.005 -21.407  0.00  0.00     0.105 A 
ATOM     15  C   UNL d   1      32.637  21.689 -21.715  0.00  0.00     0.015 A 
ATOM     16  C   UNL d   1      32.511  22.340 -21.228  0.00  0.00     0.030 A 
ATOM     17  C   UNL d   1      32.731  22.325 -20.420  0.00  0.00     0.140 A 
ATOM     18  C   UNL d   1      33.083  21.633 -20.119  0.00  0.00     0.030 A 
ATOM     19  F   UNL d   1      32.602  22.975 -19.944  0.00  0.00    -0.204 F 
ATOM     20  C   UNL d   1      33.211  20.977 -20.608  0.00  0.00     0.015 A 
ENDBRANCH   1  14
TORSDOF 5
ENDMDL
MODEL 2
REMARK VINA RESULT:      -2.8      0.772      1.272
REMARK  5 active torsions:
REMARK  status: ('A' for Active; 'I' for Inactive)
REMARK    1  A    between atoms: N_2  and  S_1 
REMARK    2  A    between atoms: C_4  and  S_1 
REMARK    3  A    between atoms: C_3  and  N_2 
REMARK    4  A    between atoms: N_7  and  C_3 
REMARK    5  A    between atoms: C_12  and  N_7 
ROOT
ATOM      1  S   UNL d   1      33.146  19.892 -22.392  0.00  0.00     0.287 S 
ATOM      2  O   UNL d   1      33.087  19.511 -21.659  0.00  0.00    -0.198 OA
ATOM      3  O   UNL d   1      33.205  20.290 -23.120  0.00  0.00    -0.198 OA
ENDROOT
BRANCH   1   4
ATOM      4  N   UNL d   1      33.205  19.162 -22.777  0.00  0.00    -0.128 NA
BRANCH   4   5
ATOM      5  C   UNL d   1      32.844  18.570 -23.226  0.00  0.00     0.232 C 
ATOM      6  S   UNL d   1      32.703  18.685 -24.029  0.00  0.00    -0.036 SA
BRANCH   5   7
ATOM      7  N   UNL d   1      32.627  17.865 -22.863  0.00  0.00    -0.217 NA
BRANCH   7   8
ATOM      8  C   UNL d   1      32.561  17.179 -23.314  0.00  0.00     0.084 A 
ATOM      9  C   UNL d   1      33.240  16.796 -23.567  0.00  0.00     0.019 A 
ATOM     10  C   UNL d   1      33.181  16.113 -24.016  0.00  0.00     0.002 A 
ATOM     11  C   UNL d   1      32.440  15.814 -24.211  0.00  0.00     0.000 A 
ATOM     12  C   UNL d   1      31.763  16.208 -23.951  0.00  0.00     0.002 A 
ATOM     13  C   UNL d   1      31.823  16.881 -23.509  0.00  0.00     0.019 A 
ENDBRANCH   7   8
ENDBRANCH   5   7
ENDBRANCH   4   5
ENDBRANCH   1   4
BRANCH   1  14
ATOM     14  C   UNL d   1      33.086  20.630 -22.003  0.00  0.00     0.105 A 
ATOM     15  C   UNL d   1      32.873  20.656 -21.205  0.00  0.00     0.015 A 
ATOM     16  C   UNL d   1      32.813  21.381 -20.819  0.00  0.00     0.030 A 
ATOM     17  C   UNL d   1      32.966  22.099 -21.223  0.00  0.00     0.140 A 
ATOM     18  C   UNL d   1      33.180  22.063 -22.027  0.00  0.00     0.030 A 
ATOM     19  F   UNL d   1      32.904  22.813 -20.833  0.00  0.00    -0.204 F 
ATOM     20  C   UNL d   1      33.240  21.334 -22.415  0.00  0.00     0.015 A 
ENDBRANCH   1  14
TORSDOF 5
ENDMDL
MODEL 3
REMARK VINA RESULT:      -2.8      2.141      4.815
REMARK  5 active torsions:
REMARK  status: ('A' for Active; 'I' for Inactive)
REMARK    1  A    between atoms: N_2  and  S_1 
REMARK    2  A    between atoms: C_4  and  S_1 
REMARK    3  A    between atoms: C_3  and  N_2 
REMARK    4  A    between atoms: N_7  and  C_3 
REMARK    5  A    between atoms: C_12  and  N_7 
ROOT
ATOM      1  S   UNL d   1      32.826  18.683 -23.118  0.00  0.00     0.287 S 
ATOM      2  O   UNL d   1      33.036  18.147 -22.523  0.00  0.00    -0.198 OA
ATOM      3  O   UNL d   1      32.610  19.209 -23.725  0.00  0.00    -0.198 OA
ENDROOT
BRANCH   1   4
ATOM      4  N   UNL d   1      33.052  19.318 -22.638  0.00  0.00    -0.128 NA
BRANCH   4   5
ATOM      5  C   UNL d   1      32.903  19.792 -21.978  0.00  0.00     0.232 C 
ATOM      6  S   UNL d   1      33.241  19.608 -21.250  0.00  0.00    -0.036 SA
BRANCH   5   7
ATOM      7  N   UNL d   1      32.415  20.449 -22.055  0.00  0.00    -0.217 NA
BRANCH   7   8
ATOM      8  C   UNL d   1      32.560  21.119 -21.600  0.00  0.00     0.084 A 
ATOM      9  C   UNL d   1      33.071  21.694 -21.880  0.00  0.00     0.019 A 
ATOM     10  C   UNL d   1      33.220  22.364 -21.432  0.00  0.00     0.002 A 
ATOM     11  C   UNL d   1      32.854  22.457 -20.700  0.00  0.00     0.000 A 
ATOM     12  C   UNL d   1      32.341  21.870 -20.428  0.00  0.00     0.002 A 
ATOM     13  C   UNL d   1      32.196  21.211 -20.871  0.00  0.00     0.019 A 
ENDBRANCH   7   8
ENDBRANCH   5   7
ENDBRANCH   4   5
ENDBRANCH   1   4
BRANCH   1  14
ATOM     14  C   UNL d   1      32.596  18.042 -23.603  0.00  0.00     0.105 A 
ATOM     15  C   UNL d   1      31.798  17.831 -23.652  0.00  0.00     0.015 A 
ATOM     16  C   UNL d   1      31.569  17.200 -24.129  0.00  0.00     0.030 A 
ATOM     17  C   UNL d   1      32.133  16.764 -24.570  0.00  0.00     0.140 A 
ATOM     18  C   UNL d   1      32.934  16.985 -24.514  0.00  0.00     0.030 A 
ATOM     19  F   UNL d   1      31.897  16.141 -25.040  0.00  0.00    -0.204 F 
ATOM     20  C   UNL d   1      33.165  17.619 -24.035  0.00  0.00     0.015 A 
ENDBRANCH   1  14
TORSDOF 5
ENDMDL
MODEL 4
REMARK VINA RESULT:      -2.7      3.623      5.349
REMARK  5 active torsions:
REMARK  status: ('A' for Active; 'I' for Inactive)
REMARK    1  A    between atoms: N_2  and  S_1 
REMARK    2  A    between atoms: C_4  and  S_1 
REMARK    3  A    between atoms: C_3  and  N_2 
REMARK    4  A    between atoms: N_7  and  C_3 
REMARK    5  A    between atoms: C_12  and  N_7 
ROOT
ATOM      1  S   UNL d   1      30.289  16.870 -23.901  0.00  0.00     0.287 S 
ATOM      2  O   UNL d   1      30.627  16.244 -23.477  0.00  0.00    -0.198 OA
ATOM      3  O   UNL d   1      29.935  17.492 -24.325  0.00  0.00    -0.198 OA
ENDROOT
BRANCH   1   4
ATOM      4  N   UNL d   1      31.031  17.227 -23.981  0.00  0.00    -0.128 NA
BRANCH   4   5
ATOM      5  C   UNL d   1      31.790  17.212 -24.309  0.00  0.00     0.232 C 
ATOM      6  S   UNL d   1      31.901  16.964 -25.086  0.00  0.00    -0.036 SA
BRANCH   5   7
ATOM      7  N   UNL d   1      32.431  17.447 -23.853  0.00  0.00    -0.217 NA
BRANCH   7   8
ATOM      8  C   UNL d   1      32.702  18.223 -23.901  0.00  0.00     0.084 A 
ATOM      9  C   UNL d   1      32.858  18.639 -23.213  0.00  0.00     0.019 A 
ATOM     10  C   UNL d   1      33.127  19.412 -23.254  0.00  0.00     0.002 A 
ATOM     11  C   UNL d   1      33.241  19.768 -23.987  0.00  0.00     0.000 A 
ATOM     12  C   UNL d   1      33.081  19.339 -24.674  0.00  0.00     0.002 A 
ATOM     13  C   UNL d   1      32.815  18.577 -24.631  0.00  0.00     0.019 A 
ENDBRANCH   7   8
ENDBRANCH   5   7
ENDBRANCH   4   5
ENDBRANCH   1   4
BRANCH   1  14
ATOM     14  C   UNL d   1      29.539  16.510 -23.820  0.00  0.00     0.105 A 
ATOM     15  C   UNL d   1      28.895  16.805 -24.247  0.00  0.00     0.015 A 
ATOM     16  C   UNL d   1      28.155  16.453 -24.169  0.00  0.00     0.030 A 
ATOM     17  C   UNL d   1      28.040  15.796 -23.662  0.00  0.00     0.140 A 
ATOM     18  C   UNL d   1      28.694  15.506 -23.236  0.00  0.00     0.030 A 
ATOM     19  F   UNL d   1      27.303  15.453 -23.591  0.00  0.00    -0.204 F 
ATOM     20  C   UNL d   1      29.438  15.860 -23.313  0.00  0.00     0.015 A 
ENDBRANCH   1  14
TORSDOF 5
ENDMDL
MODEL 5
REMARK VINA RESULT:      -0.8      3.646      4.410
REMARK  5 active torsions:
REMARK  status: ('A' for Active; 'I' for Inactive)
REMARK    1  A    between atoms: N_2  and  S_1 
REMARK    2  A    between atoms: C_4  and  S_1 
REMARK    3  A    between atoms: C_3  and  N_2 
REMARK    4  A    between atoms: N_7  and  C_3 
REMARK    5  A    between atoms: C_12  and  N_7 
ROOT
ATOM      1  S   UNL d   1      32.570  23.109 -19.671  0.00  0.00     0.287 S 
ATOM      2  O   UNL d   1      31.901  22.625 -19.738  0.00  0.00    -0.198 OA
ATOM      3  O   UNL d   1      33.240  23.594 -19.586  0.00  0.00    -0.198 OA
ENDROOT
BRANCH   1   4
ATOM      4  N   UNL d   1      32.632  23.153 -20.494  0.00  0.00    -0.128 NA
BRANCH   4   5
ATOM      5  C   UNL d   1      32.333  22.947 -21.237  0.00  0.00     0.232 C 
ATOM      6  S   UNL d   1      31.602  23.234 -21.484  0.00  0.00    -0.036 SA
BRANCH   5   7
ATOM      7  N   UNL d   1      32.771  22.452 -21.725  0.00  0.00    -0.217 NA
BRANCH   7   8
ATOM      8  C   UNL d   1      32.874  22.651 -22.518  0.00  0.00     0.084 A 
ATOM      9  C   UNL d   1      33.135  22.082 -23.046  0.00  0.00     0.019 A 
ATOM     10  C   UNL d   1      33.239  22.273 -23.836  0.00  0.00     0.002 A 
ATOM     11  C   UNL d   1      33.082  23.038 -24.097  0.00  0.00     0.000 A 
ATOM     12  C   UNL d   1      32.819  23.603 -23.555  0.00  0.00     0.002 A 
ATOM     13  C   UNL d   1      32.717  23.412 -22.777  0.00  0.00     0.019 A 
ENDBRANCH   7   8
ENDBRANCH   5   7
ENDBRANCH   4   5
ENDBRANCH   1   4
BRANCH   1  14
ATOM     14  C   UNL d   1      32.508  23.065 -18.838  0.00  0.00     0.105 A 
ATOM     15  C   UNL d   1      31.945  23.526 -18.444  0.00  0.00     0.015 A 
ATOM     16  C   UNL d   1      31.881  23.486 -17.625  0.00  0.00     0.030 A 
ATOM     17  C   UNL d   1      32.379  22.982 -17.177  0.00  0.00     0.140 A 
ATOM     18  C   UNL d   1      32.942  22.521 -17.582  0.00  0.00     0.030 A 
ATOM     19  F   UNL d   1      32.309  22.948 -16.365  0.00  0.00    -0.204 F 
ATOM     20  C   UNL d   1      33.007  22.562 -18.406  0.00  0.00     0.015 A 
ENDBRANCH   1  14
TORSDOF 5
ENDMDL
