MODEL 1
REMARK VINA RESULT:      17.8      0.000      0.000
REMARK  6 active torsions:
REMARK  status: ('A' for Active; 'I' for Inactive)
REMARK    1  A    between atoms: C_10  and  N_4 
REMARK    2  A    between atoms: C_12  and  C_9 
REMARK    3  A    between atoms: C_15  and  C_10 
REMARK    4  A    between atoms: C_17  and  N_11 
REMARK    5  A    between atoms: N_13  and  C_12 
REMARK    6  A    between atoms: O_30  and  C_27 
ROOT
ATOM      1  C   UNL d   1     -41.823-121.743 -54.184  0.00  0.00     0.157 A 
ATOM      2  C   UNL d   1     -41.527-122.422 -53.825  0.00  0.00     0.174 A 
ATOM      3  N   UNL d   1     -41.433-123.113 -54.272  0.00  0.00    -0.240 N 
ATOM      4  N   UNL d   1     -41.860-121.145 -53.618  0.00  0.00    -0.283 N 
ATOM      5  N   UNL d   1     -41.929-122.436 -55.423  0.00  0.00    -0.223 N 
ATOM      6  C   UNL d   1     -41.632-123.120 -55.066  0.00  0.00     0.343 A 
ATOM      7  C   UNL d   1     -42.030-121.738 -54.989  0.00  0.00     0.287 A 
ATOM      8  N   UNL d   1     -41.379-122.246 -53.034  0.00  0.00    -0.207 NA
ATOM      9  C   UNL d   1     -41.585-121.457 -52.906  0.00  0.00     0.167 A 
ATOM     10  O   UNL d   1     -41.537-123.812 -55.512  0.00  0.00    -0.245 OA
ATOM     11  O   UNL d   1     -42.323-121.061 -55.343  0.00  0.00    -0.265 OA
ATOM     12  C   UNL d   1     -41.135-123.797 -53.914  0.00  0.00     0.105 C 
ATOM     13  C   UNL d   1     -42.131-122.443 -56.227  0.00  0.00     0.107 C 
ENDROOT
BRANCH   9  14
ATOM     14  C   UNL d   1     -41.525-121.051 -52.188  0.00  0.00     0.118 C 
BRANCH  14  15
ATOM     15  N   UNL d   1     -41.678-121.439 -51.484  0.00  0.00    -0.297 N 
ATOM     16  C   UNL d   1     -42.369-121.283 -51.060  0.00  0.00     0.100 A 
ATOM     17  C   UNL d   1     -42.532-121.670 -50.348  0.00  0.00     0.100 A 
ATOM     18  N   UNL d   1     -41.990-122.227 -50.053  0.00  0.00    -0.301 N 
ATOM     19  C   UNL d   1     -41.294-122.388 -50.474  0.00  0.00     0.100 A 
ATOM     20  C   UNL d   1     -41.141-121.993 -51.188  0.00  0.00     0.100 A 
BRANCH  18  21
ATOM     21  C   UNL d   1     -42.148-122.616 -49.343  0.00  0.00     0.064 A 
ATOM     22  C   UNL d   1     -42.732-123.189 -49.317  0.00  0.00     0.020 A 
ATOM     23  C   UNL d   1     -42.894-123.583 -48.603  0.00  0.00     0.026 A 
ATOM     24  C   UNL d   1     -42.464-123.394 -47.922  0.00  0.00     0.094 A 
ATOM     25  C   UNL d   1     -41.874-122.811 -47.960  0.00  0.00     0.026 A 
ATOM     26  C   UNL d   1     -41.716-122.422 -48.670  0.00  0.00     0.020 A 
BRANCH  24  27
ATOM     27  O   UNL d   1     -42.613-123.775 -47.211  0.00  0.00    -0.328 OA
ATOM     28  C   UNL d   1     -43.152-123.441 -46.681  0.00  0.00     0.181 C 
ENDBRANCH  24  27
ENDBRANCH  18  21
ENDBRANCH  14  15
ENDBRANCH   9  14
BRANCH   4  29
ATOM     29  C   UNL d   1     -42.125-120.370 -53.741  0.00  0.00     0.082 C 
BRANCH  29  30
ATOM     30  C   UNL d   1     -41.802-119.762 -53.305  0.00  0.00     0.018 A 
ATOM     31  C   UNL d   1     -41.783-119.012 -53.628  0.00  0.00     0.001 A 
ATOM     32  C   UNL d   1     -42.081-118.861 -54.380  0.00  0.00     0.000 C 
ATOM     33  C   UNL d   1     -41.454-118.386 -53.186  0.00  0.00     0.000 A 
ATOM     34  C   UNL d   1     -41.151-118.524 -52.432  0.00  0.00     0.000 A 
ATOM     35  C   UNL d   1     -41.173-119.279 -52.112  0.00  0.00     0.000 A 
ATOM     36  C   UNL d   1     -41.498-119.899 -52.547  0.00  0.00     0.002 A 
ENDBRANCH  29  30
ENDBRANCH   4  29
TORSDOF 6
ENDMDL
