MODEL 1
REMARK VINA RESULT:      -3.3      0.000      0.000
REMARK  3 active torsions:
REMARK  status: ('A' for Active; 'I' for Inactive)
REMARK    1  A    between atoms: C_4  and  C_1 
REMARK    2  A    between atoms: N_7  and  C_4 
REMARK    3  A    between atoms: C_9  and  N_7 
ROOT
ATOM      1  C   UNL d   1      33.105  19.817 -22.778  0.00  0.00     0.171 C 
ATOM      2  S   UNL d   1      33.222  20.405 -23.362  0.00  0.00    -0.054 SA
ENDROOT
BRANCH   1   3
ATOM      3  C   UNL d   1      32.895  19.053 -22.997  0.00  0.00     0.191 A 
ATOM      4  N   UNL d   1      33.232  18.354 -22.704  0.00  0.00    -0.223 NA
ATOM      5  C   UNL d   1      32.856  17.718 -23.075  0.00  0.00     0.101 A 
ATOM      6  C   UNL d   1      32.961  16.900 -23.001  0.00  0.00     0.021 A 
ATOM      7  C   UNL d   1      32.290  18.022 -23.595  0.00  0.00     0.101 A 
ATOM      8  C   UNL d   1      32.493  16.393 -23.454  0.00  0.00     0.002 A 
ATOM      9  C   UNL d   1      31.926  16.698 -23.974  0.00  0.00     0.002 A 
ATOM     10  C   UNL d   1      31.826  17.510 -24.044  0.00  0.00     0.021 A 
ATOM     11  N   UNL d   1      32.320  18.845 -23.542  0.00  0.00    -0.223 NA
ENDBRANCH   1   3
BRANCH   1  12
ATOM     12  N   UNL d   1      33.203  20.015 -21.983  0.00  0.00    -0.232 NA
BRANCH  12  13
ATOM     13  C   UNL d   1      32.930  20.738 -21.693  0.00  0.00     0.082 A 
ATOM     14  C   UNL d   1      32.347  20.752 -21.105  0.00  0.00     0.019 A 
ATOM     15  C   UNL d   1      32.076  21.473 -20.816  0.00  0.00     0.002 A 
ATOM     16  C   UNL d   1      32.384  22.188 -21.112  0.00  0.00     0.000 A 
ATOM     17  C   UNL d   1      32.967  22.164 -21.700  0.00  0.00     0.002 A 
ATOM     18  C   UNL d   1      32.113  22.908 -20.823  0.00  0.00     0.000 C 
ATOM     19  C   UNL d   1      33.236  21.441 -21.987  0.00  0.00     0.019 A 
ENDBRANCH  12  13
ENDBRANCH   1  12
TORSDOF 3
ENDMDL
MODEL 2
REMARK VINA RESULT:      -3.2      0.181      1.036
REMARK  3 active torsions:
REMARK  status: ('A' for Active; 'I' for Inactive)
REMARK    1  A    between atoms: C_4  and  C_1 
REMARK    2  A    between atoms: N_7  and  C_4 
REMARK    3  A    between atoms: C_9  and  N_7 
ROOT
ATOM      1  C   UNL d   1      33.120  19.946 -22.714  0.00  0.00     0.171 C 
ATOM      2  S   UNL d   1      33.239  20.558 -23.272  0.00  0.00    -0.054 SA
ENDROOT
BRANCH   1   3
ATOM      3  C   UNL d   1      32.946  19.184 -22.968  0.00  0.00     0.191 A 
ATOM      4  N   UNL d   1      32.473  18.985 -23.621  0.00  0.00    -0.223 NA
ATOM      5  C   UNL d   1      32.449  18.160 -23.672  0.00  0.00     0.101 A 
ATOM      6  C   UNL d   1      32.067  17.655 -24.205  0.00  0.00     0.021 A 
ATOM      7  C   UNL d   1      32.903  17.851 -23.054  0.00  0.00     0.101 A 
ATOM      8  C   UNL d   1      32.147  16.839 -24.112  0.00  0.00     0.002 A 
ATOM      9  C   UNL d   1      32.602  16.529 -23.495  0.00  0.00     0.002 A 
ATOM     10  C   UNL d   1      32.978  17.035 -22.968  0.00  0.00     0.021 A 
ATOM     11  N   UNL d   1      33.206  18.486 -22.625  0.00  0.00    -0.223 NA
ENDBRANCH   1   3
BRANCH   1  12
ATOM     12  N   UNL d   1      33.179  20.117 -21.909  0.00  0.00    -0.232 NA
BRANCH  12  13
ATOM     13  C   UNL d   1      32.925  20.846 -21.614  0.00  0.00     0.082 A 
ATOM     14  C   UNL d   1      33.241  21.547 -21.922  0.00  0.00     0.019 A 
ATOM     15  C   UNL d   1      32.987  22.273 -21.628  0.00  0.00     0.002 A 
ATOM     16  C   UNL d   1      32.415  22.304 -21.024  0.00  0.00     0.000 A 
ATOM     17  C   UNL d   1      32.105  21.598 -20.723  0.00  0.00     0.002 A 
ATOM     18  C   UNL d   1      32.162  23.029 -20.731  0.00  0.00     0.000 C 
ATOM     19  C   UNL d   1      32.361  20.874 -21.019  0.00  0.00     0.019 A 
ENDBRANCH  12  13
ENDBRANCH   1  12
TORSDOF 3
ENDMDL
MODEL 3
REMARK VINA RESULT:      -3.1      0.804      4.536
REMARK  3 active torsions:
REMARK  status: ('A' for Active; 'I' for Inactive)
REMARK    1  A    between atoms: C_4  and  C_1 
REMARK    2  A    between atoms: N_7  and  C_4 
REMARK    3  A    between atoms: C_9  and  N_7 
ROOT
ATOM      1  C   UNL d   1      33.105  18.938 -23.089  0.00  0.00     0.171 C 
ATOM      2  S   UNL d   1      33.241  19.049 -23.907  0.00  0.00    -0.054 SA
ENDROOT
BRANCH   1   3
ATOM      3  C   UNL d   1      33.135  19.579 -22.575  0.00  0.00     0.191 A 
ATOM      4  N   UNL d   1      33.141  20.379 -22.796  0.00  0.00    -0.223 NA
ATOM      5  C   UNL d   1      33.174  20.831 -22.104  0.00  0.00     0.101 A 
ATOM      6  C   UNL d   1      33.193  21.650 -21.984  0.00  0.00     0.021 A 
ATOM      7  C   UNL d   1      33.189  20.313 -21.459  0.00  0.00     0.101 A 
ATOM      8  C   UNL d   1      33.226  21.942 -21.213  0.00  0.00     0.002 A 
ATOM      9  C   UNL d   1      33.241  21.424 -20.568  0.00  0.00     0.002 A 
ATOM     10  C   UNL d   1      33.222  20.612 -20.692  0.00  0.00     0.021 A 
ATOM     11  N   UNL d   1      33.165  19.544 -21.757  0.00  0.00    -0.223 NA
ENDBRANCH   1   3
BRANCH   1  12
ATOM     12  N   UNL d   1      32.942  18.180 -22.807  0.00  0.00    -0.232 NA
BRANCH  12  13
ATOM     13  C   UNL d   1      32.680  17.588 -23.319  0.00  0.00     0.082 A 
ATOM     14  C   UNL d   1      33.220  17.040 -23.625  0.00  0.00     0.019 A 
ATOM     15  C   UNL d   1      32.959  16.450 -24.136  0.00  0.00     0.002 A 
ATOM     16  C   UNL d   1      32.155  16.402 -24.345  0.00  0.00     0.000 A 
ATOM     17  C   UNL d   1      31.622  16.954 -24.034  0.00  0.00     0.002 A 
ATOM     18  C   UNL d   1      31.894  15.812 -24.855  0.00  0.00     0.000 C 
ATOM     19  C   UNL d   1      31.887  17.543 -23.524  0.00  0.00     0.019 A 
ENDBRANCH  12  13
ENDBRANCH   1  12
TORSDOF 3
ENDMDL
MODEL 4
REMARK VINA RESULT:      -2.6      2.538      3.978
REMARK  3 active torsions:
REMARK  status: ('A' for Active; 'I' for Inactive)
REMARK    1  A    between atoms: C_4  and  C_1 
REMARK    2  A    between atoms: N_7  and  C_4 
REMARK    3  A    between atoms: C_9  and  N_7 
ROOT
ATOM      1  C   UNL d   1      31.637  16.251 -23.881  0.00  0.00     0.171 C 
ATOM      2  S   UNL d   1      32.172  15.746 -23.484  0.00  0.00    -0.054 SA
ENDROOT
BRANCH   1   3
ATOM      3  C   UNL d   1      30.836  16.065 -23.909  0.00  0.00     0.191 A 
ATOM      4  N   UNL d   1      30.340  15.954 -23.253  0.00  0.00    -0.223 NA
ATOM      5  C   UNL d   1      29.584  15.776 -23.536  0.00  0.00     0.101 A 
ATOM      6  C   UNL d   1      28.874  15.613 -23.142  0.00  0.00     0.021 A 
ATOM      7  C   UNL d   1      29.612  15.778 -24.363  0.00  0.00     0.101 A 
ATOM      8  C   UNL d   1      28.197  15.453 -23.585  0.00  0.00     0.002 A 
ATOM      9  C   UNL d   1      28.225  15.455 -24.412  0.00  0.00     0.002 A 
ATOM     10  C   UNL d   1      28.932  15.617 -24.798  0.00  0.00     0.021 A 
ATOM     11  N   UNL d   1      30.386  15.957 -24.585  0.00  0.00    -0.223 NA
ENDBRANCH   1   3
BRANCH   1  12
ATOM     12  N   UNL d   1      31.921  16.937 -24.241  0.00  0.00    -0.232 NA
BRANCH  12  13
ATOM     13  C   UNL d   1      32.251  17.544 -23.789  0.00  0.00     0.082 A 
ATOM     14  C   UNL d   1      31.977  18.320 -23.881  0.00  0.00     0.019 A 
ATOM     15  C   UNL d   1      32.306  18.925 -23.430  0.00  0.00     0.002 A 
ATOM     16  C   UNL d   1      32.912  18.760 -22.884  0.00  0.00     0.000 A 
ATOM     17  C   UNL d   1      33.180  17.980 -22.799  0.00  0.00     0.002 A 
ATOM     18  C   UNL d   1      33.241  19.364 -22.433  0.00  0.00     0.000 C 
ATOM     19  C   UNL d   1      32.848  17.378 -23.251  0.00  0.00     0.019 A 
ENDBRANCH  12  13
ENDBRANCH   1  12
TORSDOF 3
ENDMDL
MODEL 5
REMARK VINA RESULT:      -2.1      3.131      5.380
REMARK  3 active torsions:
REMARK  status: ('A' for Active; 'I' for Inactive)
REMARK    1  A    between atoms: C_4  and  C_1 
REMARK    2  A    between atoms: N_7  and  C_4 
REMARK    3  A    between atoms: C_9  and  N_7 
ROOT
ATOM      1  C   UNL d   1      30.050  17.124 -24.566  0.00  0.00     0.171 C 
ATOM      2  S   UNL d   1      29.435  17.446 -25.032  0.00  0.00    -0.054 SA
ENDROOT
BRANCH   1   3
ATOM      3  C   UNL d   1      30.774  17.510 -24.513  0.00  0.00     0.191 A 
ATOM      4  N   UNL d   1      31.071  18.063 -25.056  0.00  0.00    -0.223 NA
ATOM      5  C   UNL d   1      31.813  18.308 -24.785  0.00  0.00     0.101 A 
ATOM      6  C   UNL d   1      32.360  18.845 -25.097  0.00  0.00     0.021 A 
ATOM      7  C   UNL d   1      31.974  17.909 -24.079  0.00  0.00     0.101 A 
ATOM      8  C   UNL d   1      33.068  18.977 -24.693  0.00  0.00     0.002 A 
ATOM      9  C   UNL d   1      33.228  18.578 -23.987  0.00  0.00     0.002 A 
ATOM     10  C   UNL d   1      32.682  18.045 -23.682  0.00  0.00     0.021 A 
ATOM     11  N   UNL d   1      31.330  17.419 -23.918  0.00  0.00    -0.223 NA
ENDBRANCH   1   3
BRANCH   1  12
ATOM     12  N   UNL d   1      29.921  16.416 -24.162  0.00  0.00    -0.232 NA
BRANCH  12  13
ATOM     13  C   UNL d   1      29.154  16.175 -23.971  0.00  0.00     0.082 A 
ATOM     14  C   UNL d   1      28.728  15.700 -24.500  0.00  0.00     0.019 A 
ATOM     15  C   UNL d   1      27.965  15.460 -24.309  0.00  0.00     0.002 A 
ATOM     16  C   UNL d   1      27.619  15.692 -23.588  0.00  0.00     0.000 A 
ATOM     17  C   UNL d   1      28.052  16.167 -23.066  0.00  0.00     0.002 A 
ATOM     18  C   UNL d   1      26.856  15.453 -23.398  0.00  0.00     0.000 C 
ATOM     19  C   UNL d   1      28.816  16.405 -23.260  0.00  0.00     0.019 A 
ENDBRANCH  12  13
ENDBRANCH   1  12
TORSDOF 3
ENDMDL
MODEL 6
REMARK VINA RESULT:      -0.5      3.520      4.826
REMARK  3 active torsions:
REMARK  status: ('A' for Active; 'I' for Inactive)
REMARK    1  A    between atoms: C_4  and  C_1 
REMARK    2  A    between atoms: N_7  and  C_4 
REMARK    3  A    between atoms: C_9  and  N_7 
ROOT
ATOM      1  C   UNL d   1      33.021  22.588 -19.888  0.00  0.00     0.171 C 
ATOM      2  S   UNL d   1      32.836  21.847 -19.548  0.00  0.00    -0.054 SA
ENDROOT
BRANCH   1   3
ATOM      3  C   UNL d   1      33.010  22.682 -20.704  0.00  0.00     0.191 A 
ATOM      4  N   UNL d   1      33.204  23.377 -21.116  0.00  0.00    -0.223 NA
ATOM      5  C   UNL d   1      33.117  23.223 -21.924  0.00  0.00     0.101 A 
ATOM      6  C   UNL d   1      33.232  23.702 -22.589  0.00  0.00     0.021 A 
ATOM      7  C   UNL d   1      32.871  22.438 -22.011  0.00  0.00     0.101 A 
ATOM      8  C   UNL d   1      33.098  23.386 -23.339  0.00  0.00     0.002 A 
ATOM      9  C   UNL d   1      32.852  22.602 -23.427  0.00  0.00     0.002 A 
ATOM     10  C   UNL d   1      32.739  22.130 -22.764  0.00  0.00     0.021 A 
ATOM     11  N   UNL d   1      32.807  22.112 -21.257  0.00  0.00    -0.223 NA
ENDBRANCH   1   3
BRANCH   1  12
ATOM     12  N   UNL d   1      33.214  23.221 -19.394  0.00  0.00    -0.232 NA
BRANCH  12  13
ATOM     13  C   UNL d   1      32.838  23.314 -18.665  0.00  0.00     0.082 A 
ATOM     14  C   UNL d   1      33.241  23.120 -17.967  0.00  0.00     0.019 A 
ATOM     15  C   UNL d   1      32.867  23.213 -17.240  0.00  0.00     0.002 A 
ATOM     16  C   UNL d   1      32.087  23.502 -17.203  0.00  0.00     0.000 A 
ATOM     17  C   UNL d   1      31.692  23.693 -17.906  0.00  0.00     0.002 A 
ATOM     18  C   UNL d   1      31.713  23.595 -16.477  0.00  0.00     0.000 C 
ATOM     19  C   UNL d   1      32.070  23.599 -18.631  0.00  0.00     0.019 A 
ENDBRANCH  12  13
ENDBRANCH   1  12
TORSDOF 3
ENDMDL
