MODEL 1
REMARK VINA RESULT:      -8.7      0.000      0.000
REMARK  9 active torsions:
REMARK  status: ('A' for Active; 'I' for Inactive)
REMARK    1  A    between atoms: C_12  and  C_1 
REMARK       I    between atoms: C_4  and  N_11 
REMARK    2  A    between atoms: C_5  and  C_4 
REMARK    3  A    between atoms: O_18  and  C_6 
REMARK    4  A    between atoms: O_19  and  C_7 
REMARK    5  A    between atoms: O_20  and  C_8 
REMARK    6  A    between atoms: N_11  and  C_15 
REMARK    7  A    between atoms: C_26  and  O_18 
REMARK    8  A    between atoms: C_28  and  O_19 
REMARK    9  A    between atoms: C_27  and  O_20 
ROOT
ATOM      1  C   UNL d   1      51.252  34.122  52.258  0.00  0.00     0.279 C 
ATOM      2  N   UNL d   1      50.464  34.119  52.513  0.00  0.00    -0.208 NA
ATOM      3  O   UNL d   1      51.436  34.339  51.484  0.00  0.00    -0.265 OA
ENDROOT
BRANCH   1   4
ATOM      4  C   UNL d   1      51.851  33.908  52.779  0.00  0.00     0.062 A 
ATOM      5  C   UNL d   1      52.117  33.126  52.803  0.00  0.00     0.032 A 
ATOM      6  C   UNL d   1      52.716  32.913  53.325  0.00  0.00     0.125 A 
ATOM      7  C   UNL d   1      53.051  33.477  53.824  0.00  0.00     0.145 A 
ATOM      8  C   UNL d   1      52.786  34.253  53.799  0.00  0.00     0.125 A 
ATOM      9  C   UNL d   1      52.191  34.464  53.280  0.00  0.00     0.032 A 
BRANCH   6  10
ATOM     10  O   UNL d   1      52.983  32.126  53.348  0.00  0.00    -0.303 OA
BRANCH  10  11
ATOM     11  C   UNL d   1      52.556  31.536  52.951  0.00  0.00     0.123 C 
ATOM     12  C   UNL d   1      52.849  30.758  52.934  0.00  0.00     0.029 C 
ENDBRANCH  10  11
ENDBRANCH   6  10
BRANCH   7  13
ATOM     13  O   UNL d   1      53.652  33.260  54.347  0.00  0.00    -0.301 OA
BRANCH  13  14
ATOM     14  C   UNL d   1      54.439  33.346  54.125  0.00  0.00     0.123 C 
ATOM     15  C   UNL d   1      55.039  33.240  54.682  0.00  0.00     0.029 C 
ENDBRANCH  13  14
ENDBRANCH   7  13
BRANCH   8  16
ATOM     16  O   UNL d   1      53.124  34.824  54.303  0.00  0.00    -0.303 OA
BRANCH  16  17
ATOM     17  C   UNL d   1      52.773  35.569  54.370  0.00  0.00     0.123 C 
ATOM     18  C   UNL d   1      53.132  36.151  54.840  0.00  0.00     0.029 C 
ENDBRANCH  16  17
ENDBRANCH   8  16
ENDBRANCH   1   4
BRANCH   2  19
ATOM     19  C   UNL d   1      49.854  34.335  51.988  0.00  0.00     0.085 A 
ATOM     20  C   UNL d   1      49.192  34.740  52.279  0.00  0.00     0.022 A 
ATOM     21  C   UNL d   1      48.588  34.955  51.765  0.00  0.00     0.037 A 
ATOM     22  C   UNL d   1      48.636  34.770  50.961  0.00  0.00     0.003 A 
ATOM     23  C   UNL d   1      49.300  34.364  50.674  0.00  0.00     0.002 A 
ATOM     24  C   UNL d   1      49.906  34.147  51.182  0.00  0.00     0.019 A 
BRANCH  21  25
ATOM     25  C   UNL d   1      47.927  35.359  52.050  0.00  0.00     0.162 A 
ATOM     26  N   UNL d   1      47.774  35.719  52.775  0.00  0.00    -0.225 NA
ATOM     27  C   UNL d   1      47.014  36.039  52.744  0.00  0.00     0.101 A 
ATOM     28  C   UNL d   1      46.566  36.459  53.301  0.00  0.00     0.021 A 
ATOM     29  C   UNL d   1      46.706  35.874  52.004  0.00  0.00     0.101 A 
ATOM     30  C   UNL d   1      45.810  36.709  53.103  0.00  0.00     0.002 A 
ATOM     31  C   UNL d   1      45.498  36.542  52.351  0.00  0.00     0.002 A 
ATOM     32  C   UNL d   1      45.942  36.128  51.806  0.00  0.00     0.021 A 
ATOM     33  N   UNL d   1      47.268  35.455  51.576  0.00  0.00    -0.225 NA
ENDBRANCH  21  25
ENDBRANCH   2  19
TORSDOF 9
ENDMDL
