MODEL 1
REMARK VINA RESULT:      -9.4      0.000      0.000
REMARK  3 active torsions:
REMARK  status: ('A' for Active; 'I' for Inactive)
REMARK    1  A    between atoms: S_2  and  N_1 
REMARK    2  A    between atoms: C_7  and  S_2 
REMARK    3  A    between atoms: C_14  and  C_6 
ROOT
ATOM      1  S   UNL d   1     -48.043  13.003  22.801  0.00  0.00     0.273 S 
ATOM      2  O   UNL d   1     -47.810  12.792  22.088  0.00  0.00    -0.200 OA
ATOM      3  O   UNL d   1     -48.120  13.083  23.530  0.00  0.00    -0.200 OA
ENDROOT
BRANCH   1   4
ATOM      4  N   UNL d   1     -47.518  12.567  23.104  0.00  0.00    -0.202 N 
ATOM      5  C   UNL d   1     -47.640  11.910  23.455  0.00  0.00     0.218 A 
ATOM      6  N   UNL d   1     -46.969  11.641  23.683  0.00  0.00    -0.178 NA
ATOM      7  S   UNL d   1     -48.359  11.679  23.499  0.00  0.00    -0.037 SA
ATOM      8  C   UNL d   1     -46.446  12.134  23.470  0.00  0.00     0.298 A 
ATOM      9  C   UNL d   1     -46.780  12.704  23.115  0.00  0.00     0.135 A 
ATOM     10  O   UNL d   1     -45.714  12.036  23.610  0.00  0.00    -0.264 OA
BRANCH   9  11
ATOM     11  C   UNL d   1     -46.445  13.306  22.819  0.00  0.00     0.022 C 
ATOM     12  C   UNL d   1     -46.361  13.924  23.236  0.00  0.00     0.002 C 
ATOM     13  C   UNL d   1     -46.196  13.292  22.112  0.00  0.00     0.002 C 
ENDBRANCH   9  11
ENDBRANCH   1   4
BRANCH   1  14
ATOM     14  C   UNL d   1     -48.644  13.503  22.535  0.00  0.00     0.104 A 
ATOM     15  C   UNL d   1     -49.099  13.299  21.874  0.00  0.00     0.012 A 
ATOM     16  C   UNL d   1     -49.700  13.799  21.608  0.00  0.00     0.001 A 
ATOM     17  C   UNL d   1     -48.934  12.572  21.483  0.00  0.00     0.001 C 
ATOM     18  C   UNL d   1     -49.851  14.508  22.000  0.00  0.00     0.000 A 
ATOM     19  C   UNL d   1     -49.401  14.720  22.662  0.00  0.00     0.001 A 
ATOM     20  C   UNL d   1     -48.794  14.215  22.931  0.00  0.00     0.013 A 
ATOM     21  C   UNL d   1     -49.553  15.436  23.058  0.00  0.00     0.000 C 
ENDBRANCH   1  14
TORSDOF 3
ENDMDL
MODEL 2
REMARK VINA RESULT:      -9.0      1.496      3.304
REMARK  3 active torsions:
REMARK  status: ('A' for Active; 'I' for Inactive)
REMARK    1  A    between atoms: S_2  and  N_1 
REMARK    2  A    between atoms: C_7  and  S_2 
REMARK    3  A    between atoms: C_14  and  C_6 
ROOT
ATOM      1  S   UNL d   1     -48.845  13.454  22.538  0.00  0.00     0.273 S 
ATOM      2  O   UNL d   1     -49.208  13.324  23.216  0.00  0.00    -0.200 OA
ATOM      3  O   UNL d   1     -48.678  13.639  21.844  0.00  0.00    -0.200 OA
ENDROOT
BRANCH   1   4
ATOM      4  N   UNL d   1     -49.480  13.714  22.246  0.00  0.00    -0.202 N 
ATOM      5  C   UNL d   1     -49.921  13.348  21.754  0.00  0.00     0.218 A 
ATOM      6  N   UNL d   1     -50.509  13.796  21.591  0.00  0.00    -0.178 NA
ATOM      7  S   UNL d   1     -49.692  12.658  21.545  0.00  0.00    -0.037 SA
ATOM      8  C   UNL d   1     -50.424  14.430  21.983  0.00  0.00     0.298 A 
ATOM      9  C   UNL d   1     -49.792  14.382  22.386  0.00  0.00     0.135 A 
ATOM     10  O   UNL d   1     -50.914  14.998  21.951  0.00  0.00    -0.264 OA
BRANCH   9  11
ATOM     11  C   UNL d   1     -49.515  14.903  22.849  0.00  0.00     0.022 C 
ATOM     12  C   UNL d   1     -49.036  15.415  22.584  0.00  0.00     0.002 C 
ATOM     13  C   UNL d   1     -49.715  14.912  23.572  0.00  0.00     0.002 C 
ENDBRANCH   9  11
ENDBRANCH   1   4
BRANCH   1  14
ATOM     14  C   UNL d   1     -48.111  13.179  22.797  0.00  0.00     0.104 A 
ATOM     15  C   UNL d   1     -48.059  12.514  23.289  0.00  0.00     0.012 A 
ATOM     16  C   UNL d   1     -47.324  12.240  23.547  0.00  0.00     0.001 A 
ATOM     17  C   UNL d   1     -48.772  12.129  23.517  0.00  0.00     0.001 C 
ATOM     18  C   UNL d   1     -46.634  12.626  23.317  0.00  0.00     0.000 A 
ATOM     19  C   UNL d   1     -46.677  13.291  22.825  0.00  0.00     0.001 A 
ATOM     20  C   UNL d   1     -47.418  13.569  22.564  0.00  0.00     0.013 A 
ATOM     21  C   UNL d   1     -45.979  13.683  22.592  0.00  0.00     0.000 C 
ENDBRANCH   1  14
TORSDOF 3
ENDMDL
MODEL 3
REMARK VINA RESULT:      -8.9      1.306      1.943
REMARK  3 active torsions:
REMARK  status: ('A' for Active; 'I' for Inactive)
REMARK    1  A    between atoms: S_2  and  N_1 
REMARK    2  A    between atoms: C_7  and  S_2 
REMARK    3  A    between atoms: C_14  and  C_6 
ROOT
ATOM      1  S   UNL d   1     -48.287  13.343  22.613  0.00  0.00     0.273 S 
ATOM      2  O   UNL d   1     -47.991  13.125  21.927  0.00  0.00    -0.200 OA
ATOM      3  O   UNL d   1     -48.397  13.640  23.280  0.00  0.00    -0.200 OA
ENDROOT
BRANCH   1   4
ATOM      4  N   UNL d   1     -47.661  13.719  22.767  0.00  0.00    -0.202 N 
ATOM      5  C   UNL d   1     -47.585  14.470  22.754  0.00  0.00     0.218 A 
ATOM      6  N   UNL d   1     -46.869  14.633  22.942  0.00  0.00    -0.178 NA
ATOM      7  S   UNL d   1     -48.200  14.869  22.569  0.00  0.00    -0.037 SA
ATOM      8  C   UNL d   1     -46.516  13.983  23.067  0.00  0.00     0.298 A 
ATOM      9  C   UNL d   1     -47.001  13.420  22.960  0.00  0.00     0.135 A 
ATOM     10  O   UNL d   1     -45.793  13.944  23.266  0.00  0.00    -0.264 OA
BRANCH   9  11
ATOM     11  C   UNL d   1     -46.860  12.687  23.031  0.00  0.00     0.022 C 
ATOM     12  C   UNL d   1     -46.614  12.299  22.438  0.00  0.00     0.002 C 
ATOM     13  C   UNL d   1     -46.963  12.344  23.690  0.00  0.00     0.002 C 
ENDBRANCH   9  11
ENDBRANCH   1   4
BRANCH   1  14
ATOM     14  C   UNL d   1     -49.006  12.950  22.509  0.00  0.00     0.104 A 
ATOM     15  C   UNL d   1     -49.363  12.916  21.763  0.00  0.00     0.012 A 
ATOM     16  C   UNL d   1     -50.082  12.523  21.658  0.00  0.00     0.001 A 
ATOM     17  C   UNL d   1     -48.977  13.293  21.117  0.00  0.00     0.001 C 
ATOM     18  C   UNL d   1     -50.450  12.158  22.299  0.00  0.00     0.000 A 
ATOM     19  C   UNL d   1     -50.100  12.187  23.049  0.00  0.00     0.001 A 
ATOM     20  C   UNL d   1     -49.374  12.584  23.155  0.00  0.00     0.013 A 
ATOM     21  C   UNL d   1     -50.471  11.819  23.698  0.00  0.00     0.000 C 
ENDBRANCH   1  14
TORSDOF 3
ENDMDL
MODEL 4
REMARK VINA RESULT:      -8.6      1.488      3.349
REMARK  3 active torsions:
REMARK  status: ('A' for Active; 'I' for Inactive)
REMARK    1  A    between atoms: S_2  and  N_1 
REMARK    2  A    between atoms: C_7  and  S_2 
REMARK    3  A    between atoms: C_14  and  C_6 
ROOT
ATOM      1  S   UNL d   1     -48.571  13.763  22.638  0.00  0.00     0.273 S 
ATOM      2  O   UNL d   1     -48.361  14.114  21.975  0.00  0.00    -0.200 OA
ATOM      3  O   UNL d   1     -48.947  13.480  23.206  0.00  0.00    -0.200 OA
ENDROOT
BRANCH   1   4
ATOM      4  N   UNL d   1     -49.288  13.906  22.491  0.00  0.00    -0.202 N 
ATOM      5  C   UNL d   1     -49.701  14.455  22.806  0.00  0.00     0.218 A 
ATOM      6  N   UNL d   1     -50.398  14.417  22.510  0.00  0.00    -0.178 NA
ATOM      7  S   UNL d   1     -49.351  14.892  23.313  0.00  0.00    -0.037 SA
ATOM      8  C   UNL d   1     -50.405  13.850  22.021  0.00  0.00     0.298 A 
ATOM      9  C   UNL d   1     -49.724  13.534  22.006  0.00  0.00     0.135 A 
ATOM     10  O   UNL d   1     -51.016  13.659  21.626  0.00  0.00    -0.264 OA
BRANCH   9  11
ATOM     11  C   UNL d   1     -49.509  12.951  21.587  0.00  0.00     0.022 C 
ATOM     12  C   UNL d   1     -49.632  12.253  21.833  0.00  0.00     0.002 C 
ATOM     13  C   UNL d   1     -49.173  13.064  20.926  0.00  0.00     0.002 C 
ENDBRANCH   9  11
ENDBRANCH   1   4
BRANCH   1  14
ATOM     14  C   UNL d   1     -47.800  13.572  22.865  0.00  0.00     0.104 A 
ATOM     15  C   UNL d   1     -47.192  14.130  22.800  0.00  0.00     0.012 A 
ATOM     16  C   UNL d   1     -46.421  13.938  23.026  0.00  0.00     0.001 A 
ATOM     17  C   UNL d   1     -47.379  14.893  22.499  0.00  0.00     0.001 C 
ATOM     18  C   UNL d   1     -46.251  13.187  23.319  0.00  0.00     0.000 A 
ATOM     19  C   UNL d   1     -46.853  12.623  23.387  0.00  0.00     0.001 A 
ATOM     20  C   UNL d   1     -47.632  12.816  23.159  0.00  0.00     0.013 A 
ATOM     21  C   UNL d   1     -46.682  11.864  23.684  0.00  0.00     0.000 C 
ENDBRANCH   1  14
TORSDOF 3
ENDMDL
