MODEL 1
REMARK VINA RESULT:      -2.9      0.000      0.000
REMARK  2 active torsions:
REMARK  status: ('A' for Active; 'I' for Inactive)
REMARK    1  A    between atoms: C_2  and  P_1 
REMARK    2  A    between atoms: C_7  and  C_2 
ROOT
ATOM      1  C   UNL d   1      24.363  12.661  -0.514  0.00  0.00     0.194 C 
ATOM      2  N   UNL d   1      24.590  12.037  -0.014  0.00  0.00    -0.138 N 
ENDROOT
BRANCH   1   3
ATOM      3  P   UNL d   1      24.569  12.620  -1.322  0.00  0.00     0.317 P 
ATOM      4  O   UNL d   1      24.768  12.572  -2.110  0.00  0.00    -0.635 OA
ATOM      5  O   UNL d   1      24.380  11.798  -1.306  0.00  0.00    -0.635 OA
ATOM      6  O   UNL d   1      24.755  13.433  -1.334  0.00  0.00    -0.635 OA
ENDBRANCH   1   3
BRANCH   1   7
ATOM      7  C   UNL d   1      23.942  13.307  -0.216  0.00  0.00     0.029 C 
ATOM      8  C   UNL d   1      23.132  13.259  -0.120  0.00  0.00     0.002 C 
ATOM      9  C   UNL d   1      24.349  13.997  -0.016  0.00  0.00     0.002 C 
ENDBRANCH   1   7
TORSDOF 2
ENDMDL
MODEL 2
REMARK VINA RESULT:      -2.7      1.459      1.857
REMARK  2 active torsions:
REMARK  status: ('A' for Active; 'I' for Inactive)
REMARK    1  A    between atoms: C_2  and  P_1 
REMARK    2  A    between atoms: C_7  and  C_2 
ROOT
ATOM      1  C   UNL d   1      24.074  12.421  -0.525  0.00  0.00     0.194 C 
ATOM      2  N   UNL d   1      24.259  11.790  -0.015  0.00  0.00    -0.138 N 
ENDROOT
BRANCH   1   3
ATOM      3  P   UNL d   1      23.526  12.995  -0.265  0.00  0.00     0.317 P 
ATOM      4  O   UNL d   1      22.986  13.550  -0.015  0.00  0.00    -0.635 OA
ATOM      5  O   UNL d   1      22.904  12.485  -0.520  0.00  0.00    -0.635 OA
ATOM      6  O   UNL d   1      24.144  13.497  -0.014  0.00  0.00    -0.635 OA
ENDBRANCH   1   3
BRANCH   1   7
ATOM      7  C   UNL d   1      24.426  12.476  -1.270  0.00  0.00     0.029 C 
ATOM      8  C   UNL d   1      24.768  13.178  -1.511  0.00  0.00     0.002 C 
ATOM      9  C   UNL d   1      24.428  11.816  -1.766  0.00  0.00     0.002 C 
ENDBRANCH   1   7
TORSDOF 2
ENDMDL
