MODEL 1
REMARK VINA RESULT:      35.1      0.000      0.000
REMARK  3 active torsions:
REMARK  status: ('A' for Active; 'I' for Inactive)
REMARK    1  A    between atoms: N_3  and  S_1 
REMARK    2  A    between atoms: C_8  and  S_1 
REMARK    3  A    between atoms: C_2  and  N_3 
ROOT
ATOM      1  S   UNL d   1     -56.747 -99.474 -44.313  0.00  0.00     0.287 S 
ATOM      2  O   UNL d   1     -56.603 -98.933 -44.920  0.00  0.00    -0.198 OA
ATOM      3  O   UNL d   1     -56.902-100.014 -43.706  0.00  0.00    -0.198 OA
ENDROOT
BRANCH   1   4
ATOM      4  N   UNL d   1     -55.942 -99.655 -44.276  0.00  0.00    -0.131 NA
BRANCH   4   5
ATOM      5  C   UNL d   1     -55.502-100.351 -44.201  0.00  0.00     0.219 A 
ATOM      6  C   UNL d   1     -55.425-100.937 -44.776  0.00  0.00     0.064 A 
ATOM      7  C   UNL d   1     -54.936-101.531 -44.466  0.00  0.00     0.112 A 
ATOM      8  C   UNL d   1     -55.774-100.935 -45.528  0.00  0.00     0.005 C 
ATOM      9  C   UNL d   1     -54.712-102.225 -44.858  0.00  0.00     0.023 C 
ATOM     10  N   UNL d   1     -54.714-101.306 -43.702  0.00  0.00    -0.125 NA
ATOM     11  O   UNL d   1     -55.065-100.574 -43.536  0.00  0.00    -0.191 OA
ENDBRANCH   4   5
ENDBRANCH   1   4
BRANCH   1  12
ATOM     12  C   UNL d   1     -57.553 -99.293 -44.350  0.00  0.00     0.105 A 
ATOM     13  C   UNL d   1     -57.972 -99.414 -45.050  0.00  0.00     0.015 A 
ATOM     14  C   UNL d   1     -58.767 -99.235 -45.087  0.00  0.00     0.022 A 
ATOM     15  C   UNL d   1     -59.153 -98.937 -44.436  0.00  0.00     0.103 A 
ATOM     16  C   UNL d   1     -58.738 -98.815 -43.736  0.00  0.00     0.022 A 
ATOM     17  N   UNL d   1     -59.958 -98.756 -44.473  0.00  0.00    -0.148 N 
ATOM     18  C   UNL d   1     -57.940 -98.994 -43.699  0.00  0.00     0.015 A 
ENDBRANCH   1  12
TORSDOF 3
ENDMDL
MODEL 2
REMARK VINA RESULT:      36.7      3.110      4.536
REMARK  3 active torsions:
REMARK  status: ('A' for Active; 'I' for Inactive)
REMARK    1  A    between atoms: N_3  and  S_1 
REMARK    2  A    between atoms: C_8  and  S_1 
REMARK    3  A    between atoms: C_2  and  N_3 
ROOT
ATOM      1  S   UNL d   1     -54.866-101.473 -41.690  0.00  0.00     0.287 S 
ATOM      2  O   UNL d   1     -55.020-102.199 -42.052  0.00  0.00    -0.198 OA
ATOM      3  O   UNL d   1     -54.713-100.750 -41.318  0.00  0.00    -0.198 OA
ENDROOT
BRANCH   1   4
ATOM      4  N   UNL d   1     -54.718-101.131 -42.427  0.00  0.00    -0.131 NA
BRANCH   4   5
ATOM      5  C   UNL d   1     -54.969-101.277 -43.201  0.00  0.00     0.219 A 
ATOM      6  C   UNL d   1     -55.068-100.710 -43.791  0.00  0.00     0.064 A 
ATOM      7  C   UNL d   1     -55.326-101.100 -44.475  0.00  0.00     0.112 A 
ATOM      8  C   UNL d   1     -54.933 -99.895 -43.716  0.00  0.00     0.005 C 
ATOM      9  C   UNL d   1     -55.494-100.741 -45.202  0.00  0.00     0.023 C 
ATOM     10  N   UNL d   1     -55.385-101.906 -44.302  0.00  0.00    -0.125 NA
ATOM     11  O   UNL d   1     -55.164-102.017 -43.511  0.00  0.00    -0.191 OA
ENDBRANCH   4   5
ENDBRANCH   1   4
BRANCH   1  12
ATOM     12  C   UNL d   1     -55.014-101.815 -40.952  0.00  0.00     0.105 A 
ATOM     13  C   UNL d   1     -54.789-101.422 -40.262  0.00  0.00     0.015 A 
ATOM     14  C   UNL d   1     -54.935-101.759 -39.534  0.00  0.00     0.022 A 
ATOM     15  C   UNL d   1     -55.302-102.484 -39.481  0.00  0.00     0.103 A 
ATOM     16  C   UNL d   1     -55.527-102.878 -40.167  0.00  0.00     0.022 A 
ATOM     17  N   UNL d   1     -55.450-102.825 -38.744  0.00  0.00    -0.148 N 
ATOM     18  C   UNL d   1     -55.381-102.539 -40.898  0.00  0.00     0.015 A 
ENDBRANCH   1  12
TORSDOF 3
ENDMDL
