MODEL 1
REMARK VINA RESULT:      -8.3      0.000      0.000
REMARK  5 active torsions:
REMARK  status: ('A' for Active; 'I' for Inactive)
REMARK    1  A    between atoms: S_13  and  C_7 
REMARK    2  A    between atoms: C_22  and  C_10 
REMARK    3  A    between atoms: C_11  and  C_16 
REMARK       I    between atoms: N_12  and  C_11 
REMARK    4  A    between atoms: C_16  and  S_13 
REMARK    5  A    between atoms: C_23  and  C_22 
ROOT
ATOM      1  N   UNL d   1      53.593  34.765  54.617  0.00  0.00    -0.224 N 
ATOM      2  N   UNL d   1      54.139  33.463  54.355  0.00  0.00    -0.241 N 
ATOM      3  C   UNL d   1      54.202  34.203  54.711  0.00  0.00     0.343 A 
ATOM      4  C   UNL d   1      53.467  33.285  53.907  0.00  0.00     0.160 A 
ATOM      5  C   UNL d   1      52.928  34.580  54.169  0.00  0.00     0.273 A 
ATOM      6  C   UNL d   1      52.864  33.841  53.814  0.00  0.00     0.115 A 
ATOM      7  C   UNL d   1      52.199  33.656  53.365  0.00  0.00     0.120 A 
ATOM      8  N   UNL d   1      53.400  32.539  53.547  0.00  0.00    -0.209 NA
ATOM      9  N   UNL d   1      52.133  32.919  53.010  0.00  0.00    -0.220 NA
ATOM     10  C   UNL d   1      52.734  32.355  53.099  0.00  0.00     0.165 A 
ATOM     11  O   UNL d   1      54.870  34.389  55.161  0.00  0.00    -0.245 OA
ATOM     12  O   UNL d   1      52.328  35.139  54.079  0.00  0.00    -0.266 OA
ATOM     13  C   UNL d   1      53.663  35.499  54.973  0.00  0.00     0.107 C 
ATOM     14  C   UNL d   1      54.741  32.907  54.448  0.00  0.00     0.105 C 
ENDROOT
BRANCH   7  15
ATOM     15  S   UNL d   1      51.599  34.214  53.275  0.00  0.00    -0.062 SA
BRANCH  15  16
ATOM     16  C   UNL d   1      50.956  34.054  52.783  0.00  0.00     0.098 C 
BRANCH  16  17
ATOM     17  C   UNL d   1      50.255  34.478  52.866  0.00  0.00     0.271 C 
ATOM     18  N   UNL d   1      49.742  34.556  52.218  0.00  0.00    -0.272 N 
ATOM     19  C   UNL d   1      49.033  35.017  52.400  0.00  0.00     0.083 A 
ATOM     20  C   UNL d   1      49.983  34.220  51.606  0.00  0.00     0.083 A 
ATOM     21  C   UNL d   1      48.452  35.222  52.021  0.00  0.00     0.019 A 
ATOM     22  C   UNL d   1      48.288  35.051  51.215  0.00  0.00     0.002 A 
ATOM     23  C   UNL d   1      48.804  34.582  50.672  0.00  0.00     0.002 A 
ATOM     24  C   UNL d   1      49.588  34.197  50.852  0.00  0.00     0.019 A 
ATOM     25  O   UNL d   1      50.061  34.824  53.589  0.00  0.00    -0.266 OA
ENDBRANCH  16  17
ENDBRANCH  15  16
ENDBRANCH   7  15
BRANCH  10  26
ATOM     26  C   UNL d   1      52.666  31.615  52.741  0.00  0.00     0.039 C 
BRANCH  26  27
ATOM     27  C   UNL d   1      52.678  30.930  53.207  0.00  0.00     0.003 C 
ATOM     28  C   UNL d   1      52.693  30.191  52.859  0.00  0.00     0.000 C 
ENDBRANCH  26  27
ENDBRANCH  10  26
TORSDOF 5
ENDMDL
MODEL 2
REMARK VINA RESULT:      -8.3      1.240      2.674
REMARK  5 active torsions:
REMARK  status: ('A' for Active; 'I' for Inactive)
REMARK    1  A    between atoms: S_13  and  C_7 
REMARK    2  A    between atoms: C_22  and  C_10 
REMARK    3  A    between atoms: C_11  and  C_16 
REMARK       I    between atoms: N_12  and  C_11 
REMARK    4  A    between atoms: C_16  and  S_13 
REMARK    5  A    between atoms: C_23  and  C_22 
ROOT
ATOM      1  N   UNL d   1      52.784  31.796  53.136  0.00  0.00    -0.224 N 
ATOM      2  N   UNL d   1      53.696  32.653  53.838  0.00  0.00    -0.241 N 
ATOM      3  C   UNL d   1      53.486  31.902  53.572  0.00  0.00     0.343 A 
ATOM      4  C   UNL d   1      53.204  33.296  53.669  0.00  0.00     0.160 A 
ATOM      5  C   UNL d   1      52.299  32.441  52.971  0.00  0.00     0.273 A 
ATOM      6  C   UNL d   1      52.509  33.190  53.238  0.00  0.00     0.115 A 
ATOM      7  C   UNL d   1      52.025  33.835  53.073  0.00  0.00     0.120 A 
ATOM      8  N   UNL d   1      53.413  34.054  53.936  0.00  0.00    -0.209 NA
ATOM      9  N   UNL d   1      52.231  34.584  53.337  0.00  0.00    -0.220 NA
ATOM     10  C   UNL d   1      52.928  34.698  53.771  0.00  0.00     0.165 A 
ATOM     11  O   UNL d   1      53.972  31.254  53.737  0.00  0.00    -0.245 OA
ATOM     12  O   UNL d   1      51.605  32.330  52.539  0.00  0.00    -0.266 OA
ATOM     13  C   UNL d   1      52.580  31.047  52.874  0.00  0.00     0.107 C 
ATOM     14  C   UNL d   1      54.391  32.758  54.270  0.00  0.00     0.105 C 
ENDROOT
BRANCH   7  15
ATOM     15  S   UNL d   1      51.330  33.726  52.641  0.00  0.00    -0.062 SA
BRANCH  15  16
ATOM     16  C   UNL d   1      50.723  34.283  52.686  0.00  0.00     0.098 C 
BRANCH  16  17
ATOM     17  C   UNL d   1      50.177  34.351  52.075  0.00  0.00     0.271 C 
ATOM     18  N   UNL d   1      49.469  34.765  52.199  0.00  0.00    -0.272 N 
ATOM     19  C   UNL d   1      48.958  34.783  51.501  0.00  0.00     0.083 A 
ATOM     20  C   UNL d   1      49.402  35.041  52.881  0.00  0.00     0.083 A 
ATOM     21  C   UNL d   1      48.310  35.069  51.355  0.00  0.00     0.019 A 
ATOM     22  C   UNL d   1      47.822  35.510  51.879  0.00  0.00     0.002 A 
ATOM     23  C   UNL d   1      48.015  35.707  52.719  0.00  0.00     0.002 A 
ATOM     24  C   UNL d   1      48.745  35.491  53.184  0.00  0.00     0.019 A 
ATOM     25  O   UNL d   1      50.331  34.010  51.339  0.00  0.00    -0.266 OA
ENDBRANCH  16  17
ENDBRANCH  15  16
ENDBRANCH   7  15
BRANCH  10  26
ATOM     26  C   UNL d   1      53.135  35.452  54.036  0.00  0.00     0.039 C 
BRANCH  26  27
ATOM     27  C   UNL d   1      52.865  35.717  54.773  0.00  0.00     0.003 C 
ATOM     28  C   UNL d   1      53.050  36.467  55.038  0.00  0.00     0.000 C 
ENDBRANCH  26  27
ENDBRANCH  10  26
TORSDOF 5
ENDMDL
MODEL 3
REMARK VINA RESULT:      -6.9      1.753      4.713
REMARK  5 active torsions:
REMARK  status: ('A' for Active; 'I' for Inactive)
REMARK    1  A    between atoms: S_13  and  C_7 
REMARK    2  A    between atoms: C_22  and  C_10 
REMARK    3  A    between atoms: C_11  and  C_16 
REMARK       I    between atoms: N_12  and  C_11 
REMARK    4  A    between atoms: C_16  and  S_13 
REMARK    5  A    between atoms: C_23  and  C_22 
ROOT
ATOM      1  N   UNL d   1      51.245  33.914  53.084  0.00  0.00    -0.224 N 
ATOM      2  N   UNL d   1      52.197  34.808  53.681  0.00  0.00    -0.241 N 
ATOM      3  C   UNL d   1      51.448  34.672  53.367  0.00  0.00     0.343 A 
ATOM      4  C   UNL d   1      52.743  34.187  53.712  0.00  0.00     0.160 A 
ATOM      5  C   UNL d   1      51.794  33.301  53.119  0.00  0.00     0.273 A 
ATOM      6  C   UNL d   1      52.542  33.437  53.432  0.00  0.00     0.115 A 
ATOM      7  C   UNL d   1      53.090  32.824  53.467  0.00  0.00     0.120 A 
ATOM      8  N   UNL d   1      53.499  34.321  54.028  0.00  0.00    -0.209 NA
ATOM      9  N   UNL d   1      53.838  32.956  53.779  0.00  0.00    -0.220 NA
ATOM     10  C   UNL d   1      54.047  33.707  54.062  0.00  0.00     0.165 A 
ATOM     11  O   UNL d   1      50.897  35.287  53.332  0.00  0.00    -0.245 OA
ATOM     12  O   UNL d   1      51.588  32.553  52.838  0.00  0.00    -0.266 OA
ATOM     13  C   UNL d   1      50.499  33.786  52.773  0.00  0.00     0.107 C 
ATOM     14  C   UNL d   1      52.398  35.558  53.960  0.00  0.00     0.105 C 
ENDROOT
BRANCH   7  15
ATOM     15  S   UNL d   1      52.886  32.076  53.187  0.00  0.00    -0.062 SA
BRANCH  15  16
ATOM     16  C   UNL d   1      53.271  31.406  53.476  0.00  0.00     0.098 C 
BRANCH  16  17
ATOM     17  C   UNL d   1      53.073  30.659  53.194  0.00  0.00     0.271 C 
ATOM     18  N   UNL d   1      53.155  29.997  53.686  0.00  0.00    -0.272 N 
ATOM     19  C   UNL d   1      52.922  29.257  53.303  0.00  0.00     0.083 A 
ATOM     20  C   UNL d   1      53.410  30.158  54.361  0.00  0.00     0.083 A 
ATOM     21  C   UNL d   1      52.902  28.564  53.511  0.00  0.00     0.019 A 
ATOM     22  C   UNL d   1      53.120  28.254  54.261  0.00  0.00     0.002 A 
ATOM     23  C   UNL d   1      53.420  28.726  54.946  0.00  0.00     0.002 A 
ATOM     24  C   UNL d   1      53.555  29.607  54.993  0.00  0.00     0.019 A 
ATOM     25  O   UNL d   1      52.793  30.567  52.423  0.00  0.00    -0.266 OA
ENDBRANCH  16  17
ENDBRANCH  15  16
ENDBRANCH   7  15
BRANCH  10  26
ATOM     26  C   UNL d   1      54.799  33.839  54.376  0.00  0.00     0.039 C 
BRANCH  26  27
ATOM     27  C   UNL d   1      54.953  33.648  55.167  0.00  0.00     0.003 C 
ATOM     28  C   UNL d   1      55.612  33.948  55.546  0.00  0.00     0.000 C 
ENDBRANCH  26  27
ENDBRANCH  10  26
TORSDOF 5
ENDMDL
MODEL 4
REMARK VINA RESULT:      -6.8      1.675      4.489
REMARK  5 active torsions:
REMARK  status: ('A' for Active; 'I' for Inactive)
REMARK    1  A    between atoms: S_13  and  C_7 
REMARK    2  A    between atoms: C_22  and  C_10 
REMARK    3  A    between atoms: C_11  and  C_16 
REMARK       I    between atoms: N_12  and  C_11 
REMARK    4  A    between atoms: C_16  and  S_13 
REMARK    5  A    between atoms: C_23  and  C_22 
ROOT
ATOM      1  N   UNL d   1      54.332  33.903  54.635  0.00  0.00    -0.224 N 
ATOM      2  N   UNL d   1      53.194  34.756  54.440  0.00  0.00    -0.241 N 
ATOM      3  C   UNL d   1      53.949  34.636  54.745  0.00  0.00     0.343 A 
ATOM      4  C   UNL d   1      52.821  34.145  54.025  0.00  0.00     0.160 A 
ATOM      5  C   UNL d   1      53.954  33.299  54.221  0.00  0.00     0.273 A 
ATOM      6  C   UNL d   1      53.200  33.420  53.916  0.00  0.00     0.115 A 
ATOM      7  C   UNL d   1      52.822  32.816  53.503  0.00  0.00     0.120 A 
ATOM      8  N   UNL d   1      52.059  34.264  53.716  0.00  0.00    -0.209 NA
ATOM      9  N   UNL d   1      52.069  32.934  53.197  0.00  0.00    -0.220 NA
ATOM     10  C   UNL d   1      51.683  33.660  53.303  0.00  0.00     0.165 A 
ATOM     11  O   UNL d   1      54.329  35.240  55.160  0.00  0.00    -0.245 OA
ATOM     12  O   UNL d   1      54.336  32.576  54.115  0.00  0.00    -0.266 OA
ATOM     13  C   UNL d   1      55.083  33.789  54.940  0.00  0.00     0.107 C 
ATOM     14  C   UNL d   1      52.816  35.481  54.549  0.00  0.00     0.105 C 
ENDROOT
BRANCH   7  15
ATOM     15  S   UNL d   1      53.204  32.093  53.396  0.00  0.00    -0.062 SA
BRANCH  15  16
ATOM     16  C   UNL d   1      52.818  31.389  53.589  0.00  0.00     0.098 C 
BRANCH  16  17
ATOM     17  C   UNL d   1      53.105  30.669  53.313  0.00  0.00     0.271 C 
ATOM     18  N   UNL d   1      53.181  30.029  53.834  0.00  0.00    -0.272 N 
ATOM     19  C   UNL d   1      53.491  29.316  53.455  0.00  0.00     0.083 A 
ATOM     20  C   UNL d   1      52.971  30.182  54.526  0.00  0.00     0.083 A 
ATOM     21  C   UNL d   1      53.644  28.647  53.683  0.00  0.00     0.019 A 
ATOM     22  C   UNL d   1      53.554  28.346  54.463  0.00  0.00     0.002 A 
ATOM     23  C   UNL d   1      53.251  28.798  55.158  0.00  0.00     0.002 A 
ATOM     24  C   UNL d   1      52.980  29.648  55.189  0.00  0.00     0.019 A 
ATOM     25  O   UNL d   1      53.318  30.583  52.520  0.00  0.00    -0.266 OA
ENDBRANCH  16  17
ENDBRANCH  15  16
ENDBRANCH   7  15
BRANCH  10  26
ATOM     26  C   UNL d   1      50.926  33.776  52.995  0.00  0.00     0.039 C 
BRANCH  26  27
ATOM     27  C   UNL d   1      50.835  34.122  52.249  0.00  0.00     0.003 C 
ATOM     28  C   UNL d   1      50.091  34.302  51.962  0.00  0.00     0.000 C 
ENDBRANCH  26  27
ENDBRANCH  10  26
TORSDOF 5
ENDMDL
MODEL 5
REMARK VINA RESULT:      -6.1     10.072     11.203
REMARK  5 active torsions:
REMARK  status: ('A' for Active; 'I' for Inactive)
REMARK    1  A    between atoms: S_13  and  C_7 
REMARK    2  A    between atoms: C_22  and  C_10 
REMARK    3  A    between atoms: C_11  and  C_16 
REMARK       I    between atoms: N_12  and  C_11 
REMARK    4  A    between atoms: C_16  and  S_13 
REMARK    5  A    between atoms: C_23  and  C_22 
ROOT
ATOM      1  N   UNL d   1      44.981  27.754  58.012  0.00  0.00    -0.224 N 
ATOM      2  N   UNL d   1      44.956  28.781  57.008  0.00  0.00    -0.241 N 
ATOM      3  C   UNL d   1      45.065  27.991  57.217  0.00  0.00     0.343 A 
ATOM      4  C   UNL d   1      44.763  29.332  57.594  0.00  0.00     0.160 A 
ATOM      5  C   UNL d   1      44.788  28.310  58.589  0.00  0.00     0.273 A 
ATOM      6  C   UNL d   1      44.680  29.098  58.380  0.00  0.00     0.115 A 
ATOM      7  C   UNL d   1      44.488  29.653  58.958  0.00  0.00     0.120 A 
ATOM      8  N   UNL d   1      44.653  30.129  57.386  0.00  0.00    -0.209 NA
ATOM      9  N   UNL d   1      44.379  30.440  58.753  0.00  0.00    -0.220 NA
ATOM     10  C   UNL d   1      44.461  30.683  57.964  0.00  0.00     0.165 A 
ATOM     11  O   UNL d   1      45.258  27.433  56.639  0.00  0.00    -0.245 OA
ATOM     12  O   UNL d   1      44.706  28.070  59.375  0.00  0.00    -0.266 OA
ATOM     13  C   UNL d   1      45.090  26.969  58.213  0.00  0.00     0.107 C 
ATOM     14  C   UNL d   1      45.039  29.015  56.222  0.00  0.00     0.105 C 
ENDROOT
BRANCH   7  15
ATOM     15  S   UNL d   1      44.405  29.415  59.743  0.00  0.00    -0.062 SA
BRANCH  15  16
ATOM     16  C   UNL d   1      44.373  29.978  60.345  0.00  0.00     0.098 C 
BRANCH  16  17
ATOM     17  C   UNL d   1      44.364  29.743  61.133  0.00  0.00     0.271 C 
ATOM     18  N   UNL d   1      44.348  30.315  61.734  0.00  0.00    -0.272 N 
ATOM     19  C   UNL d   1      44.341  29.973  62.529  0.00  0.00     0.083 A 
ATOM     20  C   UNL d   1      44.343  31.009  61.483  0.00  0.00     0.083 A 
ATOM     21  C   UNL d   1      44.327  30.248  63.197  0.00  0.00     0.019 A 
ATOM     22  C   UNL d   1      44.314  31.061  63.410  0.00  0.00     0.002 A 
ATOM     23  C   UNL d   1      44.314  31.742  62.846  0.00  0.00     0.002 A 
ATOM     24  C   UNL d   1      44.328  31.719  61.954  0.00  0.00     0.019 A 
ATOM     25  O   UNL d   1      44.371  28.941  61.328  0.00  0.00    -0.266 OA
ENDBRANCH  16  17
ENDBRANCH  15  16
ENDBRANCH   7  15
BRANCH  10  26
ATOM     26  C   UNL d   1      44.351  31.475  57.760  0.00  0.00     0.039 C 
BRANCH  26  27
ATOM     27  C   UNL d   1      44.955  31.887  57.372  0.00  0.00     0.003 C 
ATOM     28  C   UNL d   1      44.788  32.557  56.936  0.00  0.00     0.000 C 
ENDBRANCH  26  27
ENDBRANCH  10  26
TORSDOF 5
ENDMDL
MODEL 6
REMARK VINA RESULT:      -6.1     10.605     11.705
REMARK  5 active torsions:
REMARK  status: ('A' for Active; 'I' for Inactive)
REMARK    1  A    between atoms: S_13  and  C_7 
REMARK    2  A    between atoms: C_22  and  C_10 
REMARK    3  A    between atoms: C_11  and  C_16 
REMARK       I    between atoms: N_12  and  C_11 
REMARK    4  A    between atoms: C_16  and  S_13 
REMARK    5  A    between atoms: C_23  and  C_22 
ROOT
ATOM      1  N   UNL d   1      44.669  25.273  58.068  0.00  0.00    -0.224 N 
ATOM      2  N   UNL d   1      44.537  25.871  56.769  0.00  0.00    -0.241 N 
ATOM      3  C   UNL d   1      44.618  25.199  57.239  0.00  0.00     0.343 A 
ATOM      4  C   UNL d   1      44.507  26.615  57.128  0.00  0.00     0.160 A 
ATOM      5  C   UNL d   1      44.639  26.018  58.418  0.00  0.00     0.273 A 
ATOM      6  C   UNL d   1      44.558  26.689  57.948  0.00  0.00     0.115 A 
ATOM      7  C   UNL d   1      44.528  27.434  58.298  0.00  0.00     0.120 A 
ATOM      8  N   UNL d   1      44.425  27.295  56.657  0.00  0.00    -0.209 NA
ATOM      9  N   UNL d   1      44.447  28.105  57.833  0.00  0.00    -0.220 NA
ATOM     10  C   UNL d   1      44.395  28.039  57.008  0.00  0.00     0.165 A 
ATOM     11  O   UNL d   1      44.649  24.451  56.889  0.00  0.00    -0.245 OA
ATOM     12  O   UNL d   1      44.690  26.086  59.238  0.00  0.00    -0.266 OA
ATOM     13  C   UNL d   1      44.750  24.602  58.529  0.00  0.00     0.107 C 
ATOM     14  C   UNL d   1      44.486  25.797  55.949  0.00  0.00     0.105 C 
ENDROOT
BRANCH   7  15
ATOM     15  S   UNL d   1      44.579  27.503  59.119  0.00  0.00    -0.062 SA
BRANCH  15  16
ATOM     16  C   UNL d   1      44.636  28.248  59.468  0.00  0.00     0.098 C 
BRANCH  16  17
ATOM     17  C   UNL d   1      44.511  28.338  60.276  0.00  0.00     0.271 C 
ATOM     18  N   UNL d   1      44.537  29.094  60.616  0.00  0.00    -0.272 N 
ATOM     19  C   UNL d   1      44.394  29.089  61.469  0.00  0.00     0.083 A 
ATOM     20  C   UNL d   1      44.676  29.633  60.130  0.00  0.00     0.083 A 
ATOM     21  C   UNL d   1      44.365  29.600  61.980  0.00  0.00     0.019 A 
ATOM     22  C   UNL d   1      44.472  30.427  61.875  0.00  0.00     0.002 A 
ATOM     23  C   UNL d   1      44.644  30.832  61.109  0.00  0.00     0.002 A 
ATOM     24  C   UNL d   1      44.739  30.465  60.300  0.00  0.00     0.019 A 
ATOM     25  O   UNL d   1      44.360  27.679  60.749  0.00  0.00    -0.266 OA
ENDBRANCH  16  17
ENDBRANCH  15  16
ENDBRANCH   7  15
BRANCH  10  26
ATOM     26  C   UNL d   1      44.314  28.715  56.541  0.00  0.00     0.039 C 
BRANCH  26  27
ATOM     27  C   UNL d   1      44.938  29.257  56.491  0.00  0.00     0.003 C 
ATOM     28  C   UNL d   1      44.881  29.913  56.008  0.00  0.00     0.000 C 
ENDBRANCH  26  27
ENDBRANCH  10  26
TORSDOF 5
ENDMDL
MODEL 7
REMARK VINA RESULT:      -5.8     10.678     11.200
REMARK  5 active torsions:
REMARK  status: ('A' for Active; 'I' for Inactive)
REMARK    1  A    between atoms: S_13  and  C_7 
REMARK    2  A    between atoms: C_22  and  C_10 
REMARK    3  A    between atoms: C_11  and  C_16 
REMARK       I    between atoms: N_12  and  C_11 
REMARK    4  A    between atoms: C_16  and  S_13 
REMARK    5  A    between atoms: C_23  and  C_22 
ROOT
ATOM      1  N   UNL d   1      44.648  29.761  62.611  0.00  0.00    -0.224 N 
ATOM      2  N   UNL d   1      44.568  28.331  62.525  0.00  0.00    -0.241 N 
ATOM      3  C   UNL d   1      44.636  29.013  62.980  0.00  0.00     0.343 A 
ATOM      4  C   UNL d   1      44.511  28.395  61.702  0.00  0.00     0.160 A 
ATOM      5  C   UNL d   1      44.591  29.817  61.791  0.00  0.00     0.273 A 
ATOM      6  C   UNL d   1      44.522  29.135  61.337  0.00  0.00     0.115 A 
ATOM      7  C   UNL d   1      44.465  29.191  60.517  0.00  0.00     0.120 A 
ATOM      8  N   UNL d   1      44.441  27.708  61.240  0.00  0.00    -0.209 NA
ATOM      9  N   UNL d   1      44.397  28.512  60.061  0.00  0.00    -0.220 NA
ATOM     10  C   UNL d   1      44.384  27.765  60.421  0.00  0.00     0.165 A 
ATOM     11  O   UNL d   1      44.694  28.958  63.802  0.00  0.00    -0.245 OA
ATOM     12  O   UNL d   1      44.604  30.559  61.431  0.00  0.00    -0.266 OA
ATOM     13  C   UNL d   1      44.717  30.436  63.069  0.00  0.00     0.107 C 
ATOM     14  C   UNL d   1      44.556  27.591  62.889  0.00  0.00     0.105 C 
ENDROOT
BRANCH   7  15
ATOM     15  S   UNL d   1      44.478  29.933  60.156  0.00  0.00    -0.062 SA
BRANCH  15  16
ATOM     16  C   UNL d   1      44.638  29.997  59.349  0.00  0.00     0.098 C 
BRANCH  16  17
ATOM     17  C   UNL d   1      44.624  30.733  58.981  0.00  0.00     0.271 C 
ATOM     18  N   UNL d   1      44.578  30.780  58.155  0.00  0.00    -0.272 N 
ATOM     19  C   UNL d   1      44.570  31.593  57.860  0.00  0.00     0.083 A 
ATOM     20  C   UNL d   1      44.553  30.121  57.821  0.00  0.00     0.083 A 
ATOM     21  C   UNL d   1      44.536  31.892  57.202  0.00  0.00     0.019 A 
ATOM     22  C   UNL d   1      44.490  31.490  56.465  0.00  0.00     0.002 A 
ATOM     23  C   UNL d   1      44.475  30.614  56.356  0.00  0.00     0.002 A 
ATOM     24  C   UNL d   1      44.504  29.979  56.983  0.00  0.00     0.019 A 
ATOM     25  O   UNL d   1      44.657  31.424  59.432  0.00  0.00    -0.266 OA
ENDBRANCH  16  17
ENDBRANCH  15  16
ENDBRANCH   7  15
BRANCH  10  26
ATOM     26  C   UNL d   1      44.315  27.084  59.961  0.00  0.00     0.039 C 
BRANCH  26  27
ATOM     27  C   UNL d   1      44.902  26.901  59.406  0.00  0.00     0.003 C 
ATOM     28  C   UNL d   1      44.854  26.219  58.959  0.00  0.00     0.000 C 
ENDBRANCH  26  27
ENDBRANCH  10  26
TORSDOF 5
ENDMDL
MODEL 8
REMARK VINA RESULT:      -5.7     10.873     12.281
REMARK  5 active torsions:
REMARK  status: ('A' for Active; 'I' for Inactive)
REMARK    1  A    between atoms: S_13  and  C_7 
REMARK    2  A    between atoms: C_22  and  C_10 
REMARK    3  A    between atoms: C_11  and  C_16 
REMARK       I    between atoms: N_12  and  C_11 
REMARK    4  A    between atoms: C_16  and  S_13 
REMARK    5  A    between atoms: C_23  and  C_22 
ROOT
ATOM      1  N   UNL d   1      44.945  27.226  57.230  0.00  0.00    -0.224 N 
ATOM      2  N   UNL d   1      44.783  26.575  58.499  0.00  0.00    -0.241 N 
ATOM      3  C   UNL d   1      44.915  27.261  58.063  0.00  0.00     0.343 A 
ATOM      4  C   UNL d   1      44.682  25.856  58.104  0.00  0.00     0.160 A 
ATOM      5  C   UNL d   1      44.843  26.506  56.844  0.00  0.00     0.273 A 
ATOM      6  C   UNL d   1      44.711  25.821  57.280  0.00  0.00     0.115 A 
ATOM      7  C   UNL d   1      44.609  25.101  56.894  0.00  0.00     0.120 A 
ATOM      8  N   UNL d   1      44.548  25.162  58.542  0.00  0.00    -0.209 NA
ATOM      9  N   UNL d   1      44.478  24.417  57.326  0.00  0.00    -0.220 NA
ATOM     10  C   UNL d   1      44.446  24.443  58.154  0.00  0.00     0.165 A 
ATOM     11  O   UNL d   1      45.018  27.984  58.449  0.00  0.00    -0.245 OA
ATOM     12  O   UNL d   1      44.874  26.477  56.020  0.00  0.00    -0.266 OA
ATOM     13  C   UNL d   1      45.076  27.911  56.802  0.00  0.00     0.107 C 
ATOM     14  C   UNL d   1      44.753  26.610  59.323  0.00  0.00     0.105 C 
ENDROOT
BRANCH   7  15
ATOM     15  S   UNL d   1      44.640  25.071  56.070  0.00  0.00    -0.062 SA
BRANCH  15  16
ATOM     16  C   UNL d   1      44.719  24.345  55.685  0.00  0.00     0.098 C 
BRANCH  16  17
ATOM     17  C   UNL d   1      44.631  24.297  54.869  0.00  0.00     0.271 C 
ATOM     18  N   UNL d   1      44.863  23.608  54.470  0.00  0.00    -0.272 N 
ATOM     19  C   UNL d   1      44.734  23.650  53.615  0.00  0.00     0.083 A 
ATOM     20  C   UNL d   1      45.137  23.085  54.913  0.00  0.00     0.083 A 
ATOM     21  C   UNL d   1      44.848  23.197  53.063  0.00  0.00     0.019 A 
ATOM     22  C   UNL d   1      45.173  22.423  53.103  0.00  0.00     0.002 A 
ATOM     23  C   UNL d   1      45.439  22.013  53.840  0.00  0.00     0.002 A 
ATOM     24  C   UNL d   1      45.423  22.318  54.678  0.00  0.00     0.019 A 
ATOM     25  O   UNL d   1      44.314  24.931  54.447  0.00  0.00    -0.266 OA
ENDBRANCH  16  17
ENDBRANCH  15  16
ENDBRANCH   7  15
BRANCH  10  26
ATOM     26  C   UNL d   1      44.314  23.753  58.588  0.00  0.00     0.039 C 
BRANCH  26  27
ATOM     27  C   UNL d   1      44.924  23.200  58.676  0.00  0.00     0.003 C 
ATOM     28  C   UNL d   1      44.776  22.468  59.007  0.00  0.00     0.000 C 
ENDBRANCH  26  27
ENDBRANCH  10  26
TORSDOF 5
ENDMDL
MODEL 9
REMARK VINA RESULT:      -5.4     10.485     11.457
REMARK  5 active torsions:
REMARK  status: ('A' for Active; 'I' for Inactive)
REMARK    1  A    between atoms: S_13  and  C_7 
REMARK    2  A    between atoms: C_22  and  C_10 
REMARK    3  A    between atoms: C_11  and  C_16 
REMARK       I    between atoms: N_12  and  C_11 
REMARK    4  A    between atoms: C_16  and  S_13 
REMARK    5  A    between atoms: C_23  and  C_22 
ROOT
ATOM      1  N   UNL d   1      44.674  29.882  62.072  0.00  0.00    -0.224 N 
ATOM      2  N   UNL d   1      44.473  31.089  61.321  0.00  0.00    -0.241 N 
ATOM      3  C   UNL d   1      44.566  30.709  62.045  0.00  0.00     0.343 A 
ATOM      4  C   UNL d   1      44.487  30.644  60.624  0.00  0.00     0.160 A 
ATOM      5  C   UNL d   1      44.687  29.446  61.374  0.00  0.00     0.273 A 
ATOM      6  C   UNL d   1      44.594  29.826  60.650  0.00  0.00     0.115 A 
ATOM      7  C   UNL d   1      44.607  29.390  59.952  0.00  0.00     0.120 A 
ATOM      8  N   UNL d   1      44.394  31.025  59.891  0.00  0.00    -0.209 NA
ATOM      9  N   UNL d   1      44.515  29.766  59.229  0.00  0.00    -0.220 NA
ATOM     10  C   UNL d   1      44.407  30.587  59.194  0.00  0.00     0.165 A 
ATOM     11  O   UNL d   1      44.552  31.146  62.746  0.00  0.00    -0.245 OA
ATOM     12  O   UNL d   1      44.794  28.629  61.405  0.00  0.00    -0.266 OA
ATOM     13  C   UNL d   1      44.766  29.510  62.795  0.00  0.00     0.107 C 
ATOM     14  C   UNL d   1      44.366  31.907  61.294  0.00  0.00     0.105 C 
ENDROOT
BRANCH   7  15
ATOM     15  S   UNL d   1      44.714  28.572  59.982  0.00  0.00    -0.062 SA
BRANCH  15  16
ATOM     16  C   UNL d   1      44.750  28.134  59.284  0.00  0.00     0.098 C 
BRANCH  16  17
ATOM     17  C   UNL d   1      44.702  27.313  59.308  0.00  0.00     0.271 C 
ATOM     18  N   UNL d   1      44.724  26.879  58.601  0.00  0.00    -0.272 N 
ATOM     19  C   UNL d   1      44.666  26.024  58.725  0.00  0.00     0.083 A 
ATOM     20  C   UNL d   1      44.788  27.298  57.997  0.00  0.00     0.083 A 
ATOM     21  C   UNL d   1      44.663  25.449  58.287  0.00  0.00     0.019 A 
ATOM     22  C   UNL d   1      44.719  25.450  57.449  0.00  0.00     0.002 A 
ATOM     23  C   UNL d   1      44.794  26.168  56.939  0.00  0.00     0.002 A 
ATOM     24  C   UNL d   1      44.826  27.024  57.191  0.00  0.00     0.019 A 
ATOM     25  O   UNL d   1      44.631  26.921  60.030  0.00  0.00    -0.266 OA
ENDBRANCH  16  17
ENDBRANCH  15  16
ENDBRANCH   7  15
BRANCH  10  26
ATOM     26  C   UNL d   1      44.314  30.964  58.466  0.00  0.00     0.039 C 
BRANCH  26  27
ATOM     27  C   UNL d   1      44.885  31.506  58.208  0.00  0.00     0.003 C 
ATOM     28  C   UNL d   1      45.026  31.612  57.410  0.00  0.00     0.000 C 
ENDBRANCH  26  27
ENDBRANCH  10  26
TORSDOF 5
ENDMDL
