MODEL 1
REMARK VINA RESULT:       0.5      0.000      0.000
REMARK  4 active torsions:
REMARK  status: ('A' for Active; 'I' for Inactive)
REMARK    1  A    between atoms: S_5  and  C_2 
REMARK    2  A    between atoms: C_16  and  S_5 
REMARK    3  A    between atoms: N_11  and  C_8 
REMARK    4  A    between atoms: C_12  and  N_11 
ROOT
ATOM      1  C   UNL d   1      33.054  20.964 -21.370  0.00  0.00     0.197 A 
ATOM      2  C   UNL d   1      33.007  20.150 -21.521  0.00  0.00     0.227 A 
ATOM      3  N   UNL d   1      33.076  21.067 -20.549  0.00  0.00    -0.192 N 
ATOM      4  N   UNL d   1      33.080  21.621 -21.868  0.00  0.00    -0.206 NA
ATOM      5  N   UNL d   1      32.999  19.753 -20.796  0.00  0.00    -0.115 NA
ATOM      6  N   UNL d   1      33.042  20.319 -20.192  0.00  0.00    -0.058 NA
ATOM      7  C   UNL d   1      33.128  22.385 -21.548  0.00  0.00     0.166 A 
ATOM      8  C   UNL d   1      33.150  22.481 -20.729  0.00  0.00     0.054 A 
ATOM      9  C   UNL d   1      33.124  21.829 -20.225  0.00  0.00     0.089 A 
ATOM     10  C   UNL d   1      33.198  23.244 -20.404  0.00  0.00     0.005 A 
ATOM     11  C   UNL d   1      33.146  21.930 -19.408  0.00  0.00     0.019 A 
ATOM     12  C   UNL d   1      33.220  23.344 -19.587  0.00  0.00     0.000 A 
ATOM     13  C   UNL d   1      33.194  22.687 -19.089  0.00  0.00     0.002 A 
ENDROOT
BRANCH   2  14
ATOM     14  S   UNL d   1      32.973  19.800 -22.268  0.00  0.00     0.231 S 
ATOM     15  O   UNL d   1      33.240  20.489 -22.628  0.00  0.00    -0.215 OA
ATOM     16  O   UNL d   1      32.706  19.111 -21.904  0.00  0.00    -0.215 OA
BRANCH  14  17
ATOM     17  C   UNL d   1      32.925  19.415 -22.991  0.00  0.00     0.090 A 
ATOM     18  C   UNL d   1      32.569  18.670 -23.034  0.00  0.00     0.011 A 
ATOM     19  C   UNL d   1      32.519  18.283 -23.752  0.00  0.00     0.001 A 
ATOM     20  C   UNL d   1      32.823  18.634 -24.436  0.00  0.00     0.000 A 
ATOM     21  C   UNL d   1      33.179  19.380 -24.389  0.00  0.00     0.001 A 
ATOM     22  C   UNL d   1      33.227  19.764 -23.671  0.00  0.00     0.011 A 
ENDBRANCH  14  17
ENDBRANCH   2  14
BRANCH   7  23
ATOM     23  N   UNL d   1      33.154  23.042 -22.047  0.00  0.00    -0.227 NA
BRANCH  23  24
ATOM     24  C   UNL d   1      32.487  23.261 -22.474  0.00  0.00     0.083 A 
ATOM     25  C   UNL d   1      32.528  23.333 -23.296  0.00  0.00     0.018 A 
ATOM     26  C   UNL d   1      31.859  23.552 -23.724  0.00  0.00     0.002 A 
ATOM     27  C   UNL d   1      33.241  23.184 -23.688  0.00  0.00     0.002 C 
ATOM     28  C   UNL d   1      31.900  23.624 -24.545  0.00  0.00     0.000 C 
ATOM     29  C   UNL d   1      31.144  23.702 -23.333  0.00  0.00     0.000 A 
ATOM     30  C   UNL d   1      31.110  23.628 -22.506  0.00  0.00     0.002 A 
ATOM     31  C   UNL d   1      31.778  23.409 -22.083  0.00  0.00     0.019 A 
ENDBRANCH  23  24
ENDBRANCH   7  23
TORSDOF 4
ENDMDL
MODEL 2
REMARK VINA RESULT:       2.5      1.167      3.644
REMARK  4 active torsions:
REMARK  status: ('A' for Active; 'I' for Inactive)
REMARK    1  A    between atoms: S_5  and  C_2 
REMARK    2  A    between atoms: C_16  and  S_5 
REMARK    3  A    between atoms: N_11  and  C_8 
REMARK    4  A    between atoms: C_12  and  N_11 
ROOT
ATOM      1  C   UNL d   1      32.654  20.575 -22.092  0.00  0.00     0.197 A 
ATOM      2  C   UNL d   1      32.499  20.663 -21.283  0.00  0.00     0.227 A 
ATOM      3  N   UNL d   1      32.531  19.782 -22.289  0.00  0.00    -0.192 N 
ATOM      4  N   UNL d   1      32.889  21.111 -22.674  0.00  0.00    -0.206 NA
ATOM      5  N   UNL d   1      32.282  19.925 -20.981  0.00  0.00    -0.115 NA
ATOM      6  N   UNL d   1      32.301  19.376 -21.603  0.00  0.00    -0.058 NA
ATOM      7  C   UNL d   1      33.003  20.856 -23.455  0.00  0.00     0.166 A 
ATOM      8  C   UNL d   1      32.879  20.063 -23.645  0.00  0.00     0.054 A 
ATOM      9  C   UNL d   1      32.644  19.521 -23.068  0.00  0.00     0.089 A 
ATOM     10  C   UNL d   1      32.992  19.802 -24.425  0.00  0.00     0.005 A 
ATOM     11  C   UNL d   1      32.521  18.730 -23.262  0.00  0.00     0.019 A 
ATOM     12  C   UNL d   1      32.869  19.011 -24.618  0.00  0.00     0.000 A 
ATOM     13  C   UNL d   1      32.633  18.475 -24.036  0.00  0.00     0.002 A 
ENDROOT
BRANCH   2  14
ATOM     14  S   UNL d   1      32.554  21.367 -20.854  0.00  0.00     0.231 S 
ATOM     15  O   UNL d   1      33.240  21.111 -20.479  0.00  0.00    -0.215 OA
ATOM     16  O   UNL d   1      31.867  21.620 -21.232  0.00  0.00    -0.215 OA
BRANCH  14  17
ATOM     17  C   UNL d   1      32.572  22.079 -20.449  0.00  0.00     0.090 A 
ATOM     18  C   UNL d   1      31.958  22.623 -20.553  0.00  0.00     0.011 A 
ATOM     19  C   UNL d   1      31.971  23.335 -20.152  0.00  0.00     0.001 A 
ATOM     20  C   UNL d   1      32.597  23.513 -19.641  0.00  0.00     0.000 A 
ATOM     21  C   UNL d   1      33.210  22.966 -19.539  0.00  0.00     0.001 A 
ATOM     22  C   UNL d   1      33.193  22.256 -19.941  0.00  0.00     0.011 A 
ENDBRANCH  14  17
ENDBRANCH   2  14
BRANCH   7  23
ATOM     23  N   UNL d   1      33.238  21.392 -24.036  0.00  0.00    -0.227 NA
BRANCH  23  24
ATOM     24  C   UNL d   1      32.942  22.159 -24.034  0.00  0.00     0.083 A 
ATOM     25  C   UNL d   1      32.345  22.374 -24.564  0.00  0.00     0.018 A 
ATOM     26  C   UNL d   1      32.049  23.142 -24.561  0.00  0.00     0.002 A 
ATOM     27  C   UNL d   1      32.047  21.816 -25.097  0.00  0.00     0.002 C 
ATOM     28  C   UNL d   1      31.453  23.356 -25.090  0.00  0.00     0.000 C 
ATOM     29  C   UNL d   1      32.347  23.702 -24.027  0.00  0.00     0.000 A 
ATOM     30  C   UNL d   1      32.946  23.479 -23.497  0.00  0.00     0.002 A 
ATOM     31  C   UNL d   1      33.240  22.713 -23.502  0.00  0.00     0.019 A 
ENDBRANCH  23  24
ENDBRANCH   7  23
TORSDOF 4
ENDMDL
