MODEL 1
REMARK VINA RESULT:      11.8      0.000      0.000
REMARK  4 active torsions:
REMARK  status: ('A' for Active; 'I' for Inactive)
REMARK    1  A    between atoms: C_2  and  C_1 
REMARK    2  A    between atoms: C_6  and  C_2 
REMARK    3  A    between atoms: C_9  and  C_6 
REMARK    4  A    between atoms: O_18  and  C_12 
ROOT
ATOM      1  C   UNL d   1      45.967 -16.922  44.205  0.00  0.00     0.199 C 
ATOM      2  O   UNL d   1      45.910 -16.622  43.479  0.00  0.00    -0.286 OA
ENDROOT
BRANCH   1   3
ATOM      3  C   UNL d   1      46.142 -17.812  44.224  0.00  0.00     0.078 A 
ATOM      4  C   UNL d   1      46.299 -18.174  43.500  0.00  0.00     0.202 A 
ATOM      5  C   UNL d   1      46.471 -19.038  43.494  0.00  0.00     0.084 A 
ATOM      6  O   UNL d   1      46.295 -17.740  42.801  0.00  0.00    -0.286 OA
ATOM      7  C   UNL d   1      46.472 -19.472  44.219  0.00  0.00     0.199 A 
ATOM      8  C   UNL d   1      46.313 -19.084  44.920  0.00  0.00     0.042 A 
ATOM      9  O   UNL d   1      46.641 -20.309  44.197  0.00  0.00    -0.286 OA
ATOM     10  C   UNL d   1      46.143 -18.236  44.932  0.00  0.00     0.010 A 
ENDBRANCH   1   3
BRANCH   1  11
ATOM     11  C   UNL d   1      45.893 -16.557  44.825  0.00  0.00     0.042 C 
BRANCH  11  12
ATOM     12  C   UNL d   1      45.727 -15.770  44.798  0.00  0.00     0.003 A 
ATOM     13  C   UNL d   1      44.985 -15.507  44.948  0.00  0.00     0.002 A 
ATOM     14  C   UNL d   1      44.808 -14.682  44.920  0.00  0.00     0.024 A 
ATOM     15  C   UNL d   1      45.386 -14.128  44.742  0.00  0.00     0.094 A 
ATOM     16  C   UNL d   1      46.139 -14.390  44.590  0.00  0.00     0.024 A 
ATOM     17  C   UNL d   1      46.327 -15.188  44.612  0.00  0.00     0.002 A 
BRANCH  15  18
ATOM     18  O   UNL d   1      45.211 -13.293  44.713  0.00  0.00    -0.328 OA
ATOM     19  C   UNL d   1      45.199 -12.891  43.997  0.00  0.00     0.181 C 
ENDBRANCH  15  18
ENDBRANCH  11  12
ENDBRANCH   1  11
TORSDOF 4
ENDMDL
