MODEL 1
REMARK VINA RESULT:      52.9      0.000      0.000
REMARK  6 active torsions:
REMARK  status: ('A' for Active; 'I' for Inactive)
REMARK    1  A    between atoms: C_8  and  C_6 
REMARK    2  A    between atoms: C_9  and  C_8 
REMARK       I    between atoms: N_11  and  C_9 
REMARK    3  A    between atoms: C_10  and  C_12 
REMARK    4  A    between atoms: O_20  and  C_10 
REMARK    5  A    between atoms: C_19  and  N_11 
REMARK    6  A    between atoms: C_29  and  O_20 
ROOT
ATOM      1  N   UNL d   1     -57.290 -98.851 -43.385  0.00  0.00    -0.207 NA
ATOM      2  N   UNL d   1     -56.862 -99.013 -44.999  0.00  0.00    -0.240 NA
ATOM      3  C   UNL d   1     -56.568 -98.911 -43.756  0.00  0.00     0.297 A 
ATOM      4  C   UNL d   1     -58.050 -98.852 -43.705  0.00  0.00     0.086 A 
ATOM      5  C   UNL d   1     -57.676 -98.991 -45.088  0.00  0.00     0.083 A 
ATOM      6  C   UNL d   1     -56.426 -98.966 -44.303  0.00  0.00     0.144 A 
ATOM      7  C   UNL d   1     -58.265 -98.917 -44.509  0.00  0.00     0.035 A 
ATOM      8  O   UNL d   1     -55.913 -98.891 -43.259  0.00  0.00    -0.264 OA
ATOM      9  C   UNL d   1     -59.065 -98.906 -44.716  0.00  0.00     0.003 A 
ATOM     10  C   UNL d   1     -57.890 -99.055 -45.883  0.00  0.00     0.019 A 
ATOM     11  C   UNL d   1     -58.634 -98.778 -43.125  0.00  0.00     0.019 A 
ATOM     12  C   UNL d   1     -58.700 -99.044 -46.101  0.00  0.00     0.002 A 
ATOM     13  C   UNL d   1     -59.433 -98.768 -43.340  0.00  0.00     0.002 A 
ATOM     14  C   UNL d   1     -59.281 -98.970 -45.520  0.00  0.00     0.000 A 
ATOM     15  C   UNL d   1     -59.646 -98.832 -44.135  0.00  0.00     0.000 A 
ENDROOT
BRANCH   6  16
ATOM     16  C   UNL d   1     -55.612 -99.007 -44.425  0.00  0.00     0.086 C 
BRANCH  16  17
ATOM     17  C   UNL d   1     -55.322 -99.262 -45.162  0.00  0.00     0.281 C 
ATOM     18  N   UNL d   1     -55.014-100.026 -45.243  0.00  0.00    -0.208 NA
ATOM     19  O   UNL d   1     -55.340 -98.756 -45.816  0.00  0.00    -0.265 OA
BRANCH  18  20
ATOM     20  C   UNL d   1     -54.994-100.537 -44.592  0.00  0.00     0.085 A 
ATOM     21  C   UNL d   1     -55.085-101.345 -44.707  0.00  0.00     0.019 A 
ATOM     22  C   UNL d   1     -55.066-101.858 -44.064  0.00  0.00     0.007 A 
ATOM     23  C   UNL d   1     -54.955-101.556 -43.298  0.00  0.00     0.064 A 
ATOM     24  C   UNL d   1     -54.864-100.744 -43.187  0.00  0.00     0.007 A 
ATOM     25  C   UNL d   1     -54.884-100.234 -43.834  0.00  0.00     0.019 A 
BRANCH  23  26
ATOM     26  C   UNL d   1     -54.936-102.058 -42.663  0.00  0.00     0.300 C 
ATOM     27  O   UNL d   1     -54.768-102.850 -42.769  0.00  0.00    -0.259 OA
BRANCH  26  28
ATOM     28  O   UNL d   1     -55.083-101.776 -41.915  0.00  0.00    -0.271 OA
BRANCH  28  29
ATOM     29  C   UNL d   1     -54.940-102.245 -41.266  0.00  0.00     0.126 C 
ATOM     30  C   UNL d   1     -54.728-101.908 -40.558  0.00  0.00     0.029 C 
ENDBRANCH  28  29
ENDBRANCH  26  28
ENDBRANCH  23  26
ENDBRANCH  18  20
ENDBRANCH  16  17
ENDBRANCH   6  16
TORSDOF 6
ENDMDL
MODEL 2
REMARK VINA RESULT:      53.0      2.860      4.732
REMARK  6 active torsions:
REMARK  status: ('A' for Active; 'I' for Inactive)
REMARK    1  A    between atoms: C_8  and  C_6 
REMARK    2  A    between atoms: C_9  and  C_8 
REMARK       I    between atoms: N_11  and  C_9 
REMARK    3  A    between atoms: C_10  and  C_12 
REMARK    4  A    between atoms: O_20  and  C_10 
REMARK    5  A    between atoms: C_19  and  N_11 
REMARK    6  A    between atoms: C_29  and  O_20 
ROOT
ATOM      1  N   UNL d   1     -54.815 -99.955 -41.921  0.00  0.00    -0.207 NA
ATOM      2  N   UNL d   1     -54.742-101.562 -42.395  0.00  0.00    -0.240 NA
ATOM      3  C   UNL d   1     -54.782-100.649 -41.497  0.00  0.00     0.297 A 
ATOM      4  C   UNL d   1     -54.821 -99.833 -42.737  0.00  0.00     0.086 A 
ATOM      5  C   UNL d   1     -54.759-101.215 -43.137  0.00  0.00     0.083 A 
ATOM      6  C   UNL d   1     -54.758-101.192 -41.661  0.00  0.00     0.144 A 
ATOM      7  C   UNL d   1     -54.796-100.411 -43.339  0.00  0.00     0.035 A 
ATOM      8  O   UNL d   1     -54.785-100.564 -40.679  0.00  0.00    -0.264 OA
ATOM      9  C   UNL d   1     -54.808-100.172 -44.129  0.00  0.00     0.003 A 
ATOM     10  C   UNL d   1     -54.734-101.785 -43.733  0.00  0.00     0.019 A 
ATOM     11  C   UNL d   1     -54.858 -99.031 -42.934  0.00  0.00     0.019 A 
ATOM     12  C   UNL d   1     -54.746-101.550 -44.538  0.00  0.00     0.002 A 
ATOM     13  C   UNL d   1     -54.870 -98.800 -43.728  0.00  0.00     0.002 A 
ATOM     14  C   UNL d   1     -54.783-100.749 -44.732  0.00  0.00     0.000 A 
ATOM     15  C   UNL d   1     -54.845 -99.370 -44.323  0.00  0.00     0.000 A 
ENDROOT
BRANCH   6  16
ATOM     16  C   UNL d   1     -54.732-101.720 -41.029  0.00  0.00     0.086 C 
BRANCH  16  17
ATOM     17  C   UNL d   1     -55.081-102.472 -41.111  0.00  0.00     0.281 C 
ATOM     18  N   UNL d   1     -55.354-102.876 -40.443  0.00  0.00    -0.208 NA
ATOM     19  O   UNL d   1     -55.155-102.818 -41.859  0.00  0.00    -0.265 OA
BRANCH  18  20
ATOM     20  C   UNL d   1     -55.282-102.534 -39.693  0.00  0.00     0.085 A 
ATOM     21  C   UNL d   1     -54.788-102.880 -39.136  0.00  0.00     0.019 A 
ATOM     22  C   UNL d   1     -54.711-102.545 -38.388  0.00  0.00     0.007 A 
ATOM     23  C   UNL d   1     -55.136-101.857 -38.198  0.00  0.00     0.064 A 
ATOM     24  C   UNL d   1     -55.632-101.513 -38.761  0.00  0.00     0.007 A 
ATOM     25  C   UNL d   1     -55.705-101.852 -39.509  0.00  0.00     0.019 A 
BRANCH  23  26
ATOM     26  C   UNL d   1     -55.064-101.524 -37.464  0.00  0.00     0.300 C 
ATOM     27  O   UNL d   1     -55.275-100.745 -37.342  0.00  0.00    -0.259 OA
BRANCH  26  28
ATOM     28  O   UNL d   1     -54.781-101.964 -36.842  0.00  0.00    -0.271 OA
BRANCH  28  29
ATOM     29  C   UNL d   1     -55.180-101.973 -36.133  0.00  0.00     0.126 C 
ATOM     30  C   UNL d   1     -54.771-101.906 -35.434  0.00  0.00     0.029 C 
ENDBRANCH  28  29
ENDBRANCH  26  28
ENDBRANCH  23  26
ENDBRANCH  18  20
ENDBRANCH  16  17
ENDBRANCH   6  16
TORSDOF 6
ENDMDL
