MODEL 1
REMARK VINA RESULT:      -3.9      0.000      0.000
REMARK  3 active torsions:
REMARK  status: ('A' for Active; 'I' for Inactive)
REMARK    1  A    between atoms: N_11  and  C_4 
REMARK       I    between atoms: C_5  and  N_9 
REMARK       I    between atoms: N_12  and  C_5 
REMARK    2  A    between atoms: C_6  and  C_7 
REMARK    3  A    between atoms: C_14  and  N_12 
ROOT
ATOM      1  C   UNL d   1      33.043  21.089 -20.810  0.00  0.00     0.354 C 
ATOM      2  N   UNL d   1      33.046  20.524 -21.423  0.00  0.00    -0.253 N 
ATOM      3  N   UNL d   1      33.048  19.420 -22.640  0.00  0.00    -0.285 N 
ATOM      4  N   UNL d   1      32.849  21.876 -20.970  0.00  0.00    -0.192 NA
ATOM      5  O   UNL d   1      33.237  20.858 -20.038  0.00  0.00    -0.244 OA
ATOM      6  C   UNL d   1      32.853  20.754 -22.192  0.00  0.00     0.104 A 
ATOM      7  C   UNL d   1      33.241  19.738 -21.264  0.00  0.00     0.104 A 
ATOM      8  C   UNL d   1      32.855  20.197 -22.801  0.00  0.00     0.101 A 
ATOM      9  C   UNL d   1      33.241  19.190 -21.871  0.00  0.00     0.101 A 
ENDROOT
BRANCH   4  10
ATOM     10  C   UNL d   1      32.847  22.432 -20.359  0.00  0.00     0.090 A 
ATOM     11  C   UNL d   1      32.451  23.150 -20.457  0.00  0.00     0.089 A 
ATOM     12  C   UNL d   1      32.450  23.702 -19.848  0.00  0.00     0.005 A 
ATOM     13  C   UNL d   1      32.842  23.542 -19.146  0.00  0.00     0.000 A 
ATOM     14  C   UNL d   1      33.240  22.820 -19.050  0.00  0.00     0.002 A 
ATOM     15  C   UNL d   1      33.239  22.272 -19.657  0.00  0.00     0.019 A 
BRANCH  11  16
ATOM     16  C   UNL d   1      32.056  23.311 -21.163  0.00  0.00     0.420 C 
ATOM     17  F   UNL d   1      31.662  23.472 -21.870  0.00  0.00    -0.166 F 
ATOM     18  F   UNL d   1      31.355  23.042 -20.833  0.00  0.00    -0.166 F 
ATOM     19  F   UNL d   1      32.761  23.581 -21.495  0.00  0.00    -0.166 F 
ENDBRANCH  11  16
ENDBRANCH   4  10
BRANCH   3  20
ATOM     20  C   UNL d   1      33.050  18.863 -23.249  0.00  0.00     0.168 A 
ATOM     21  N   UNL d   1      32.871  18.074 -23.089  0.00  0.00    -0.144 NA
ATOM     22  N   UNL d   1      32.874  17.522 -23.696  0.00  0.00    -0.187 N 
ATOM     23  C   UNL d   1      33.054  17.755 -24.467  0.00  0.00     0.187 A 
ATOM     24  C   UNL d   1      32.723  16.714 -23.712  0.00  0.00     0.224 A 
ATOM     25  N   UNL d   1      33.013  17.089 -24.953  0.00  0.00    -0.127 NA
ATOM     26  C   UNL d   1      33.232  18.540 -24.630  0.00  0.00     0.044 A 
ATOM     27  N   UNL d   1      32.806  16.446 -24.474  0.00  0.00    -0.124 NA
ATOM     28  C   UNL d   1      33.230  19.096 -24.019  0.00  0.00     0.042 A 
ENDBRANCH   3  20
TORSDOF 3
ENDMDL
MODEL 2
REMARK VINA RESULT:      -3.1      2.392      5.709
REMARK  3 active torsions:
REMARK  status: ('A' for Active; 'I' for Inactive)
REMARK    1  A    between atoms: N_11  and  C_4 
REMARK       I    between atoms: C_5  and  N_9 
REMARK       I    between atoms: N_12  and  C_5 
REMARK    2  A    between atoms: C_6  and  C_7 
REMARK    3  A    between atoms: C_14  and  N_12 
ROOT
ATOM      1  C   UNL d   1      32.862  18.295 -22.822  0.00  0.00     0.354 C 
ATOM      2  N   UNL d   1      32.866  19.068 -22.510  0.00  0.00    -0.253 N 
ATOM      3  N   UNL d   1      32.867  20.596 -21.906  0.00  0.00    -0.285 N 
ATOM      4  N   UNL d   1      32.487  18.138 -23.540  0.00  0.00    -0.192 NA
ATOM      5  O   UNL d   1      33.237  17.683 -22.407  0.00  0.00    -0.244 OA
ATOM      6  C   UNL d   1      32.493  19.677 -22.923  0.00  0.00     0.104 A 
ATOM      7  C   UNL d   1      33.241  19.226 -21.791  0.00  0.00     0.104 A 
ATOM      8  C   UNL d   1      32.495  20.444 -22.617  0.00  0.00     0.101 A 
ATOM      9  C   UNL d   1      33.240  19.987 -21.493  0.00  0.00     0.101 A 
ENDROOT
BRANCH   4  10
ATOM     10  C   UNL d   1      32.486  17.371 -23.846  0.00  0.00     0.090 A 
ATOM     11  C   UNL d   1      31.872  17.124 -24.339  0.00  0.00     0.089 A 
ATOM     12  C   UNL d   1      31.872  16.359 -24.642  0.00  0.00     0.005 A 
ATOM     13  C   UNL d   1      32.481  15.843 -24.455  0.00  0.00     0.000 A 
ATOM     14  C   UNL d   1      33.097  16.093 -23.959  0.00  0.00     0.002 A 
ATOM     15  C   UNL d   1      33.095  16.854 -23.659  0.00  0.00     0.019 A 
BRANCH  11  16
ATOM     16  C   UNL d   1      31.259  17.644 -24.526  0.00  0.00     0.420 C 
ATOM     17  F   UNL d   1      30.647  18.163 -24.714  0.00  0.00    -0.166 F 
ATOM     18  F   UNL d   1      30.780  17.282 -23.966  0.00  0.00    -0.166 F 
ATOM     19  F   UNL d   1      31.740  18.007 -25.089  0.00  0.00    -0.166 F 
ENDBRANCH  11  16
ENDBRANCH   4  10
BRANCH   3  20
ATOM     20  C   UNL d   1      32.869  21.363 -21.600  0.00  0.00     0.168 A 
ATOM     21  N   UNL d   1      32.599  21.503 -20.833  0.00  0.00    -0.144 NA
ATOM     22  N   UNL d   1      32.602  22.266 -20.531  0.00  0.00    -0.187 N 
ATOM     23  C   UNL d   1      32.873  22.893 -20.993  0.00  0.00     0.187 A 
ATOM     24  C   UNL d   1      32.374  22.575 -19.804  0.00  0.00     0.224 A 
ATOM     25  N   UNL d   1      32.811  23.586 -20.549  0.00  0.00    -0.127 NA
ATOM     26  C   UNL d   1      33.142  22.757 -21.757  0.00  0.00     0.044 A 
ATOM     27  N   UNL d   1      32.500  23.378 -19.810  0.00  0.00    -0.124 NA
ATOM     28  C   UNL d   1      33.140  21.990 -22.062  0.00  0.00     0.042 A 
ENDBRANCH   3  20
TORSDOF 3
ENDMDL
