MODEL 1
REMARK VINA RESULT:      49.5      0.000      0.000
REMARK  5 active torsions:
REMARK  status: ('A' for Active; 'I' for Inactive)
REMARK    1  A    between atoms: C_2  and  S_1 
REMARK    2  A    between atoms: N_4  and  S_1 
REMARK    3  A    between atoms: C_10  and  C_9 
REMARK       I    between atoms: N_15  and  C_10 
REMARK    4  A    between atoms: C_24  and  N_15 
REMARK    5  A    between atoms: C_16  and  C_24 
ROOT
ATOM      1  N   UNL d   1      13.660  12.476  -2.596  0.00  0.00    -0.229 N 
ATOM      2  C   UNL d   1      13.845  13.647  -3.386  0.00  0.00     0.076 A 
ATOM      3  C   UNL d   1      13.780  13.294  -2.659  0.00  0.00     0.096 A 
ATOM      4  C   UNL d   1      13.608  12.028  -3.274  0.00  0.00     0.092 A 
ATOM      5  C   UNL d   1      13.791  13.177  -4.092  0.00  0.00     0.008 A 
ATOM      6  C   UNL d   1      13.671  12.364  -4.014  0.00  0.00     0.020 A 
ENDROOT
BRANCH   1   7
ATOM      7  S   UNL d   1      13.594  12.127  -1.843  0.00  0.00     0.273 S 
ATOM      8  O   UNL d   1      13.533  11.781  -1.097  0.00  0.00    -0.200 OA
ATOM      9  O   UNL d   1      12.771  12.094  -1.922  0.00  0.00    -0.200 OA
BRANCH   7  10
ATOM     10  C   UNL d   1      14.419  12.156  -1.758  0.00  0.00     0.125 A 
ATOM     11  C   UNL d   1      14.764  12.549  -1.126  0.00  0.00     0.142 A 
ATOM     12  C   UNL d   1      15.589  12.574  -1.048  0.00  0.00     0.131 A 
ATOM     13  N   UNL d   1      14.426  12.961  -0.495  0.00  0.00    -0.101 NA
ATOM     14  N   UNL d   1      15.760  13.004  -0.365  0.00  0.00    -0.102 NA
ATOM     15  C   UNL d   1      16.062  12.210  -1.597  0.00  0.00     0.023 A 
ATOM     16  O   UNL d   1      15.050  13.240  -0.027  0.00  0.00    -0.106 OA
ATOM     17  C   UNL d   1      15.730  11.812  -2.238  0.00  0.00     0.002 A 
ATOM     18  C   UNL d   1      14.903  11.786  -2.317  0.00  0.00     0.015 A 
ENDBRANCH   7  10
ENDBRANCH   1   7
BRANCH   2  19
ATOM     19  C   UNL d   1      13.964  14.455  -3.463  0.00  0.00     0.281 C 
ATOM     20  N   UNL d   1      14.374  14.879  -2.890  0.00  0.00    -0.204 NA
ATOM     21  O   UNL d   1      13.662  14.841  -4.132  0.00  0.00    -0.265 OA
BRANCH  20  22
ATOM     22  C   UNL d   1      14.490  15.714  -2.983  0.00  0.00     0.127 C 
BRANCH  22  23
ATOM     23  C   UNL d   1      14.754  16.175  -2.322  0.00  0.00     0.119 A 
ATOM     24  O   UNL d   1      14.742  15.936  -1.533  0.00  0.00    -0.304 OA
ATOM     25  C   UNL d   1      15.048  16.552  -1.074  0.00  0.00     0.123 A 
ATOM     26  C   UNL d   1      15.249  17.169  -1.581  0.00  0.00     0.029 A 
ATOM     27  C   UNL d   1      15.066  16.932  -2.355  0.00  0.00     0.028 A 
ENDBRANCH  22  23
ENDBRANCH  20  22
ENDBRANCH   2  19
TORSDOF 5
ENDMDL
MODEL 2
REMARK VINA RESULT:      52.5      1.058      2.561
REMARK  5 active torsions:
REMARK  status: ('A' for Active; 'I' for Inactive)
REMARK    1  A    between atoms: C_2  and  S_1 
REMARK    2  A    between atoms: N_4  and  S_1 
REMARK    3  A    between atoms: C_10  and  C_9 
REMARK       I    between atoms: N_15  and  C_10 
REMARK    4  A    between atoms: C_24  and  N_15 
REMARK    5  A    between atoms: C_16  and  C_24 
ROOT
ATOM      1  N   UNL d   1      14.197  12.424  -1.865  0.00  0.00    -0.229 N 
ATOM      2  C   UNL d   1      14.878  13.422  -1.110  0.00  0.00     0.076 A 
ATOM      3  C   UNL d   1      14.187  13.096  -1.380  0.00  0.00     0.096 A 
ATOM      4  C   UNL d   1      14.912  12.092  -2.071  0.00  0.00     0.092 A 
ATOM      5  C   UNL d   1      15.623  13.073  -1.326  0.00  0.00     0.008 A 
ATOM      6  C   UNL d   1      15.618  12.405  -1.810  0.00  0.00     0.020 A 
ENDROOT
BRANCH   1   7
ATOM      7  S   UNL d   1      13.479  12.100  -2.135  0.00  0.00     0.273 S 
ATOM      8  O   UNL d   1      12.769  11.780  -2.405  0.00  0.00    -0.200 OA
ATOM      9  O   UNL d   1      13.262  11.916  -1.358  0.00  0.00    -0.200 OA
BRANCH   7  10
ATOM     10  C   UNL d   1      13.690  12.283  -2.917  0.00  0.00     0.125 A 
ATOM     11  C   UNL d   1      13.399  12.955  -3.287  0.00  0.00     0.142 A 
ATOM     12  C   UNL d   1      13.615  13.129  -4.067  0.00  0.00     0.131 A 
ATOM     13  N   UNL d   1      12.888  13.544  -3.015  0.00  0.00    -0.101 NA
ATOM     14  N   UNL d   1      13.235  13.831  -4.277  0.00  0.00    -0.102 NA
ATOM     15  C   UNL d   1      14.117  12.638  -4.472  0.00  0.00     0.023 A 
ATOM     16  O   UNL d   1      12.791  14.084  -3.635  0.00  0.00    -0.106 OA
ATOM     17  C   UNL d   1      14.418  11.960  -4.113  0.00  0.00     0.002 A 
ATOM     18  C   UNL d   1      14.202  11.782  -3.330  0.00  0.00     0.015 A 
ENDBRANCH   7  10
ENDBRANCH   1   7
BRANCH   2  19
ATOM     19  C   UNL d   1      14.883  14.086  -0.629  0.00  0.00     0.281 C 
ATOM     20  N   UNL d   1      15.437  14.683  -0.737  0.00  0.00    -0.204 NA
ATOM     21  O   UNL d   1      14.316  14.146  -0.027  0.00  0.00    -0.265 OA
BRANCH  20  22
ATOM     22  C   UNL d   1      15.431  15.365  -0.233  0.00  0.00     0.127 C 
BRANCH  22  23
ATOM     23  C   UNL d   1      15.437  16.139  -0.576  0.00  0.00     0.119 A 
ATOM     24  O   UNL d   1      15.920  16.765  -0.342  0.00  0.00    -0.304 OA
ATOM     25  C   UNL d   1      15.747  17.416  -0.822  0.00  0.00     0.123 A 
ATOM     26  C   UNL d   1      15.157  17.190  -1.350  0.00  0.00     0.029 A 
ATOM     27  C   UNL d   1      14.967  16.397  -1.196  0.00  0.00     0.028 A 
ENDBRANCH  22  23
ENDBRANCH  20  22
ENDBRANCH   2  19
TORSDOF 5
ENDMDL
