MODEL 1
REMARK VINA RESULT:      42.3      0.000      0.000
REMARK  5 active torsions:
REMARK  status: ('A' for Active; 'I' for Inactive)
REMARK    1  A    between atoms: C_8  and  C_1 
REMARK    2  A    between atoms: C_11  and  C_3 
REMARK    3  A    between atoms: C_7  and  C_4 
REMARK    4  A    between atoms: O_16  and  C_8 
REMARK    5  A    between atoms: C_19  and  O_16 
ROOT
ATOM      1  C   UNL d   1      44.698 -15.487  44.491  0.00  0.00     0.102 A 
ATOM      2  C   UNL d   1      44.309 -16.219  44.501  0.00  0.00     0.201 A 
ATOM      3  C   UNL d   1      45.487 -15.431  44.257  0.00  0.00     0.008 A 
ATOM      4  C   UNL d   1      45.521 -16.830  44.037  0.00  0.00     0.009 A 
ATOM      5  C   UNL d   1      44.732 -16.886  44.271  0.00  0.00     0.043 A 
ATOM      6  C   UNL d   1      45.895 -16.107  44.030  0.00  0.00     0.001 A 
ATOM      7  O   UNL d   1      43.528 -16.275  44.733  0.00  0.00    -0.286 OA
ENDROOT
BRANCH   3   8
ATOM      8  C   UNL d   1      45.860 -14.699  44.252  0.00  0.00     0.000 A 
ATOM      9  C   UNL d   1      46.204 -14.422  44.949  0.00  0.00     0.000 A 
ATOM     10  C   UNL d   1      46.577 -13.685  44.936  0.00  0.00     0.000 A 
ATOM     11  C   UNL d   1      46.612 -13.240  44.266  0.00  0.00     0.000 A 
ATOM     12  C   UNL d   1      46.260 -13.532  43.565  0.00  0.00     0.000 A 
ATOM     13  C   UNL d   1      45.885 -14.265  43.565  0.00  0.00     0.000 A 
ENDBRANCH   3   8
BRANCH   1  14
ATOM     14  C   UNL d   1      44.286 -14.803  44.720  0.00  0.00     0.303 C 
ATOM     15  O   UNL d   1      44.665 -14.071  44.716  0.00  0.00    -0.259 OA
BRANCH  14  16
ATOM     16  O   UNL d   1      43.494 -14.853  44.954  0.00  0.00    -0.271 OA
BRANCH  16  17
ATOM     17  C   UNL d   1      43.021 -14.179  44.948  0.00  0.00     0.126 C 
ATOM     18  C   UNL d   1      42.202 -14.254  44.891  0.00  0.00     0.029 C 
ENDBRANCH  16  17
ENDBRANCH  14  16
ENDBRANCH   1  14
BRANCH   4  19
ATOM     19  C   UNL d   1      45.929 -17.514  43.809  0.00  0.00     0.030 A 
ATOM     20  S   UNL d   1      46.026 -17.793  43.043  0.00  0.00    -0.086 SA
ATOM     21  C   UNL d   1      46.458 -18.472  43.080  0.00  0.00     0.035 A 
ATOM     22  C   UNL d   1      46.642 -18.637  43.870  0.00  0.00     0.007 A 
ATOM     23  C   UNL d   1      46.312 -18.037  44.331  0.00  0.00     0.007 A 
ENDBRANCH   4  19
TORSDOF 5
ENDMDL
MODEL 2
REMARK VINA RESULT:      42.4      6.950      7.762
REMARK  5 active torsions:
REMARK  status: ('A' for Active; 'I' for Inactive)
REMARK    1  A    between atoms: C_8  and  C_1 
REMARK    2  A    between atoms: C_11  and  C_3 
REMARK    3  A    between atoms: C_7  and  C_4 
REMARK    4  A    between atoms: O_16  and  C_8 
REMARK    5  A    between atoms: C_19  and  O_16 
ROOT
ATOM      1  C   UNL d   1      44.708 -16.127  37.408  0.00  0.00     0.102 A 
ATOM      2  C   UNL d   1      44.055 -16.629  37.509  0.00  0.00     0.201 A 
ATOM      3  C   UNL d   1      44.618 -15.378  37.073  0.00  0.00     0.008 A 
ATOM      4  C   UNL d   1      43.228 -15.609  36.931  0.00  0.00     0.009 A 
ATOM      5  C   UNL d   1      43.318 -16.358  37.266  0.00  0.00     0.043 A 
ATOM      6  C   UNL d   1      43.874 -15.124  36.836  0.00  0.00     0.001 A 
ATOM      7  O   UNL d   1      44.145 -17.370  37.841  0.00  0.00    -0.286 OA
ENDROOT
BRANCH   3   8
ATOM      8  C   UNL d   1      45.273 -14.892  36.979  0.00  0.00     0.000 A 
ATOM      9  C   UNL d   1      45.859 -15.112  36.441  0.00  0.00     0.000 A 
ATOM     10  C   UNL d   1      46.515 -14.618  36.352  0.00  0.00     0.000 A 
ATOM     11  C   UNL d   1      46.592 -13.936  36.773  0.00  0.00     0.000 A 
ATOM     12  C   UNL d   1      45.990 -13.723  37.316  0.00  0.00     0.000 A 
ATOM     13  C   UNL d   1      45.332 -14.207  37.413  0.00  0.00     0.000 A 
ENDBRANCH   3   8
BRANCH   1  14
ATOM     14  C   UNL d   1      45.461 -16.384  37.648  0.00  0.00     0.303 C 
ATOM     15  O   UNL d   1      46.041 -16.545  37.085  0.00  0.00    -0.259 OA
BRANCH  14  16
ATOM     16  O   UNL d   1      45.632 -16.479  38.452  0.00  0.00    -0.271 OA
BRANCH  16  17
ATOM     17  C   UNL d   1      46.173 -17.051  38.692  0.00  0.00     0.126 C 
ATOM     18  C   UNL d   1      46.325 -17.159  39.495  0.00  0.00     0.029 C 
ENDBRANCH  16  17
ENDBRANCH  14  16
ENDBRANCH   1  14
BRANCH   4  19
ATOM     19  C   UNL d   1      42.476 -15.357  36.692  0.00  0.00     0.030 A 
ATOM     20  S   UNL d   1      41.823 -15.833  36.549  0.00  0.00    -0.086 SA
ATOM     21  C   UNL d   1      41.211 -15.357  36.331  0.00  0.00     0.035 A 
ATOM     22  C   UNL d   1      41.465 -14.569  36.332  0.00  0.00     0.007 A 
ATOM     23  C   UNL d   1      42.259 -14.564  36.558  0.00  0.00     0.007 A 
ENDBRANCH   4  19
TORSDOF 5
ENDMDL
