MODEL 1
REMARK VINA RESULT:      39.6      0.000      0.000
REMARK  4 active torsions:
REMARK  status: ('A' for Active; 'I' for Inactive)
REMARK    1  A    between atoms: C_7  and  C_1 
REMARK    2  A    between atoms: O_10  and  C_2 
REMARK    3  A    between atoms: C_17  and  O_10 
REMARK    4  A    between atoms: C_19  and  C_12 
ROOT
ATOM      1  C   UNL d   1      15.051  12.412  -1.131  0.00  0.00     0.197 A 
ATOM      2  C   UNL d   1      14.635  13.112  -0.973  0.00  0.00     0.165 A 
ATOM      3  O   UNL d   1      14.914  12.027  -1.838  0.00  0.00    -0.301 OA
ATOM      4  C   UNL d   1      14.095  13.406  -1.525  0.00  0.00     0.222 A 
ATOM      5  C   UNL d   1      13.980  13.003  -2.215  0.00  0.00     0.064 A 
ATOM      6  C   UNL d   1      14.396  12.304  -2.373  0.00  0.00     0.106 A 
ATOM      7  C   UNL d   1      13.439  13.298  -2.767  0.00  0.00     0.008 A 
ATOM      8  C   UNL d   1      14.259  11.919  -3.079  0.00  0.00     0.067 A 
ATOM      9  C   UNL d   1      13.733  12.194  -3.629  0.00  0.00     0.198 A 
ATOM     10  C   UNL d   1      13.318  12.894  -3.470  0.00  0.00     0.039 A 
ATOM     11  O   UNL d   1      13.690  14.086  -1.371  0.00  0.00    -0.284 OA
ATOM     12  O   UNL d   1      13.607  11.793  -4.338  0.00  0.00    -0.286 OA
ENDROOT
BRANCH   2  13
ATOM     13  O   UNL d   1      14.760  13.516  -0.263  0.00  0.00    -0.302 OA
BRANCH  13  14
ATOM     14  C   UNL d   1      15.098  14.264  -0.270  0.00  0.00     0.100 A 
ATOM     15  C   UNL d   1      15.899  14.343  -0.070  0.00  0.00     0.025 A 
ATOM     16  C   UNL d   1      16.230  15.076  -0.077  0.00  0.00     0.002 A 
ATOM     17  C   UNL d   1      15.764  15.740  -0.284  0.00  0.00     0.000 A 
ATOM     18  C   UNL d   1      14.990  15.650  -0.476  0.00  0.00     0.002 A 
ATOM     19  C   UNL d   1      14.652  14.901  -0.469  0.00  0.00     0.025 A 
ENDBRANCH  13  14
ENDBRANCH   2  13
BRANCH   1  20
ATOM     20  C   UNL d   1      15.590  12.120  -0.580  0.00  0.00     0.442 C 
ATOM     21  F   UNL d   1      16.140  11.825  -0.025  0.00  0.00    -0.164 F 
ATOM     22  F   UNL d   1      16.190  12.160  -1.145  0.00  0.00    -0.164 F 
ATOM     23  F   UNL d   1      14.987  12.082  -0.014  0.00  0.00    -0.164 F 
ENDBRANCH   1  20
BRANCH  10  24
ATOM     24  C   UNL d   1      12.777  13.188  -4.022  0.00  0.00     0.003 C 
ATOM     25  C   UNL d   1      12.989  13.820  -4.505  0.00  0.00     0.000 C 
ENDBRANCH  10  24
TORSDOF 4
ENDMDL
MODEL 2
REMARK VINA RESULT:      41.1      1.912      3.744
REMARK  4 active torsions:
REMARK  status: ('A' for Active; 'I' for Inactive)
REMARK    1  A    between atoms: C_7  and  C_1 
REMARK    2  A    between atoms: O_10  and  C_2 
REMARK    3  A    between atoms: C_17  and  O_10 
REMARK    4  A    between atoms: C_19  and  C_12 
ROOT
ATOM      1  C   UNL d   1      13.635  12.479  -3.619  0.00  0.00     0.197 A 
ATOM      2  C   UNL d   1      13.461  13.273  -3.458  0.00  0.00     0.165 A 
ATOM      3  O   UNL d   1      14.031  12.043  -3.055  0.00  0.00    -0.301 OA
ATOM      4  C   UNL d   1      13.689  13.608  -2.737  0.00  0.00     0.222 A 
ATOM      5  C   UNL d   1      14.079  13.152  -2.199  0.00  0.00     0.064 A 
ATOM      6  C   UNL d   1      14.253  12.358  -2.360  0.00  0.00     0.106 A 
ATOM      7  C   UNL d   1      14.307  13.487  -1.477  0.00  0.00     0.008 A 
ATOM      8  C   UNL d   1      14.649  11.921  -1.796  0.00  0.00     0.067 A 
ATOM      9  C   UNL d   1      14.878  12.235  -1.087  0.00  0.00     0.198 A 
ATOM     10  C   UNL d   1      14.704  13.029  -0.925  0.00  0.00     0.039 A 
ATOM     11  O   UNL d   1      13.520  14.381  -2.580  0.00  0.00    -0.284 OA
ATOM     12  O   UNL d   1      15.278  11.780  -0.527  0.00  0.00    -0.286 OA
ENDROOT
BRANCH   2  13
ATOM     13  O   UNL d   1      13.061  13.732  -4.017  0.00  0.00    -0.302 OA
BRANCH  13  14
ATOM     14  C   UNL d   1      13.381  14.444  -4.270  0.00  0.00     0.100 A 
ATOM     15  C   UNL d   1      12.872  15.025  -4.571  0.00  0.00     0.025 A 
ATOM     16  C   UNL d   1      13.186  15.724  -4.820  0.00  0.00     0.002 A 
ATOM     17  C   UNL d   1      14.012  15.849  -4.770  0.00  0.00     0.000 A 
ATOM     18  C   UNL d   1      14.493  15.278  -4.476  0.00  0.00     0.002 A 
ATOM     19  C   UNL d   1      14.173  14.565  -4.222  0.00  0.00     0.025 A 
ENDBRANCH  13  14
ENDBRANCH   2  13
BRANCH   1  20
ATOM     20  C   UNL d   1      13.407  12.147  -4.339  0.00  0.00     0.442 C 
ATOM     21  F   UNL d   1      13.172  11.808  -5.065  0.00  0.00    -0.164 F 
ATOM     22  F   UNL d   1      12.769  11.779  -3.967  0.00  0.00    -0.164 F 
ATOM     23  F   UNL d   1      14.047  12.516  -4.710  0.00  0.00    -0.164 F 
ENDBRANCH   1  20
BRANCH  10  24
ATOM     24  C   UNL d   1      14.932  13.365  -0.205  0.00  0.00     0.003 C 
ATOM     25  C   UNL d   1      15.306  14.098  -0.195  0.00  0.00     0.000 C 
ENDBRANCH  10  24
TORSDOF 4
ENDMDL
MODEL 3
REMARK VINA RESULT:      42.4      2.142      3.488
REMARK  4 active torsions:
REMARK  status: ('A' for Active; 'I' for Inactive)
REMARK    1  A    between atoms: C_7  and  C_1 
REMARK    2  A    between atoms: O_10  and  C_2 
REMARK    3  A    between atoms: C_17  and  O_10 
REMARK    4  A    between atoms: C_19  and  C_12 
ROOT
ATOM      1  C   UNL d   1      13.528  13.018  -3.596  0.00  0.00     0.197 A 
ATOM      2  C   UNL d   1      13.898  12.868  -2.869  0.00  0.00     0.165 A 
ATOM      3  O   UNL d   1      13.539  13.779  -3.891  0.00  0.00    -0.301 OA
ATOM      4  C   UNL d   1      14.269  13.484  -2.459  0.00  0.00     0.222 A 
ATOM      5  C   UNL d   1      14.264  14.225  -2.776  0.00  0.00     0.064 A 
ATOM      6  C   UNL d   1      13.893  14.375  -3.502  0.00  0.00     0.106 A 
ATOM      7  C   UNL d   1      14.635  14.840  -2.366  0.00  0.00     0.008 A 
ATOM      8  C   UNL d   1      13.904  15.135  -3.797  0.00  0.00     0.067 A 
ATOM      9  C   UNL d   1      14.263  15.747  -3.408  0.00  0.00     0.198 A 
ATOM     10  C   UNL d   1      14.633  15.597  -2.682  0.00  0.00     0.039 A 
ATOM     11  O   UNL d   1      14.629  13.338  -1.753  0.00  0.00    -0.284 OA
ATOM     12  O   UNL d   1      14.265  16.510  -3.721  0.00  0.00    -0.286 OA
ENDROOT
BRANCH   2  13
ATOM     13  O   UNL d   1      13.898  12.105  -2.554  0.00  0.00    -0.302 OA
BRANCH  13  14
ATOM     14  C   UNL d   1      13.941  11.995  -1.741  0.00  0.00     0.100 A 
ATOM     15  C   UNL d   1      14.686  11.906  -1.390  0.00  0.00     0.025 A 
ATOM     16  C   UNL d   1      14.728  11.799  -0.593  0.00  0.00     0.002 A 
ATOM     17  C   UNL d   1      14.025  11.779  -0.139  0.00  0.00     0.000 A 
ATOM     18  C   UNL d   1      13.310  11.867  -0.493  0.00  0.00     0.002 A 
ATOM     19  C   UNL d   1      13.267  11.976  -1.305  0.00  0.00     0.025 A 
ENDBRANCH  13  14
ENDBRANCH   2  13
BRANCH   1  20
ATOM     20  C   UNL d   1      13.159  12.404  -4.003  0.00  0.00     0.442 C 
ATOM     21  F   UNL d   1      12.782  11.779  -4.411  0.00  0.00    -0.164 F 
ATOM     22  F   UNL d   1      12.828  12.134  -3.296  0.00  0.00    -0.164 F 
ATOM     23  F   UNL d   1      13.490  12.676  -4.710  0.00  0.00    -0.164 F 
ENDBRANCH   1  20
BRANCH  10  24
ATOM     24  C   UNL d   1      15.004  16.211  -2.271  0.00  0.00     0.003 C 
ATOM     25  C   UNL d   1      15.028  16.197  -1.448  0.00  0.00     0.000 C 
ENDBRANCH  10  24
TORSDOF 4
ENDMDL
