MODEL 1
REMARK VINA RESULT:      62.8      0.000      0.000
REMARK  2 active torsions:
REMARK  status: ('A' for Active; 'I' for Inactive)
REMARK    1  A    between atoms: C_13  and  N_5 
REMARK    2  A    between atoms: C_19  and  C_12 
ROOT
ATOM      1  C   UNL d   1     -54.759-101.398 -41.444  0.00  0.00     0.170 A 
ATOM      2  C   UNL d   1     -54.751-102.041 -40.963  0.00  0.00     0.093 A 
ATOM      3  N   UNL d   1     -54.735-101.222 -39.843  0.00  0.00    -0.256 N 
ATOM      4  C   UNL d   1     -54.738-101.964 -40.155  0.00  0.00     0.176 A 
ATOM      5  N   UNL d   1     -54.771-101.483 -42.242  0.00  0.00    -0.212 N 
ATOM      6  N   UNL d   1     -54.755-100.659 -41.114  0.00  0.00    -0.206 NA
ATOM      7  N   UNL d   1     -54.730-102.608 -39.684  0.00  0.00    -0.128 NA
ATOM      8  N   UNL d   1     -54.775-102.228 -42.557  0.00  0.00    -0.162 NA
ATOM      9  C   UNL d   1     -54.743-100.579 -40.324  0.00  0.00     0.187 A 
ATOM     10  N   UNL d   1     -54.714-101.779 -38.571  0.00  0.00    -0.128 NA
ATOM     11  C   UNL d   1     -54.767-102.873 -42.086  0.00  0.00     0.127 A 
ATOM     12  C   UNL d   1     -54.723-101.136 -39.046  0.00  0.00     0.172 A 
ENDROOT
BRANCH   5  13
ATOM     13  C   UNL d   1     -54.780-100.817 -42.728  0.00  0.00     0.085 A 
ATOM     14  C   UNL d   1     -54.783-100.903 -43.541  0.00  0.00     0.019 A 
ATOM     15  C   UNL d   1     -54.792-100.225 -44.032  0.00  0.00     0.002 A 
ATOM     16  C   UNL d   1     -54.796-100.308 -44.902  0.00  0.00     0.000 C 
ATOM     17  C   UNL d   1     -54.797 -99.464 -43.695  0.00  0.00     0.000 A 
ATOM     18  C   UNL d   1     -54.793 -99.385 -42.861  0.00  0.00     0.002 A 
ATOM     19  C   UNL d   1     -54.806 -98.758 -44.202  0.00  0.00     0.000 C 
ATOM     20  C   UNL d   1     -54.785-100.054 -42.379  0.00  0.00     0.019 A 
ENDBRANCH   5  13
BRANCH  12  21
ATOM     21  C   UNL d   1     -54.719-100.401 -38.719  0.00  0.00     0.039 C 
ATOM     22  C   UNL d   1     -54.732-100.317 -37.926  0.00  0.00     0.003 C 
ENDBRANCH  12  21
TORSDOF 2
ENDMDL
