MODEL 1
REMARK VINA RESULT:      -8.3      0.000      0.000
REMARK  10 active torsions:
REMARK  status: ('A' for Active; 'I' for Inactive)
REMARK    1  A    between atoms: C_18  and  N_1 
REMARK    2  A    between atoms: S_7  and  C_2 
REMARK       I    between atoms: C_6  and  N_14 
REMARK    3  A    between atoms: C_9  and  C_6 
REMARK    4  A    between atoms: C_15  and  S_7 
REMARK    5  A    between atoms: C_8  and  C_15 
REMARK       I    between atoms: N_10  and  C_8 
REMARK    6  A    between atoms: C_19  and  N_10 
REMARK    7  A    between atoms: N_14  and  C_25 
REMARK    8  A    between atoms: C_25  and  C_18 
REMARK    9  A    between atoms: C_23  and  C_19 
REMARK   10  A    between atoms: O_27  and  C_20 
ROOT
ATOM      1  N   UNL d   1      51.645  34.207  53.249  0.00  0.00    -0.302 N 
ATOM      2  C   UNL d   1      52.494  33.164  53.191  0.00  0.00     0.049 A 
ATOM      3  C   UNL d   1      51.748  33.435  52.949  0.00  0.00     0.087 A 
ATOM      4  C   UNL d   1      52.853  33.766  53.641  0.00  0.00     0.024 A 
ATOM      5  C   UNL d   1      52.328  34.409  53.676  0.00  0.00     0.065 A 
ATOM      6  C   UNL d   1      53.586  33.814  54.023  0.00  0.00     0.002 A 
ATOM      7  C   UNL d   1      52.534  35.093  54.089  0.00  0.00     0.018 A 
ATOM      8  C   UNL d   1      53.790  34.495  54.433  0.00  0.00     0.000 A 
ATOM      9  C   UNL d   1      53.266  35.138  54.468  0.00  0.00     0.002 A 
ENDROOT
BRANCH   1  10
ATOM     10  C   UNL d   1      50.981  34.684  53.140  0.00  0.00     0.101 C 
BRANCH  10  11
ATOM     11  C   UNL d   1      50.365  34.427  52.658  0.00  0.00     0.121 C 
BRANCH  11  12
ATOM     12  N   UNL d   1      49.647  34.834  52.655  0.00  0.00    -0.205 NA
ATOM     13  C   UNL d   1      49.150  34.795  51.997  0.00  0.00     0.279 C 
ATOM     14  O   UNL d   1      49.375  34.345  51.340  0.00  0.00    -0.265 OA
BRANCH  13  15
ATOM     15  C   UNL d   1      48.434  35.201  51.993  0.00  0.00     0.058 A 
ATOM     16  C   UNL d   1      47.912  35.125  51.342  0.00  0.00     0.007 A 
ATOM     17  C   UNL d   1      47.196  35.532  51.340  0.00  0.00     0.024 A 
ATOM     18  C   UNL d   1      47.005  36.012  51.987  0.00  0.00     0.094 A 
ATOM     19  C   UNL d   1      47.516  36.087  52.626  0.00  0.00     0.024 A 
ATOM     20  C   UNL d   1      48.229  35.681  52.626  0.00  0.00     0.007 A 
BRANCH  18  21
ATOM     21  O   UNL d   1      46.279  36.430  51.995  0.00  0.00    -0.328 OA
ATOM     22  C   UNL d   1      45.611  36.125  52.373  0.00  0.00     0.181 C 
ENDBRANCH  18  21
ENDBRANCH  13  15
ENDBRANCH  11  12
ENDBRANCH  10  11
ENDBRANCH   1  10
BRANCH   2  23
ATOM     23  S   UNL d   1      52.827  32.428  53.019  0.00  0.00    -0.080 SA
BRANCH  23  24
ATOM     24  C   UNL d   1      52.340  31.757  52.997  0.00  0.00     0.098 C 
BRANCH  24  25
ATOM     25  C   UNL d   1      52.677  31.009  52.909  0.00  0.00     0.286 C 
ATOM     26  N   UNL d   1      52.724  30.496  53.553  0.00  0.00    -0.204 NA
ATOM     27  O   UNL d   1      52.970  30.773  52.176  0.00  0.00    -0.265 OA
BRANCH  26  28
ATOM     28  C   UNL d   1      53.062  29.746  53.463  0.00  0.00     0.127 C 
BRANCH  28  29
ATOM     29  C   UNL d   1      53.192  29.278  54.112  0.00  0.00     0.119 A 
ATOM     30  O   UNL d   1      52.700  29.181  54.761  0.00  0.00    -0.304 OA
ATOM     31  C   UNL d   1      53.052  28.653  55.291  0.00  0.00     0.123 A 
ATOM     32  C   UNL d   1      53.774  28.418  54.968  0.00  0.00     0.029 A 
ATOM     33  C   UNL d   1      53.859  28.798  54.251  0.00  0.00     0.028 A 
ENDBRANCH  28  29
ENDBRANCH  26  28
ENDBRANCH  24  25
ENDBRANCH  23  24
ENDBRANCH   2  23
TORSDOF 10
ENDMDL
MODEL 2
REMARK VINA RESULT:      -6.5      1.041      6.572
REMARK  10 active torsions:
REMARK  status: ('A' for Active; 'I' for Inactive)
REMARK    1  A    between atoms: C_18  and  N_1 
REMARK    2  A    between atoms: S_7  and  C_2 
REMARK       I    between atoms: C_6  and  N_14 
REMARK    3  A    between atoms: C_9  and  C_6 
REMARK    4  A    between atoms: C_15  and  S_7 
REMARK    5  A    between atoms: C_8  and  C_15 
REMARK       I    between atoms: N_10  and  C_8 
REMARK    6  A    between atoms: C_19  and  N_10 
REMARK    7  A    between atoms: N_14  and  C_25 
REMARK    8  A    between atoms: C_25  and  C_18 
REMARK    9  A    between atoms: C_23  and  C_19 
REMARK   10  A    between atoms: O_27  and  C_20 
ROOT
ATOM      1  N   UNL d   1      52.768  33.641  53.150  0.00  0.00    -0.302 N 
ATOM      2  C   UNL d   1      51.727  34.490  53.058  0.00  0.00     0.049 A 
ATOM      3  C   UNL d   1      52.038  33.777  52.769  0.00  0.00     0.087 A 
ATOM      4  C   UNL d   1      52.264  34.796  53.617  0.00  0.00     0.024 A 
ATOM      5  C   UNL d   1      52.905  34.271  53.672  0.00  0.00     0.065 A 
ATOM      6  C   UNL d   1      52.253  35.481  54.082  0.00  0.00     0.002 A 
ATOM      7  C   UNL d   1      53.530  34.430  54.187  0.00  0.00     0.018 A 
ATOM      8  C   UNL d   1      52.875  35.638  54.594  0.00  0.00     0.000 A 
ATOM      9  C   UNL d   1      53.517  35.113  54.649  0.00  0.00     0.002 A 
ENDROOT
BRANCH   1  10
ATOM     10  C   UNL d   1      53.264  32.994  53.027  0.00  0.00     0.101 C 
BRANCH  10  11
ATOM     11  C   UNL d   1      52.948  32.273  52.785  0.00  0.00     0.121 C 
BRANCH  11  12
ATOM     12  N   UNL d   1      53.043  31.603  53.257  0.00  0.00    -0.205 NA
ATOM     13  C   UNL d   1      52.975  30.849  52.926  0.00  0.00     0.279 C 
ATOM     14  O   UNL d   1      52.813  30.768  52.119  0.00  0.00    -0.265 OA
BRANCH  13  15
ATOM     15  C   UNL d   1      53.070  30.180  53.398  0.00  0.00     0.058 A 
ATOM     16  C   UNL d   1      53.745  30.103  53.886  0.00  0.00     0.007 A 
ATOM     17  C   UNL d   1      53.839  29.433  54.357  0.00  0.00     0.024 A 
ATOM     18  C   UNL d   1      53.256  28.845  54.336  0.00  0.00     0.094 A 
ATOM     19  C   UNL d   1      52.593  28.918  53.857  0.00  0.00     0.024 A 
ATOM     20  C   UNL d   1      52.503  29.587  53.389  0.00  0.00     0.007 A 
BRANCH  18  21
ATOM     21  O   UNL d   1      53.341  28.159  54.811  0.00  0.00    -0.328 OA
ATOM     22  C   UNL d   1      53.438  28.213  55.629  0.00  0.00     0.181 C 
ENDBRANCH  18  21
ENDBRANCH  13  15
ENDBRANCH  11  12
ENDBRANCH  10  11
ENDBRANCH   1  10
BRANCH   2  23
ATOM     23  S   UNL d   1      51.013  34.839  52.835  0.00  0.00    -0.080 SA
BRANCH  23  24
ATOM     24  C   UNL d   1      50.321  34.383  52.831  0.00  0.00     0.098 C 
BRANCH  24  25
ATOM     25  C   UNL d   1      49.630  34.690  52.502  0.00  0.00     0.286 C 
ATOM     26  N   UNL d   1      49.107  35.128  52.966  0.00  0.00    -0.204 NA
ATOM     27  O   UNL d   1      49.460  34.560  51.706  0.00  0.00    -0.265 OA
BRANCH  26  28
ATOM     28  C   UNL d   1      48.414  35.435  52.633  0.00  0.00     0.127 C 
BRANCH  28  29
ATOM     29  C   UNL d   1      47.902  35.869  53.089  0.00  0.00     0.119 A 
ATOM     30  O   UNL d   1      47.981  36.056  53.884  0.00  0.00    -0.304 OA
ATOM     31  C   UNL d   1      47.331  36.507  54.122  0.00  0.00     0.123 A 
ATOM     32  C   UNL d   1      46.839  36.603  53.466  0.00  0.00     0.029 A 
ATOM     33  C   UNL d   1      47.187  36.214  52.837  0.00  0.00     0.028 A 
ENDBRANCH  28  29
ENDBRANCH  26  28
ENDBRANCH  24  25
ENDBRANCH  23  24
ENDBRANCH   2  23
TORSDOF 10
ENDMDL
MODEL 3
REMARK VINA RESULT:      -5.4      2.377      7.239
REMARK  10 active torsions:
REMARK  status: ('A' for Active; 'I' for Inactive)
REMARK    1  A    between atoms: C_18  and  N_1 
REMARK    2  A    between atoms: S_7  and  C_2 
REMARK       I    between atoms: C_6  and  N_14 
REMARK    3  A    between atoms: C_9  and  C_6 
REMARK    4  A    between atoms: C_15  and  S_7 
REMARK    5  A    between atoms: C_8  and  C_15 
REMARK       I    between atoms: N_10  and  C_8 
REMARK    6  A    between atoms: C_19  and  N_10 
REMARK    7  A    between atoms: N_14  and  C_25 
REMARK    8  A    between atoms: C_25  and  C_18 
REMARK    9  A    between atoms: C_23  and  C_19 
REMARK   10  A    between atoms: O_27  and  C_20 
ROOT
ATOM      1  N   UNL d   1      49.411  34.823  52.307  0.00  0.00    -0.302 N 
ATOM      2  C   UNL d   1      48.522  35.636  52.907  0.00  0.00     0.049 A 
ATOM      3  C   UNL d   1      49.263  35.273  52.993  0.00  0.00     0.087 A 
ATOM      4  C   UNL d   1      48.210  35.411  52.168  0.00  0.00     0.024 A 
ATOM      5  C   UNL d   1      48.760  34.909  51.799  0.00  0.00     0.065 A 
ATOM      6  C   UNL d   1      47.500  35.595  51.783  0.00  0.00     0.002 A 
ATOM      7  C   UNL d   1      48.602  34.595  51.052  0.00  0.00     0.018 A 
ATOM      8  C   UNL d   1      47.344  35.282  51.041  0.00  0.00     0.000 A 
ATOM      9  C   UNL d   1      47.893  34.781  50.672  0.00  0.00     0.002 A 
ENDROOT
BRANCH   1  10
ATOM     10  C   UNL d   1      50.086  34.372  52.160  0.00  0.00     0.101 C 
BRANCH  10  11
ATOM     11  C   UNL d   1      50.768  34.495  52.605  0.00  0.00     0.121 C 
BRANCH  11  12
ATOM     12  N   UNL d   1      51.269  33.862  52.774  0.00  0.00    -0.205 NA
ATOM     13  C   UNL d   1      52.001  33.996  53.132  0.00  0.00     0.279 C 
ATOM     14  O   UNL d   1      52.230  34.767  53.321  0.00  0.00    -0.265 OA
BRANCH  13  15
ATOM     15  C   UNL d   1      52.502  33.364  53.301  0.00  0.00     0.058 A 
ATOM     16  C   UNL d   1      53.124  33.458  53.853  0.00  0.00     0.007 A 
ATOM     17  C   UNL d   1      53.625  32.826  54.021  0.00  0.00     0.024 A 
ATOM     18  C   UNL d   1      53.500  32.103  53.637  0.00  0.00     0.094 A 
ATOM     19  C   UNL d   1      52.890  32.009  53.095  0.00  0.00     0.024 A 
ATOM     20  C   UNL d   1      52.393  32.641  52.929  0.00  0.00     0.007 A 
BRANCH  18  21
ATOM     21  O   UNL d   1      54.003  31.453  53.800  0.00  0.00    -0.328 OA
ATOM     22  C   UNL d   1      53.699  30.696  53.927  0.00  0.00     0.181 C 
ENDBRANCH  18  21
ENDBRANCH  13  15
ENDBRANCH  11  12
ENDBRANCH  10  11
ENDBRANCH   1  10
BRANCH   2  23
ATOM     23  S   UNL d   1      48.153  36.133  53.454  0.00  0.00    -0.080 SA
BRANCH  23  24
ATOM     24  C   UNL d   1      47.544  35.834  53.929  0.00  0.00     0.098 C 
BRANCH  24  25
ATOM     25  C   UNL d   1      47.287  36.263  54.584  0.00  0.00     0.286 C 
ATOM     26  N   UNL d   1      46.492  36.252  54.804  0.00  0.00    -0.204 NA
ATOM     27  O   UNL d   1      47.826  36.706  55.023  0.00  0.00    -0.265 OA
BRANCH  26  28
ATOM     28  C   UNL d   1      46.237  36.684  55.462  0.00  0.00     0.127 C 
BRANCH  28  29
ATOM     29  C   UNL d   1      45.537  36.494  55.826  0.00  0.00     0.119 A 
ATOM     30  O   UNL d   1      45.295  36.709  56.580  0.00  0.00    -0.304 OA
ATOM     31  C   UNL d   1      44.544  36.395  56.722  0.00  0.00     0.123 A 
ATOM     32  C   UNL d   1      44.314  35.978  56.048  0.00  0.00     0.029 A 
ATOM     33  C   UNL d   1      44.920  36.039  55.503  0.00  0.00     0.028 A 
ENDBRANCH  28  29
ENDBRANCH  26  28
ENDBRANCH  24  25
ENDBRANCH  23  24
ENDBRANCH   2  23
TORSDOF 10
ENDMDL
