MODEL 1
REMARK VINA RESULT:      -4.5      0.000      0.000
REMARK  6 active torsions:
REMARK  status: ('A' for Active; 'I' for Inactive)
REMARK    1  A    between atoms: N_2  and  S_1 
REMARK    2  A    between atoms: C_6  and  S_1 
REMARK    3  A    between atoms: S_7  and  C_3 
REMARK    4  A    between atoms: N_4  and  C_10 
REMARK    5  A    between atoms: C_21  and  S_7 
REMARK    6  A    between atoms: C_20  and  C_21 
ROOT
ATOM      1  N   UNL d   1     -41.384-122.196 -51.417  0.00  0.00    -0.208 N 
ATOM      2  C   UNL d   1     -41.405-121.748 -52.117  0.00  0.00     0.189 A 
ATOM      3  N   UNL d   1     -41.244-120.959 -51.924  0.00  0.00    -0.219 NA
ATOM      4  C   UNL d   1     -41.208-121.679 -50.788  0.00  0.00     0.114 A 
ATOM      5  C   UNL d   1     -41.123-120.921 -51.105  0.00  0.00     0.121 A 
ENDROOT
BRANCH   1   6
ATOM      6  S   UNL d   1     -41.515-123.013 -51.360  0.00  0.00     0.273 S 
ATOM      7  O   UNL d   1     -41.306-123.065 -52.149  0.00  0.00    -0.200 OA
ATOM      8  O   UNL d   1     -41.577-123.817 -51.546  0.00  0.00    -0.200 OA
BRANCH   6   9
ATOM      9  C   UNL d   1     -41.729-122.980 -50.562  0.00  0.00     0.104 A 
ATOM     10  C   UNL d   1     -41.143-122.976 -49.987  0.00  0.00     0.015 A 
ATOM     11  C   UNL d   1     -41.353-122.943 -49.187  0.00  0.00     0.024 A 
ATOM     12  C   UNL d   1     -42.152-122.914 -48.982  0.00  0.00     0.127 A 
ATOM     13  C   UNL d   1     -42.735-122.918 -49.564  0.00  0.00     0.024 A 
ATOM     14  C   UNL d   1     -42.527-122.951 -50.361  0.00  0.00     0.015 A 
BRANCH  12  15
ATOM     15  N   UNL d   1     -42.367-122.881 -48.175  0.00  0.00    -0.114 N 
ATOM     16  O   UNL d   1     -42.877-122.283 -47.913  0.00  0.00    -0.532 OA
ATOM     17  O   UNL d   1     -42.072-123.439 -47.646  0.00  0.00    -0.532 OA
ENDBRANCH  12  15
ENDBRANCH   6   9
ENDBRANCH   1   6
BRANCH   2  18
ATOM     18  S   UNL d   1     -41.562-122.043 -52.880  0.00  0.00    -0.049 SA
BRANCH  18  19
ATOM     19  C   UNL d   1     -41.506-121.541 -53.532  0.00  0.00     0.040 C 
BRANCH  19  20
ATOM     20  C   UNL d   1     -41.848-121.761 -54.249  0.00  0.00     0.026 A 
ATOM     21  C   UNL d   1     -42.669-121.638 -54.377  0.00  0.00     0.099 A 
ATOM     22  N   UNL d   1     -43.025-121.852 -55.087  0.00  0.00    -0.242 NA
ATOM     23  C   UNL d   1     -42.557-122.191 -55.676  0.00  0.00     0.099 A 
ATOM     24  C   UNL d   1     -41.751-122.314 -55.556  0.00  0.00     0.021 A 
ATOM     25  C   UNL d   1     -41.398-122.098 -54.842  0.00  0.00     0.004 A 
ENDBRANCH  19  20
ENDBRANCH  18  19
ENDBRANCH   2  18
TORSDOF 6
ENDMDL
MODEL 2
REMARK VINA RESULT:      -4.0      1.419      4.816
REMARK  6 active torsions:
REMARK  status: ('A' for Active; 'I' for Inactive)
REMARK    1  A    between atoms: N_2  and  S_1 
REMARK    2  A    between atoms: C_6  and  S_1 
REMARK    3  A    between atoms: S_7  and  C_3 
REMARK    4  A    between atoms: N_4  and  C_10 
REMARK    5  A    between atoms: C_21  and  S_7 
REMARK    6  A    between atoms: C_20  and  C_21 
ROOT
ATOM      1  N   UNL d   1     -41.361-122.235 -52.123  0.00  0.00    -0.208 N 
ATOM      2  C   UNL d   1     -41.440-122.043 -51.318  0.00  0.00     0.189 A 
ATOM      3  N   UNL d   1     -41.301-121.232 -51.231  0.00  0.00    -0.219 NA
ATOM      4  C   UNL d   1     -41.171-121.536 -52.534  0.00  0.00     0.114 A 
ATOM      5  C   UNL d   1     -41.136-120.923 -51.982  0.00  0.00     0.121 A 
ENDROOT
BRANCH   1   6
ATOM      6  S   UNL d   1     -41.455-122.990 -52.453  0.00  0.00     0.273 S 
ATOM      7  O   UNL d   1     -41.292-123.295 -51.711  0.00  0.00    -0.200 OA
ATOM      8  O   UNL d   1     -41.495-123.812 -52.544  0.00  0.00    -0.200 OA
BRANCH   6   9
ATOM      9  C   UNL d   1     -41.621-122.700 -53.209  0.00  0.00     0.104 A 
ATOM     10  C   UNL d   1     -41.169-122.955 -53.847  0.00  0.00     0.015 A 
ATOM     11  C   UNL d   1     -41.332-122.668 -54.606  0.00  0.00     0.024 A 
ATOM     12  C   UNL d   1     -41.948-122.128 -54.708  0.00  0.00     0.127 A 
ATOM     13  C   UNL d   1     -42.397-121.877 -54.064  0.00  0.00     0.024 A 
ATOM     14  C   UNL d   1     -42.235-122.163 -53.308  0.00  0.00     0.015 A 
BRANCH  12  15
ATOM     15  N   UNL d   1     -42.115-121.836 -55.472  0.00  0.00    -0.114 N 
ATOM     16  O   UNL d   1     -41.769-121.126 -55.723  0.00  0.00    -0.532 OA
ATOM     17  O   UNL d   1     -42.619-122.253 -55.972  0.00  0.00    -0.532 OA
ENDBRANCH  12  15
ENDBRANCH   6   9
ENDBRANCH   1   6
BRANCH   2  18
ATOM     18  S   UNL d   1     -41.627-122.577 -50.705  0.00  0.00    -0.049 SA
BRANCH  18  19
ATOM     19  C   UNL d   1     -41.708-122.300 -49.933  0.00  0.00     0.040 C 
BRANCH  19  20
ATOM     20  C   UNL d   1     -41.977-122.808 -49.342  0.00  0.00     0.026 A 
ATOM     21  C   UNL d   1     -42.802-122.890 -49.202  0.00  0.00     0.099 A 
ATOM     22  N   UNL d   1     -43.086-123.392 -48.617  0.00  0.00    -0.242 NA
ATOM     23  C   UNL d   1     -42.542-123.817 -48.164  0.00  0.00     0.099 A 
ATOM     24  C   UNL d   1     -41.732-123.741 -48.297  0.00  0.00     0.021 A 
ATOM     25  C   UNL d   1     -41.452-123.235 -48.886  0.00  0.00     0.004 A 
ENDBRANCH  19  20
ENDBRANCH  18  19
ENDBRANCH   2  18
TORSDOF 6
ENDMDL
