MODEL 1
REMARK VINA RESULT:      -8.5      0.000      0.000
REMARK  5 active torsions:
REMARK  status: ('A' for Active; 'I' for Inactive)
REMARK    1  A    between atoms: C_23  and  N_10 
REMARK    2  A    between atoms: C_14  and  N_13 
REMARK    3  A    between atoms: N_15  and  C_28 
REMARK    4  A    between atoms: C_27  and  C_23 
REMARK    5  A    between atoms: C_28  and  C_27 
ROOT
ATOM      1  C   UNL d   1      46.314  35.726  52.963  0.00  0.00     0.173 A 
ATOM      2  C   UNL d   1      47.020  35.861  53.327  0.00  0.00     0.191 A 
ATOM      3  C   UNL d   1      47.723  35.348  52.196  0.00  0.00     0.722 A 
ATOM      4  N   UNL d   1      47.002  35.205  51.812  0.00  0.00    -0.131 N 
ATOM      5  N   UNL d   1      47.732  35.675  52.952  0.00  0.00    -0.042 NA
ATOM      6  N   UNL d   1      47.045  36.186  54.080  0.00  0.00    -0.240 N 
ATOM      7  N   UNL d   1      45.583  36.223  54.055  0.00  0.00    -0.223 N 
ATOM      8  C   UNL d   1      46.324  36.369  54.448  0.00  0.00     0.343 A 
ATOM      9  C   UNL d   1      45.583  35.897  53.303  0.00  0.00     0.288 A 
ATOM     10  N   UNL d   1      48.435  35.162  51.821  0.00  0.00    -0.139 N 
ATOM     11  C   UNL d   1      47.710  34.688  50.672  0.00  0.00     0.116 A 
ATOM     12  C   UNL d   1      48.432  34.830  51.055  0.00  0.00     0.100 A 
ATOM     13  O   UNL d   1      46.367  36.709  55.236  0.00  0.00    -0.245 OA
ATOM     14  O   UNL d   1      44.863  35.755  52.920  0.00  0.00    -0.265 OA
ATOM     15  C   UNL d   1      47.766  36.329  54.463  0.00  0.00     0.105 C 
ATOM     16  C   UNL d   1      44.871  36.408  54.429  0.00  0.00     0.107 C 
ATOM     17  C   UNL d   1      49.157  34.653  50.701  0.00  0.00     0.021 C 
ENDROOT
BRANCH  10  18
ATOM     18  C   UNL d   1      49.158  35.302  52.198  0.00  0.00     0.100 C 
BRANCH  18  19
ATOM     19  C   UNL d   1      49.659  34.671  52.403  0.00  0.00     0.039 C 
BRANCH  19  20
ATOM     20  C   UNL d   1      50.312  34.801  52.876  0.00  0.00     0.082 C 
BRANCH  20  21
ATOM     21  N   UNL d   1      50.878  34.209  52.975  0.00  0.00    -0.300 N 
ATOM     22  C   UNL d   1      51.630  34.303  52.647  0.00  0.00     0.100 A 
ATOM     23  C   UNL d   1      52.194  33.705  52.750  0.00  0.00     0.100 A 
ATOM     24  N   UNL d   1      52.010  33.025  53.172  0.00  0.00    -0.301 N 
ATOM     25  C   UNL d   1      51.256  32.935  53.498  0.00  0.00     0.100 A 
ATOM     26  C   UNL d   1      50.692  33.523  53.400  0.00  0.00     0.100 A 
BRANCH  24  27
ATOM     27  C   UNL d   1      52.576  32.433  53.270  0.00  0.00     0.065 A 
ATOM     28  C   UNL d   1      52.474  31.704  52.915  0.00  0.00     0.029 A 
ATOM     29  C   UNL d   1      53.031  31.118  53.010  0.00  0.00     0.059 A 
ATOM     30 CL   UNL d   1      52.927  30.374  52.647  0.00  0.00    -0.082 Cl
ATOM     31  C   UNL d   1      53.706  31.261  53.470  0.00  0.00     0.011 A 
ATOM     32  C   UNL d   1      53.814  31.996  53.830  0.00  0.00     0.002 A 
ATOM     33  C   UNL d   1      53.247  32.587  53.732  0.00  0.00     0.018 A 
ENDBRANCH  24  27
ENDBRANCH  20  21
ENDBRANCH  19  20
ENDBRANCH  18  19
ENDBRANCH  10  18
TORSDOF 5
ENDMDL
MODEL 2
REMARK VINA RESULT:      -7.0      3.444      6.979
REMARK  5 active torsions:
REMARK  status: ('A' for Active; 'I' for Inactive)
REMARK    1  A    between atoms: C_23  and  N_10 
REMARK    2  A    between atoms: C_14  and  N_13 
REMARK    3  A    between atoms: N_15  and  C_28 
REMARK    4  A    between atoms: C_27  and  C_23 
REMARK    5  A    between atoms: C_28  and  C_27 
ROOT
ATOM      1  C   UNL d   1      53.487  30.551  54.552  0.00  0.00     0.173 A 
ATOM      2  C   UNL d   1      53.253  30.902  53.865  0.00  0.00     0.191 A 
ATOM      3  C   UNL d   1      53.645  32.181  54.363  0.00  0.00     0.722 A 
ATOM      4  N   UNL d   1      53.888  31.830  55.074  0.00  0.00    -0.131 N 
ATOM      5  N   UNL d   1      53.328  31.717  53.759  0.00  0.00    -0.042 NA
ATOM      6  N   UNL d   1      52.936  30.453  53.256  0.00  0.00    -0.240 N 
ATOM      7  N   UNL d   1      53.115  29.273  54.101  0.00  0.00    -0.223 N 
ATOM      8  C   UNL d   1      52.865  29.634  53.371  0.00  0.00     0.343 A 
ATOM      9  C   UNL d   1      53.429  29.741  54.696  0.00  0.00     0.288 A 
ATOM     10  N   UNL d   1      53.719  32.996  54.257  0.00  0.00    -0.139 N 
ATOM     11  C   UNL d   1      54.282  33.119  55.576  0.00  0.00     0.116 A 
ATOM     12  C   UNL d   1      54.040  33.470  54.865  0.00  0.00     0.100 A 
ATOM     13  O   UNL d   1      52.532  29.179  52.724  0.00  0.00    -0.245 OA
ATOM     14  O   UNL d   1      53.671  29.391  55.406  0.00  0.00    -0.265 OA
ATOM     15  C   UNL d   1      52.694  30.804  52.545  0.00  0.00     0.105 C 
ATOM     16  C   UNL d   1      53.040  28.458  54.207  0.00  0.00     0.107 C 
ATOM     17  C   UNL d   1      54.104  34.284  54.735  0.00  0.00     0.021 C 
ENDROOT
BRANCH  10  18
ATOM     18  C   UNL d   1      53.479  33.353  53.550  0.00  0.00     0.100 C 
BRANCH  18  19
ATOM     19  C   UNL d   1      52.736  33.721  53.492  0.00  0.00     0.039 C 
BRANCH  19  20
ATOM     20  C   UNL d   1      52.572  34.219  52.865  0.00  0.00     0.082 C 
BRANCH  20  21
ATOM     21  N   UNL d   1      51.792  34.347  52.630  0.00  0.00    -0.300 N 
ATOM     22  C   UNL d   1      51.598  34.324  51.828  0.00  0.00     0.100 A 
ATOM     23  C   UNL d   1      50.812  34.453  51.598  0.00  0.00     0.100 A 
ATOM     24  N   UNL d   1      50.232  34.604  52.159  0.00  0.00    -0.301 N 
ATOM     25  C   UNL d   1      50.431  34.627  52.961  0.00  0.00     0.100 A 
ATOM     26  C   UNL d   1      51.207  34.500  53.196  0.00  0.00     0.100 A 
BRANCH  24  27
ATOM     27  C   UNL d   1      49.452  34.733  51.923  0.00  0.00     0.065 A 
ATOM     28  C   UNL d   1      48.967  35.225  52.359  0.00  0.00     0.029 A 
ATOM     29  C   UNL d   1      48.197  35.354  52.129  0.00  0.00     0.059 A 
ATOM     30 CL   UNL d   1      47.701  35.857  52.574  0.00  0.00    -0.082 Cl
ATOM     31  C   UNL d   1      47.902  34.984  51.448  0.00  0.00     0.011 A 
ATOM     32  C   UNL d   1      48.388  34.485  51.004  0.00  0.00     0.002 A 
ATOM     33  C   UNL d   1      49.168  34.357  51.240  0.00  0.00     0.018 A 
ENDBRANCH  24  27
ENDBRANCH  20  21
ENDBRANCH  19  20
ENDBRANCH  18  19
ENDBRANCH  10  18
TORSDOF 5
ENDMDL
MODEL 3
REMARK VINA RESULT:      -6.6      3.120      6.833
REMARK  5 active torsions:
REMARK  status: ('A' for Active; 'I' for Inactive)
REMARK    1  A    between atoms: C_23  and  N_10 
REMARK    2  A    between atoms: C_14  and  N_13 
REMARK    3  A    between atoms: N_15  and  C_28 
REMARK    4  A    between atoms: C_27  and  C_23 
REMARK    5  A    between atoms: C_28  and  C_27 
ROOT
ATOM      1  C   UNL d   1      53.342  31.555  54.168  0.00  0.00     0.173 A 
ATOM      2  C   UNL d   1      52.890  31.692  53.514  0.00  0.00     0.191 A 
ATOM      3  C   UNL d   1      52.927  33.097  53.759  0.00  0.00     0.722 A 
ATOM      4  N   UNL d   1      53.392  32.967  54.433  0.00  0.00    -0.131 N 
ATOM      5  N   UNL d   1      52.677  32.460  53.300  0.00  0.00    -0.042 NA
ATOM      6  N   UNL d   1      52.633  31.067  53.048  0.00  0.00    -0.240 N 
ATOM      7  N   UNL d   1      53.330  30.165  53.964  0.00  0.00    -0.223 N 
ATOM      8  C   UNL d   1      52.853  30.298  53.271  0.00  0.00     0.343 A 
ATOM      9  C   UNL d   1      53.575  30.804  54.414  0.00  0.00     0.288 A 
ATOM     10  N   UNL d   1      52.714  33.865  53.545  0.00  0.00    -0.139 N 
ATOM     11  C   UNL d   1      53.430  34.384  54.681  0.00  0.00     0.116 A 
ATOM     12  C   UNL d   1      52.965  34.514  54.007  0.00  0.00     0.100 A 
ATOM     13  O   UNL d   1      52.576  29.657  52.772  0.00  0.00    -0.245 OA
ATOM     14  O   UNL d   1      54.039  30.674  55.087  0.00  0.00    -0.265 OA
ATOM     15  C   UNL d   1      52.169  31.197  52.374  0.00  0.00     0.105 C 
ATOM     16  C   UNL d   1      53.544  29.397  54.178  0.00  0.00     0.107 C 
ATOM     17  C   UNL d   1      52.739  35.274  53.772  0.00  0.00     0.021 C 
ENDROOT
BRANCH  10  18
ATOM     18  C   UNL d   1      52.250  34.002  52.873  0.00  0.00     0.100 C 
BRANCH  18  19
ATOM     19  C   UNL d   1      51.460  34.249  52.947  0.00  0.00     0.039 C 
BRANCH  19  20
ATOM     20  C   UNL d   1      50.936  34.136  52.330  0.00  0.00     0.082 C 
BRANCH  20  21
ATOM     21  N   UNL d   1      50.198  34.506  52.341  0.00  0.00    -0.300 N 
ATOM     22  C   UNL d   1      49.745  34.533  51.651  0.00  0.00     0.100 A 
ATOM     23  C   UNL d   1      49.005  34.905  51.667  0.00  0.00     0.100 A 
ATOM     24  N   UNL d   1      48.722  35.243  52.360  0.00  0.00    -0.301 N 
ATOM     25  C   UNL d   1      49.179  35.214  53.048  0.00  0.00     0.100 A 
ATOM     26  C   UNL d   1      49.913  34.847  53.039  0.00  0.00     0.100 A 
BRANCH  24  27
ATOM     27  C   UNL d   1      47.984  35.612  52.369  0.00  0.00     0.065 A 
ATOM     28  C   UNL d   1      47.438  35.451  51.783  0.00  0.00     0.029 A 
ATOM     29  C   UNL d   1      46.709  35.814  51.789  0.00  0.00     0.059 A 
ATOM     30 CL   UNL d   1      46.151  35.649  51.191  0.00  0.00    -0.082 Cl
ATOM     31  C   UNL d   1      46.519  36.349  52.393  0.00  0.00     0.011 A 
ATOM     32  C   UNL d   1      47.068  36.514  52.987  0.00  0.00     0.002 A 
ATOM     33  C   UNL d   1      47.805  36.146  52.978  0.00  0.00     0.018 A 
ENDBRANCH  24  27
ENDBRANCH  20  21
ENDBRANCH  19  20
ENDBRANCH  18  19
ENDBRANCH  10  18
TORSDOF 5
ENDMDL
