MODEL 1
REMARK VINA RESULT:     125.2      0.000      0.000
REMARK  2 active torsions:
REMARK  status: ('A' for Active; 'I' for Inactive)
REMARK       I    between atoms: N_3  and  C_1 
REMARK       I    between atoms: N_4  and  C_1 
REMARK       I    between atoms: C_2  and  N_5 
REMARK       I    between atoms: N_6  and  C_2 
REMARK    1  A    between atoms: C_13  and  N_4 
REMARK    2  A    between atoms: C_14  and  N_4 
ROOT
ATOM      1  C   UNL d   1     -55.303-101.788 -43.094  0.00  0.00     0.339 C 
ATOM      2  C   UNL d   1     -55.003-100.916 -39.926  0.00  0.00     0.340 C 
ATOM      3  N   UNL d   1     -55.227-101.568 -42.290  0.00  0.00    -0.254 N 
ATOM      4  N   UNL d   1     -55.354-101.210 -43.677  0.00  0.00    -0.260 N 
ATOM      5  N   UNL d   1     -55.078-101.137 -40.716  0.00  0.00    -0.254 N 
ATOM      6  N   UNL d   1     -54.952-101.493 -39.339  0.00  0.00    -0.253 N 
ATOM      7  O   UNL d   1     -55.327-102.592 -43.301  0.00  0.00    -0.245 OA
ATOM      8  O   UNL d   1     -54.979-100.122 -39.724  0.00  0.00    -0.245 OA
ATOM      9  C   UNL d   1     -55.176-102.169 -41.709  0.00  0.00     0.104 A 
ATOM     10  C   UNL d   1     -55.203-100.782 -42.086  0.00  0.00     0.104 A 
ATOM     11  C   UNL d   1     -55.129-100.566 -41.298  0.00  0.00     0.104 A 
ATOM     12  C   UNL d   1     -55.102-101.953 -40.921  0.00  0.00     0.104 A 
ATOM     13  O   UNL d   1     -54.849-102.647 -38.160  0.00  0.00    -0.300 OA
ATOM     14  C   UNL d   1     -54.877-101.268 -38.548  0.00  0.00     0.111 A 
ATOM     15  C   UNL d   1     -54.976-102.293 -39.546  0.00  0.00     0.111 A 
ATOM     16  C   UNL d   1     -54.924-102.868 -38.951  0.00  0.00     0.142 A 
ATOM     17  C   UNL d   1     -54.825-101.841 -37.958  0.00  0.00     0.142 A 
ENDROOT
BRANCH   4  18
ATOM     18  C   UNL d   1     -55.430-101.429 -44.477  0.00  0.00     0.068 A 
ATOM     19  C   UNL d   1     -55.107-102.151 -44.740  0.00  0.00     0.018 A 
ATOM     20  C   UNL d   1     -55.182-102.368 -45.532  0.00  0.00     0.002 A 
ATOM     21  C   UNL d   1     -55.576-101.870 -46.060  0.00  0.00     0.000 A 
ATOM     22  C   UNL d   1     -55.897-101.151 -45.798  0.00  0.00     0.002 A 
ATOM     23  C   UNL d   1     -55.822-100.933 -45.006  0.00  0.00     0.018 A 
ENDBRANCH   4  18
BRANCH   4  24
ATOM     24  C   UNL d   1     -55.330-100.416 -43.476  0.00  0.00     0.068 A 
ATOM     25  C   UNL d   1     -54.779 -99.913 -43.825  0.00  0.00     0.018 A 
ATOM     26  C   UNL d   1     -54.764 -99.124 -43.618  0.00  0.00     0.002 A 
ATOM     27  C   UNL d   1     -55.295 -98.822 -43.063  0.00  0.00     0.000 A 
ATOM     28  C   UNL d   1     -55.850 -99.331 -42.713  0.00  0.00     0.002 A 
ATOM     29  C   UNL d   1     -55.867-100.128 -42.920  0.00  0.00     0.018 A 
ENDBRANCH   4  24
TORSDOF 2
ENDMDL
MODEL 2
REMARK VINA RESULT:     126.0      1.345      5.261
REMARK  2 active torsions:
REMARK  status: ('A' for Active; 'I' for Inactive)
REMARK       I    between atoms: N_3  and  C_1 
REMARK       I    between atoms: N_4  and  C_1 
REMARK       I    between atoms: C_2  and  N_5 
REMARK       I    between atoms: N_6  and  C_2 
REMARK    1  A    between atoms: C_13  and  N_4 
REMARK    2  A    between atoms: C_14  and  N_4 
ROOT
ATOM      1  C   UNL d   1     -54.963 -99.831 -40.574  0.00  0.00     0.339 C 
ATOM      2  C   UNL d   1     -54.781-100.905 -43.688  0.00  0.00     0.340 C 
ATOM      3  N   UNL d   1     -54.917-100.103 -41.365  0.00  0.00    -0.254 N 
ATOM      4  N   UNL d   1     -54.938-100.368 -39.951  0.00  0.00    -0.260 N 
ATOM      5  N   UNL d   1     -54.827-100.634 -42.911  0.00  0.00    -0.254 N 
ATOM      6  N   UNL d   1     -54.806-100.370 -44.315  0.00  0.00    -0.253 N 
ATOM      7  O   UNL d   1     -55.033 -99.017 -40.421  0.00  0.00    -0.245 OA
ATOM      8  O   UNL d   1     -54.711-101.709 -43.837  0.00  0.00    -0.245 OA
ATOM      9  C   UNL d   1     -54.943 -99.543 -41.986  0.00  0.00     0.104 A 
ATOM     10  C   UNL d   1     -54.847-100.897 -41.515  0.00  0.00     0.104 A 
ATOM     11  C   UNL d   1     -54.802-101.164 -42.290  0.00  0.00     0.104 A 
ATOM     12  C   UNL d   1     -54.898 -99.809 -42.762  0.00  0.00     0.104 A 
ATOM     13  O   UNL d   1     -54.855 -99.299 -45.574  0.00  0.00    -0.300 OA
ATOM     14  C   UNL d   1     -54.760-100.645 -45.092  0.00  0.00     0.111 A 
ATOM     15  C   UNL d   1     -54.877 -99.560 -44.161  0.00  0.00     0.111 A 
ATOM     16  C   UNL d   1     -54.901 -99.027 -44.796  0.00  0.00     0.142 A 
ATOM     17  C   UNL d   1     -54.785-100.114 -45.721  0.00  0.00     0.142 A 
ENDROOT
BRANCH   4  18
ATOM     18  C   UNL d   1     -54.983-100.097 -39.164  0.00  0.00     0.068 A 
ATOM     19  C   UNL d   1     -55.253 -99.324 -39.008  0.00  0.00     0.018 A 
ATOM     20  C   UNL d   1     -55.299 -99.057 -38.229  0.00  0.00     0.002 A 
ATOM     21  C   UNL d   1     -55.076 -99.555 -37.609  0.00  0.00     0.000 A 
ATOM     22  C   UNL d   1     -54.807-100.325 -37.765  0.00  0.00     0.002 A 
ATOM     23  C   UNL d   1     -54.762-100.593 -38.544  0.00  0.00     0.018 A 
ENDBRANCH   4  18
BRANCH   4  24
ATOM     24  C   UNL d   1     -54.868-101.171 -40.099  0.00  0.00     0.068 A 
ATOM     25  C   UNL d   1     -54.791-101.448 -40.870  0.00  0.00     0.018 A 
ATOM     26  C   UNL d   1     -54.723-102.249 -41.006  0.00  0.00     0.002 A 
ATOM     27  C   UNL d   1     -54.728-102.787 -40.380  0.00  0.00     0.000 A 
ATOM     28  C   UNL d   1     -54.805-102.504 -39.603  0.00  0.00     0.002 A 
ATOM     29  C   UNL d   1     -54.875-101.696 -39.463  0.00  0.00     0.018 A 
ENDBRANCH   4  24
TORSDOF 2
ENDMDL
