MODEL 1
REMARK VINA RESULT:      -2.8      0.000      0.000
REMARK  4 active torsions:
REMARK  status: ('A' for Active; 'I' for Inactive)
REMARK    1  A    between atoms: C_23  and  N_1 
REMARK       I    between atoms: N_7  and  C_10 
REMARK    2  A    between atoms: C_10  and  C_25 
REMARK    3  A    between atoms: C_26  and  C_23 
REMARK    4  A    between atoms: C_25  and  C_26 
ROOT
ATOM      1  N   UNL d   1      32.817  19.119 -23.843  0.00  0.00    -0.249 N 
ATOM      2  C   UNL d   1      32.491  18.517 -23.385  0.00  0.00     0.268 A 
ATOM      3  C   UNL d   1      32.727  19.107 -24.653  0.00  0.00     0.208 A 
ATOM      4  C   UNL d   1      32.074  17.901 -23.743  0.00  0.00     0.076 A 
ATOM      5  C   UNL d   1      31.985  17.889 -24.553  0.00  0.00     0.090 A 
ATOM      6  N   UNL d   1      32.314  18.493 -24.989  0.00  0.00    -0.218 NA
ATOM      7  C   UNL d   1      31.746  17.295 -23.284  0.00  0.00     0.033 A 
ATOM      8  C   UNL d   1      31.567  17.269 -24.888  0.00  0.00     0.046 A 
ATOM      9  C   UNL d   1      31.322  16.668 -23.641  0.00  0.00     0.119 A 
ATOM     10  C   UNL d   1      31.239  16.667 -24.452  0.00  0.00     0.121 A 
ATOM     11  S   UNL d   1      33.062  19.722 -25.097  0.00  0.00    -0.038 SA
ATOM     12  O   UNL d   1      32.580  18.529 -22.583  0.00  0.00    -0.267 OA
ATOM     13  O   UNL d   1      30.940  16.002 -23.348  0.00  0.00    -0.300 OA
ATOM     14  O   UNL d   1      30.799  15.986 -24.635  0.00  0.00    -0.299 OA
ATOM     15  C   UNL d   1      30.613  15.573 -23.960  0.00  0.00     0.304 A 
ENDROOT
BRANCH   1  16
ATOM     16  C   UNL d   1      33.241  19.746 -23.486  0.00  0.00     0.085 C 
BRANCH  16  17
ATOM     17  C   UNL d   1      32.870  20.450 -23.352  0.00  0.00     0.024 C 
BRANCH  17  18
ATOM     18  C   UNL d   1      33.176  20.959 -22.796  0.00  0.00     0.063 C 
BRANCH  18  19
ATOM     19  C   UNL d   1      32.969  21.739 -22.813  0.00  0.00     0.265 C 
ATOM     20  N   UNL d   1      32.922  22.157 -22.104  0.00  0.00    -0.272 N 
ATOM     21  C   UNL d   1      33.087  21.766 -21.387  0.00  0.00     0.083 A 
ATOM     22  C   UNL d   1      32.712  22.953 -22.108  0.00  0.00     0.083 A 
ATOM     23  C   UNL d   1      33.041  22.181 -20.673  0.00  0.00     0.018 A 
ATOM     24  C   UNL d   1      33.204  21.796 -19.965  0.00  0.00     0.002 A 
ATOM     25  C   UNL d   1      32.829  22.989 -20.671  0.00  0.00     0.003 A 
ATOM     26  C   UNL d   1      33.158  22.213 -19.251  0.00  0.00     0.000 A 
ATOM     27  C   UNL d   1      32.947  23.017 -19.248  0.00  0.00     0.000 A 
ATOM     28  C   UNL d   1      32.783  23.401 -19.961  0.00  0.00     0.000 A 
ATOM     29  C   UNL d   1      32.665  23.372 -21.392  0.00  0.00     0.019 A 
ATOM     30  O   UNL d   1      32.811  22.094 -23.551  0.00  0.00    -0.267 OA
ENDBRANCH  18  19
ENDBRANCH  17  18
ENDBRANCH  16  17
ENDBRANCH   1  16
TORSDOF 4
ENDMDL
MODEL 2
REMARK VINA RESULT:      -2.7      1.130      1.674
REMARK  4 active torsions:
REMARK  status: ('A' for Active; 'I' for Inactive)
REMARK    1  A    between atoms: C_23  and  N_1 
REMARK       I    between atoms: N_7  and  C_10 
REMARK    2  A    between atoms: C_10  and  C_25 
REMARK    3  A    between atoms: C_26  and  C_23 
REMARK    4  A    between atoms: C_25  and  C_26 
ROOT
ATOM      1  N   UNL d   1      32.472  18.285 -23.941  0.00  0.00    -0.249 N 
ATOM      2  C   UNL d   1      32.134  17.605 -23.621  0.00  0.00     0.268 A 
ATOM      3  C   UNL d   1      32.162  18.612 -24.620  0.00  0.00     0.208 A 
ATOM      4  C   UNL d   1      31.481  17.254 -23.985  0.00  0.00     0.076 A 
ATOM      5  C   UNL d   1      31.172  17.582 -24.664  0.00  0.00     0.090 A 
ATOM      6  N   UNL d   1      31.520  18.253 -24.965  0.00  0.00    -0.218 NA
ATOM      7  C   UNL d   1      31.140  16.571 -23.665  0.00  0.00     0.033 A 
ATOM      8  C   UNL d   1      30.524  17.218 -25.010  0.00  0.00     0.046 A 
ATOM      9  C   UNL d   1      30.478  16.211 -24.030  0.00  0.00     0.119 A 
ATOM     10  C   UNL d   1      30.177  16.548 -24.709  0.00  0.00     0.121 A 
ATOM     11  S   UNL d   1      32.517  19.296 -24.926  0.00  0.00    -0.038 SA
ATOM     12  O   UNL d   1      32.441  17.281 -22.948  0.00  0.00    -0.267 OA
ATOM     13  O   UNL d   1      30.025  15.548 -23.855  0.00  0.00    -0.300 OA
ATOM     14  O   UNL d   1      29.535  16.071 -24.933  0.00  0.00    -0.299 OA
ATOM     15  C   UNL d   1      29.436  15.455 -24.412  0.00  0.00     0.304 A 
ENDROOT
BRANCH   1  16
ATOM     16  C   UNL d   1      33.134  18.645 -23.576  0.00  0.00     0.085 C 
BRANCH  16  17
ATOM     17  C   UNL d   1      33.084  18.875 -22.804  0.00  0.00     0.024 C 
BRANCH  17  18
ATOM     18  C   UNL d   1      33.241  19.649 -22.612  0.00  0.00     0.063 C 
BRANCH  18  19
ATOM     19  C   UNL d   1      33.213  19.882 -21.840  0.00  0.00     0.265 C 
ATOM     20  N   UNL d   1      33.174  20.687 -21.663  0.00  0.00    -0.272 N 
ATOM     21  C   UNL d   1      33.163  21.241 -22.285  0.00  0.00     0.083 A 
ATOM     22  C   UNL d   1      33.145  20.937 -20.879  0.00  0.00     0.083 A 
ATOM     23  C   UNL d   1      33.123  22.049 -22.114  0.00  0.00     0.018 A 
ATOM     24  C   UNL d   1      33.112  22.597 -22.727  0.00  0.00     0.002 A 
ATOM     25  C   UNL d   1      33.094  22.309 -21.321  0.00  0.00     0.003 A 
ATOM     26  C   UNL d   1      33.073  23.406 -22.555  0.00  0.00     0.000 A 
ATOM     27  C   UNL d   1      33.044  23.665 -21.766  0.00  0.00     0.000 A 
ATOM     28  C   UNL d   1      33.054  23.112 -21.151  0.00  0.00     0.000 A 
ATOM     29  C   UNL d   1      33.105  21.748 -20.705  0.00  0.00     0.019 A 
ATOM     30  O   UNL d   1      33.226  19.296 -21.246  0.00  0.00    -0.267 OA
ENDBRANCH  18  19
ENDBRANCH  17  18
ENDBRANCH  16  17
ENDBRANCH   1  16
TORSDOF 4
ENDMDL
MODEL 3
REMARK VINA RESULT:      -1.2      1.627      6.023
REMARK  4 active torsions:
REMARK  status: ('A' for Active; 'I' for Inactive)
REMARK    1  A    between atoms: C_23  and  N_1 
REMARK       I    between atoms: N_7  and  C_10 
REMARK    2  A    between atoms: C_10  and  C_25 
REMARK    3  A    between atoms: C_26  and  C_23 
REMARK    4  A    between atoms: C_25  and  C_26 
ROOT
ATOM      1  N   UNL d   1      33.052  19.836 -22.109  0.00  0.00    -0.249 N 
ATOM      2  C   UNL d   1      32.868  20.595 -22.371  0.00  0.00     0.268 A 
ATOM      3  C   UNL d   1      33.051  19.670 -21.311  0.00  0.00     0.208 A 
ATOM      4  C   UNL d   1      32.683  21.189 -21.827  0.00  0.00     0.076 A 
ATOM      5  C   UNL d   1      32.682  21.022 -21.030  0.00  0.00     0.090 A 
ATOM      6  N   UNL d   1      32.866  20.266 -20.791  0.00  0.00    -0.218 NA
ATOM      7  C   UNL d   1      32.498  21.953 -22.088  0.00  0.00     0.033 A 
ATOM      8  C   UNL d   1      32.495  21.625 -20.508  0.00  0.00     0.046 A 
ATOM      9  C   UNL d   1      32.309  22.558 -21.542  0.00  0.00     0.119 A 
ATOM     10  C   UNL d   1      32.311  22.380 -20.747  0.00  0.00     0.121 A 
ATOM     11  S   UNL d   1      33.238  18.900 -21.068  0.00  0.00    -0.038 SA
ATOM     12  O   UNL d   1      32.870  20.760 -23.161  0.00  0.00    -0.267 OA
ATOM     13  O   UNL d   1      32.106  23.351 -21.623  0.00  0.00    -0.300 OA
ATOM     14  O   UNL d   1      32.105  23.083 -20.356  0.00  0.00    -0.299 OA
ATOM     15  C   UNL d   1      31.978  23.684 -20.888  0.00  0.00     0.304 A 
ENDROOT
BRANCH   1  16
ATOM     16  C   UNL d   1      33.241  19.230 -22.655  0.00  0.00     0.085 C 
BRANCH  16  17
ATOM     17  C   UNL d   1      32.859  18.521 -22.607  0.00  0.00     0.024 C 
BRANCH  17  18
ATOM     18  C   UNL d   1      32.622  18.153 -23.293  0.00  0.00     0.063 C 
BRANCH  18  19
ATOM     19  C   UNL d   1      32.543  17.350 -23.308  0.00  0.00     0.265 C 
ATOM     20  N   UNL d   1      31.861  17.019 -23.633  0.00  0.00    -0.272 N 
ATOM     21  C   UNL d   1      31.269  17.521 -23.938  0.00  0.00     0.083 A 
ATOM     22  C   UNL d   1      31.769  16.202 -23.654  0.00  0.00     0.083 A 
ATOM     23  C   UNL d   1      30.583  17.194 -24.264  0.00  0.00     0.018 A 
ATOM     24  C   UNL d   1      29.998  17.687 -24.566  0.00  0.00     0.002 A 
ATOM     25  C   UNL d   1      30.484  16.365 -24.289  0.00  0.00     0.003 A 
ATOM     26  C   UNL d   1      29.312  17.359 -24.893  0.00  0.00     0.000 A 
ATOM     27  C   UNL d   1      29.213  16.535 -24.917  0.00  0.00     0.000 A 
ATOM     28  C   UNL d   1      29.803  16.041 -24.614  0.00  0.00     0.000 A 
ATOM     29  C   UNL d   1      31.081  15.871 -23.982  0.00  0.00     0.019 A 
ATOM     30  O   UNL d   1      33.158  16.883 -22.993  0.00  0.00    -0.267 OA
ENDBRANCH  18  19
ENDBRANCH  17  18
ENDBRANCH  16  17
ENDBRANCH   1  16
TORSDOF 4
ENDMDL
MODEL 4
REMARK VINA RESULT:      -0.7      1.760      2.713
REMARK  4 active torsions:
REMARK  status: ('A' for Active; 'I' for Inactive)
REMARK    1  A    between atoms: C_23  and  N_1 
REMARK       I    between atoms: N_7  and  C_10 
REMARK    2  A    between atoms: C_10  and  C_25 
REMARK    3  A    between atoms: C_26  and  C_23 
REMARK    4  A    between atoms: C_25  and  C_26 
ROOT
ATOM      1  N   UNL d   1      31.994  17.211 -24.458  0.00  0.00    -0.249 N 
ATOM      2  C   UNL d   1      31.229  17.517 -24.480  0.00  0.00     0.268 A 
ATOM      3  C   UNL d   1      32.110  16.404 -24.477  0.00  0.00     0.208 A 
ATOM      4  C   UNL d   1      30.580  17.009 -24.522  0.00  0.00     0.076 A 
ATOM      5  C   UNL d   1      30.696  16.202 -24.541  0.00  0.00     0.090 A 
ATOM      6  N   UNL d   1      31.459  15.919 -24.518  0.00  0.00    -0.218 NA
ATOM      7  C   UNL d   1      29.810  17.314 -24.545  0.00  0.00     0.033 A 
ATOM      8  C   UNL d   1      30.038  15.716 -24.582  0.00  0.00     0.046 A 
ATOM      9  C   UNL d   1      29.148  16.804 -24.587  0.00  0.00     0.119 A 
ATOM     10  C   UNL d   1      29.277  15.999 -24.605  0.00  0.00     0.121 A 
ATOM     11  S   UNL d   1      32.888  16.117 -24.453  0.00  0.00    -0.038 SA
ATOM     12  O   UNL d   1      31.114  18.315 -24.461  0.00  0.00    -0.267 OA
ATOM     13  O   UNL d   1      28.336  16.930 -24.616  0.00  0.00    -0.300 OA
ATOM     14  O   UNL d   1      28.524  15.649 -24.647  0.00  0.00    -0.299 OA
ATOM     15  C   UNL d   1      27.942  16.216 -24.654  0.00  0.00     0.304 A 
ENDROOT
BRANCH   1  16
ATOM     16  C   UNL d   1      32.656  17.721 -24.416  0.00  0.00     0.085 C 
BRANCH  16  17
ATOM     17  C   UNL d   1      32.972  17.901 -23.695  0.00  0.00     0.024 C 
BRANCH  17  18
ATOM     18  C   UNL d   1      33.050  18.682 -23.482  0.00  0.00     0.063 C 
BRANCH  18  19
ATOM     19  C   UNL d   1      33.101  18.879 -22.701  0.00  0.00     0.265 C 
ATOM     20  N   UNL d   1      33.136  19.676 -22.489  0.00  0.00    -0.272 N 
ATOM     21  C   UNL d   1      33.116  20.258 -23.085  0.00  0.00     0.083 A 
ATOM     22  C   UNL d   1      33.188  19.889 -21.696  0.00  0.00     0.083 A 
ATOM     23  C   UNL d   1      33.150  21.058 -22.878  0.00  0.00     0.018 A 
ATOM     24  C   UNL d   1      33.131  21.634 -23.464  0.00  0.00     0.002 A 
ATOM     25  C   UNL d   1      33.204  21.281 -22.074  0.00  0.00     0.003 A 
ATOM     26  C   UNL d   1      33.165  22.435 -23.255  0.00  0.00     0.000 A 
ATOM     27  C   UNL d   1      33.219  22.657 -22.457  0.00  0.00     0.000 A 
ATOM     28  C   UNL d   1      33.238  22.076 -21.869  0.00  0.00     0.000 A 
ATOM     29  C   UNL d   1      33.223  20.692 -21.485  0.00  0.00     0.019 A 
ATOM     30  O   UNL d   1      33.118  18.266 -22.135  0.00  0.00    -0.267 OA
ENDBRANCH  18  19
ENDBRANCH  17  18
ENDBRANCH  16  17
ENDBRANCH   1  16
TORSDOF 4
ENDMDL
