MODEL 1
REMARK VINA RESULT:      -8.8      0.000      0.000
REMARK  2 active torsions:
REMARK  status: ('A' for Active; 'I' for Inactive)
REMARK    1  A    between atoms: C_6  and  C_1 
REMARK    2  A    between atoms: C_7  and  C_3 
ROOT
ATOM      1  C   UNL d   1     -48.429  13.031  22.874  0.00  0.00     0.081 A 
ATOM      2  N   UNL d   1     -47.740  12.586  22.854  0.00  0.00    -0.246 NA
ATOM      3  C   UNL d   1     -48.220  13.824  22.840  0.00  0.00     0.019 A 
ATOM      4  C   UNL d   1     -47.404  13.870  22.798  0.00  0.00     0.019 A 
ATOM      5  C   UNL d   1     -47.101  13.109  22.807  0.00  0.00     0.081 A 
ATOM      6  C   UNL d   1     -46.897  14.525  22.754  0.00  0.00     0.002 A 
ATOM      7  C   UNL d   1     -46.285  12.989  22.771  0.00  0.00     0.019 A 
ATOM      8  C   UNL d   1     -46.079  14.397  22.717  0.00  0.00     0.000 A 
ATOM      9  C   UNL d   1     -45.773  13.628  22.726  0.00  0.00     0.002 A 
ENDROOT
BRANCH   1  10
ATOM     10  C   UNL d   1     -49.094  12.537  22.922  0.00  0.00     0.018 A 
ATOM     11  C   UNL d   1     -49.343  12.267  23.653  0.00  0.00     0.002 A 
ATOM     12  C   UNL d   1     -50.003  11.778  23.698  0.00  0.00     0.000 A 
ATOM     13  C   UNL d   1     -50.410  11.561  23.019  0.00  0.00     0.000 A 
ATOM     14  C   UNL d   1     -50.151  11.840  22.285  0.00  0.00     0.000 A 
ATOM     15  C   UNL d   1     -49.496  12.325  22.238  0.00  0.00     0.002 A 
ENDBRANCH   1  10
BRANCH   3  16
ATOM     16  C   UNL d   1     -48.752  14.462  22.846  0.00  0.00     0.002 A 
ATOM     17  C   UNL d   1     -49.026  14.770  23.561  0.00  0.00     0.000 A 
ATOM     18  C   UNL d   1     -49.550  15.400  23.563  0.00  0.00     0.000 A 
ATOM     19  C   UNL d   1     -49.813  15.736  22.849  0.00  0.00     0.000 A 
ATOM     20  C   UNL d   1     -49.536  15.427  22.127  0.00  0.00     0.000 A 
ATOM     21  C   UNL d   1     -49.007  14.790  22.127  0.00  0.00     0.000 A 
ENDBRANCH   3  16
TORSDOF 2
ENDMDL
MODEL 2
REMARK VINA RESULT:      -8.8      0.874      3.385
REMARK  2 active torsions:
REMARK  status: ('A' for Active; 'I' for Inactive)
REMARK    1  A    between atoms: C_6  and  C_1 
REMARK    2  A    between atoms: C_7  and  C_3 
ROOT
ATOM      1  C   UNL d   1     -48.416  14.063  22.921  0.00  0.00     0.081 A 
ATOM      2  N   UNL d   1     -48.434  14.881  22.990  0.00  0.00    -0.246 NA
ATOM      3  C   UNL d   1     -49.179  13.782  23.036  0.00  0.00     0.019 A 
ATOM      4  C   UNL d   1     -49.668  14.424  23.175  0.00  0.00     0.019 A 
ATOM      5  C   UNL d   1     -49.215  15.106  23.148  0.00  0.00     0.081 A 
ATOM      6  C   UNL d   1     -50.483  14.464  23.324  0.00  0.00     0.002 A 
ATOM      7  C   UNL d   1     -49.568  15.841  23.269  0.00  0.00     0.019 A 
ATOM      8  C   UNL d   1     -50.831  15.208  23.446  0.00  0.00     0.000 A 
ATOM      9  C   UNL d   1     -50.373  15.896  23.418  0.00  0.00     0.002 A 
ENDROOT
BRANCH   1  10
ATOM     10  C   UNL d   1     -47.646  13.801  22.762  0.00  0.00     0.018 A 
ATOM     11  C   UNL d   1     -47.414  13.680  21.987  0.00  0.00     0.002 A 
ATOM     12  C   UNL d   1     -46.649  13.419  21.831  0.00  0.00     0.000 A 
ATOM     13  C   UNL d   1     -46.122  13.281  22.444  0.00  0.00     0.000 A 
ATOM     14  C   UNL d   1     -46.365  13.406  23.224  0.00  0.00     0.000 A 
ATOM     15  C   UNL d   1     -47.123  13.664  23.381  0.00  0.00     0.002 A 
ENDBRANCH   1  10
BRANCH   3  16
ATOM     16  C   UNL d   1     -49.405  12.984  23.013  0.00  0.00     0.002 A 
ATOM     17  C   UNL d   1     -49.384  12.524  23.698  0.00  0.00     0.000 A 
ATOM     18  C   UNL d   1     -49.608  11.736  23.672  0.00  0.00     0.000 A 
ATOM     19  C   UNL d   1     -49.860  11.390  22.959  0.00  0.00     0.000 A 
ATOM     20  C   UNL d   1     -49.882  11.853  22.267  0.00  0.00     0.000 A 
ATOM     21  C   UNL d   1     -49.655  12.649  22.296  0.00  0.00     0.000 A 
ENDBRANCH   3  16
TORSDOF 2
ENDMDL
MODEL 3
REMARK VINA RESULT:      -8.7      0.703      3.004
REMARK  2 active torsions:
REMARK  status: ('A' for Active; 'I' for Inactive)
REMARK    1  A    between atoms: C_6  and  C_1 
REMARK    2  A    between atoms: C_7  and  C_3 
ROOT
ATOM      1  C   UNL d   1     -48.248  12.984  23.017  0.00  0.00     0.081 A 
ATOM      2  N   UNL d   1     -48.299  12.191  23.220  0.00  0.00    -0.246 NA
ATOM      3  C   UNL d   1     -49.005  13.301  23.037  0.00  0.00     0.019 A 
ATOM      4  C   UNL d   1     -49.524  12.705  23.252  0.00  0.00     0.019 A 
ATOM      5  C   UNL d   1     -49.095  12.017  23.367  0.00  0.00     0.081 A 
ATOM      6  C   UNL d   1     -50.346  12.712  23.358  0.00  0.00     0.002 A 
ATOM      7  C   UNL d   1     -49.480  11.323  23.590  0.00  0.00     0.019 A 
ATOM      8  C   UNL d   1     -50.727  12.010  23.582  0.00  0.00     0.000 A 
ATOM      9  C   UNL d   1     -50.293  11.315  23.698  0.00  0.00     0.002 A 
ENDROOT
BRANCH   1  10
ATOM     10  C   UNL d   1     -47.461  13.196  22.862  0.00  0.00     0.018 A 
ATOM     11  C   UNL d   1     -47.162  13.110  22.105  0.00  0.00     0.002 A 
ATOM     12  C   UNL d   1     -46.382  13.320  21.953  0.00  0.00     0.000 A 
ATOM     13  C   UNL d   1     -45.904  13.613  22.551  0.00  0.00     0.000 A 
ATOM     14  C   UNL d   1     -46.214  13.697  23.313  0.00  0.00     0.000 A 
ATOM     15  C   UNL d   1     -46.989  13.489  23.466  0.00  0.00     0.002 A 
ENDBRANCH   1  10
BRANCH   3  16
ATOM     16  C   UNL d   1     -49.201  14.090  22.867  0.00  0.00     0.002 A 
ATOM     17  C   UNL d   1     -49.350  14.325  22.090  0.00  0.00     0.000 A 
ATOM     18  C   UNL d   1     -49.543  15.104  21.926  0.00  0.00     0.000 A 
ATOM     19  C   UNL d   1     -49.592  15.667  22.537  0.00  0.00     0.000 A 
ATOM     20  C   UNL d   1     -49.441  15.431  23.321  0.00  0.00     0.000 A 
ATOM     21  C   UNL d   1     -49.246  14.643  23.484  0.00  0.00     0.000 A 
ENDBRANCH   3  16
TORSDOF 2
ENDMDL
MODEL 4
REMARK VINA RESULT:      -8.2      1.095      1.542
REMARK  2 active torsions:
REMARK  status: ('A' for Active; 'I' for Inactive)
REMARK    1  A    between atoms: C_6  and  C_1 
REMARK    2  A    between atoms: C_7  and  C_3 
ROOT
ATOM      1  C   UNL d   1     -48.601  12.290  23.107  0.00  0.00     0.081 A 
ATOM      2  N   UNL d   1     -48.336  11.567  23.389  0.00  0.00    -0.246 NA
ATOM      3  C   UNL d   1     -47.947  12.772  22.989  0.00  0.00     0.019 A 
ATOM      4  C   UNL d   1     -47.279  12.348  23.197  0.00  0.00     0.019 A 
ATOM      5  C   UNL d   1     -47.511  11.603  23.446  0.00  0.00     0.081 A 
ATOM      6  C   UNL d   1     -46.476  12.558  23.190  0.00  0.00     0.002 A 
ATOM      7  C   UNL d   1     -46.947  11.054  23.691  0.00  0.00     0.019 A 
ATOM      8  C   UNL d   1     -45.914  12.001  23.437  0.00  0.00     0.000 A 
ATOM      9  C   UNL d   1     -46.149  11.249  23.688  0.00  0.00     0.002 A 
ENDROOT
BRANCH   1  10
ATOM     10  C   UNL d   1     -49.428  12.291  23.036  0.00  0.00     0.018 A 
ATOM     11  C   UNL d   1     -49.888  12.432  23.698  0.00  0.00     0.002 A 
ATOM     12  C   UNL d   1     -50.707  12.433  23.626  0.00  0.00     0.000 A 
ATOM     13  C   UNL d   1     -51.064  12.293  22.901  0.00  0.00     0.000 A 
ATOM     14  C   UNL d   1     -50.591  12.151  22.238  0.00  0.00     0.000 A 
ATOM     15  C   UNL d   1     -49.777  12.150  22.307  0.00  0.00     0.002 A 
ENDBRANCH   1  10
BRANCH   3  16
ATOM     16  C   UNL d   1     -47.970  13.552  22.706  0.00  0.00     0.002 A 
ATOM     17  C   UNL d   1     -48.053  14.184  23.230  0.00  0.00     0.000 A 
ATOM     18  C   UNL d   1     -48.074  14.953  22.948  0.00  0.00     0.000 A 
ATOM     19  C   UNL d   1     -48.013  15.108  22.133  0.00  0.00     0.000 A 
ATOM     20  C   UNL d   1     -47.929  14.471  21.603  0.00  0.00     0.000 A 
ATOM     21  C   UNL d   1     -47.907  13.695  21.891  0.00  0.00     0.000 A 
ENDBRANCH   3  16
TORSDOF 2
ENDMDL
MODEL 5
REMARK VINA RESULT:      -6.8      0.932      2.559
REMARK  2 active torsions:
REMARK  status: ('A' for Active; 'I' for Inactive)
REMARK    1  A    between atoms: C_6  and  C_1 
REMARK    2  A    between atoms: C_7  and  C_3 
ROOT
ATOM      1  C   UNL d   1     -48.793  13.201  22.904  0.00  0.00     0.081 A 
ATOM      2  N   UNL d   1     -49.566  13.463  22.986  0.00  0.00    -0.246 NA
ATOM      3  C   UNL d   1     -48.310  13.858  22.814  0.00  0.00     0.019 A 
ATOM      4  C   UNL d   1     -48.783  14.526  22.841  0.00  0.00     0.019 A 
ATOM      5  C   UNL d   1     -49.560  14.289  22.947  0.00  0.00     0.081 A 
ATOM      6  C   UNL d   1     -48.592  15.331  22.780  0.00  0.00     0.002 A 
ATOM      7  C   UNL d   1     -50.161  14.853  22.994  0.00  0.00     0.019 A 
ATOM      8  C   UNL d   1     -49.201  15.892  22.828  0.00  0.00     0.000 A 
ATOM      9  C   UNL d   1     -49.986  15.652  22.935  0.00  0.00     0.002 A 
ENDROOT
BRANCH   1  10
ATOM     10  C   UNL d   1     -48.760  12.372  22.939  0.00  0.00     0.018 A 
ATOM     11  C   UNL d   1     -48.678  12.003  23.664  0.00  0.00     0.002 A 
ATOM     12  C   UNL d   1     -48.646  11.182  23.697  0.00  0.00     0.000 A 
ATOM     13  C   UNL d   1     -48.695  10.734  23.011  0.00  0.00     0.000 A 
ATOM     14  C   UNL d   1     -48.777  11.116  22.283  0.00  0.00     0.000 A 
ATOM     15  C   UNL d   1     -48.810  11.931  22.248  0.00  0.00     0.002 A 
ENDBRANCH   1  10
BRANCH   3  16
ATOM     16  C   UNL d   1     -47.486  13.840  22.715  0.00  0.00     0.002 A 
ATOM     17  C   UNL d   1     -46.985  13.883  23.369  0.00  0.00     0.000 A 
ATOM     18  C   UNL d   1     -46.172  13.865  23.267  0.00  0.00     0.000 A 
ATOM     19  C   UNL d   1     -45.841  13.802  22.506  0.00  0.00     0.000 A 
ATOM     20  C   UNL d   1     -46.346  13.759  21.845  0.00  0.00     0.000 A 
ATOM     21  C   UNL d   1     -47.167  13.777  21.951  0.00  0.00     0.000 A 
ENDBRANCH   3  16
TORSDOF 2
ENDMDL
MODEL 6
REMARK VINA RESULT:      -6.5      0.882      3.084
REMARK  2 active torsions:
REMARK  status: ('A' for Active; 'I' for Inactive)
REMARK    1  A    between atoms: C_6  and  C_1 
REMARK    2  A    between atoms: C_7  and  C_3 
ROOT
ATOM      1  C   UNL d   1     -48.986  13.472  23.031  0.00  0.00     0.081 A 
ATOM      2  N   UNL d   1     -49.606  12.972  23.228  0.00  0.00    -0.246 NA
ATOM      3  C   UNL d   1     -48.291  13.036  23.053  0.00  0.00     0.019 A 
ATOM      4  C   UNL d   1     -48.480  12.267  23.264  0.00  0.00     0.019 A 
ATOM      5  C   UNL d   1     -49.291  12.221  23.373  0.00  0.00     0.081 A 
ATOM      6  C   UNL d   1     -48.001  11.598  23.370  0.00  0.00     0.002 A 
ATOM      7  C   UNL d   1     -49.638  11.505  23.590  0.00  0.00     0.019 A 
ATOM      8  C   UNL d   1     -48.358  10.882  23.588  0.00  0.00     0.000 A 
ATOM      9  C   UNL d   1     -49.176  10.835  23.698  0.00  0.00     0.002 A 
ENDROOT
BRANCH   1  10
ATOM     10  C   UNL d   1     -49.265  14.238  22.878  0.00  0.00     0.018 A 
ATOM     11  C   UNL d   1     -49.524  14.429  22.125  0.00  0.00     0.002 A 
ATOM     12  C   UNL d   1     -49.801  15.189  21.975  0.00  0.00     0.000 A 
ATOM     13  C   UNL d   1     -49.819  15.752  22.571  0.00  0.00     0.000 A 
ATOM     14  C   UNL d   1     -49.555  15.550  23.328  0.00  0.00     0.000 A 
ATOM     15  C   UNL d   1     -49.280  14.796  23.479  0.00  0.00     0.002 A 
ENDBRANCH   1  10
BRANCH   3  16
ATOM     16  C   UNL d   1     -47.532  13.330  22.890  0.00  0.00     0.002 A 
ATOM     17  C   UNL d   1     -47.074  13.663  23.490  0.00  0.00     0.000 A 
ATOM     18  C   UNL d   1     -46.326  13.953  23.325  0.00  0.00     0.000 A 
ATOM     19  C   UNL d   1     -46.018  13.917  22.553  0.00  0.00     0.000 A 
ATOM     20  C   UNL d   1     -46.479  13.582  21.946  0.00  0.00     0.000 A 
ATOM     21  C   UNL d   1     -47.235  13.289  22.116  0.00  0.00     0.000 A 
ENDBRANCH   3  16
TORSDOF 2
ENDMDL
