MODEL 1
REMARK VINA RESULT:      -8.6      0.000      0.000
REMARK  1 active torsions:
REMARK  status: ('A' for Active; 'I' for Inactive)
REMARK    1  A    between atoms: C_10  and  C_4 
ROOT
ATOM      1  C   UNL d   1     -48.287  12.635  23.168  0.00  0.00     0.186 A 
ATOM      2  N   UNL d   1     -48.026  11.882  23.423  0.00  0.00    -0.193 N 
ATOM      3  N   UNL d   1     -47.736  13.202  22.931  0.00  0.00    -0.214 NA
ATOM      4  C   UNL d   1     -49.117  12.634  23.218  0.00  0.00     0.140 A 
ATOM      5  N   UNL d   1     -48.693  11.430  23.626  0.00  0.00    -0.058 NA
ATOM      6  N   UNL d   1     -49.361  11.903  23.495  0.00  0.00    -0.127 NA
ATOM      7  C   UNL d   1     -46.928  13.033  22.944  0.00  0.00     0.142 A 
ATOM      8  C   UNL d   1     -46.674  12.285  23.198  0.00  0.00     0.046 A 
ATOM      9  C   UNL d   1     -47.221  11.716  23.435  0.00  0.00     0.088 A 
ATOM     10 CL   UNL d   1     -46.379  13.599  22.708  0.00  0.00    -0.061 Cl
ATOM     11  C   UNL d   1     -45.869  12.118  23.210  0.00  0.00     0.004 A 
ATOM     12  C   UNL d   1     -46.956  10.974  23.686  0.00  0.00     0.019 A 
ATOM     13  C   UNL d   1     -45.607  11.380  23.460  0.00  0.00     0.000 A 
ATOM     14  C   UNL d   1     -46.150  10.808  23.698  0.00  0.00     0.002 A 
ENDROOT
BRANCH   4  15
ATOM     15  C   UNL d   1     -49.600  13.263  23.020  0.00  0.00     0.022 A 
ATOM     16  C   UNL d   1     -49.830  13.803  23.602  0.00  0.00     0.002 A 
ATOM     17  C   UNL d   1     -50.318  14.439  23.404  0.00  0.00     0.000 A 
ATOM     18  C   UNL d   1     -50.575  14.534  22.625  0.00  0.00     0.000 A 
ATOM     19  C   UNL d   1     -50.343  13.991  22.043  0.00  0.00     0.000 A 
ATOM     20  C   UNL d   1     -51.062  15.167  22.427  0.00  0.00     0.000 C 
ATOM     21  C   UNL d   1     -49.857  13.358  22.241  0.00  0.00     0.002 A 
ENDBRANCH   4  15
TORSDOF 1
ENDMDL
MODEL 2
REMARK VINA RESULT:      -8.4      1.432      4.244
REMARK  1 active torsions:
REMARK  status: ('A' for Active; 'I' for Inactive)
REMARK    1  A    between atoms: C_10  and  C_4 
ROOT
ATOM      1  C   UNL d   1     -48.214  13.573  22.447  0.00  0.00     0.186 A 
ATOM      2  N   UNL d   1     -48.730  14.222  22.556  0.00  0.00    -0.193 N 
ATOM      3  N   UNL d   1     -48.487  12.889  22.075  0.00  0.00    -0.214 NA
ATOM      4  C   UNL d   1     -47.479  13.791  22.768  0.00  0.00     0.140 A 
ATOM      5  N   UNL d   1     -48.311  14.827  22.940  0.00  0.00    -0.058 NA
ATOM      6  N   UNL d   1     -47.540  14.552  23.067  0.00  0.00    -0.127 NA
ATOM      7  C   UNL d   1     -49.267  12.839  21.809  0.00  0.00     0.142 A 
ATOM      8  C   UNL d   1     -49.775  13.484  21.920  0.00  0.00     0.046 A 
ATOM      9  C   UNL d   1     -49.507  14.170  22.290  0.00  0.00     0.088 A 
ATOM     10 CL   UNL d   1     -49.539  12.155  21.438  0.00  0.00    -0.061 Cl
ATOM     11  C   UNL d   1     -50.552  13.432  21.654  0.00  0.00     0.004 A 
ATOM     12  C   UNL d   1     -50.023  14.807  22.395  0.00  0.00     0.019 A 
ATOM     13  C   UNL d   1     -51.064  14.067  21.759  0.00  0.00     0.000 A 
ATOM     14  C   UNL d   1     -50.800  14.755  22.129  0.00  0.00     0.002 A 
ENDROOT
BRANCH   4  15
ATOM     15  C   UNL d   1     -46.812  13.318  22.780  0.00  0.00     0.022 A 
ATOM     16  C   UNL d   1     -46.214  13.439  22.224  0.00  0.00     0.002 A 
ATOM     17  C   UNL d   1     -45.539  12.962  22.234  0.00  0.00     0.000 A 
ATOM     18  C   UNL d   1     -45.465  12.366  22.801  0.00  0.00     0.000 A 
ATOM     19  C   UNL d   1     -46.067  12.247  23.357  0.00  0.00     0.000 A 
ATOM     20  C   UNL d   1     -44.794  11.891  22.812  0.00  0.00     0.000 C 
ATOM     21  C   UNL d   1     -46.739  12.722  23.346  0.00  0.00     0.002 A 
ENDBRANCH   4  15
TORSDOF 1
ENDMDL
MODEL 3
REMARK VINA RESULT:      -7.8      8.673     10.529
REMARK  1 active torsions:
REMARK  status: ('A' for Active; 'I' for Inactive)
REMARK    1  A    between atoms: C_10  and  C_4 
ROOT
ATOM      1  C   UNL d   1     -39.695  14.651  18.662  0.00  0.00     0.186 A 
ATOM      2  N   UNL d   1     -40.350  14.626  19.181  0.00  0.00    -0.193 N 
ATOM      3  N   UNL d   1     -39.023  15.083  18.870  0.00  0.00    -0.214 NA
ATOM      4  C   UNL d   1     -39.893  14.193  17.998  0.00  0.00     0.140 A 
ATOM      5  N   UNL d   1     -40.940  14.156  18.833  0.00  0.00    -0.058 NA
ATOM      6  N   UNL d   1     -40.649  13.893  18.103  0.00  0.00    -0.127 NA
ATOM      7  C   UNL d   1     -38.992  15.491  19.587  0.00  0.00     0.142 A 
ATOM      8  C   UNL d   1     -39.645  15.463  20.098  0.00  0.00     0.046 A 
ATOM      9  C   UNL d   1     -40.318  15.034  19.895  0.00  0.00     0.088 A 
ATOM     10 CL   UNL d   1     -38.321  15.922  19.794  0.00  0.00    -0.061 Cl
ATOM     11  C   UNL d   1     -39.612  15.871  20.812  0.00  0.00     0.004 A 
ATOM     12  C   UNL d   1     -40.962  15.014  20.412  0.00  0.00     0.019 A 
ATOM     13  C   UNL d   1     -40.254  15.850  21.326  0.00  0.00     0.000 A 
ATOM     14  C   UNL d   1     -40.929  15.421  21.126  0.00  0.00     0.002 A 
ENDROOT
BRANCH   4  15
ATOM     15  C   UNL d   1     -39.408  14.067  17.352  0.00  0.00     0.022 A 
ATOM     16  C   UNL d   1     -38.897  13.418  17.342  0.00  0.00     0.002 A 
ATOM     17  C   UNL d   1     -38.406  13.289  16.689  0.00  0.00     0.000 A 
ATOM     18  C   UNL d   1     -38.428  13.811  16.050  0.00  0.00     0.000 A 
ATOM     19  C   UNL d   1     -38.941  14.461  16.062  0.00  0.00     0.000 A 
ATOM     20  C   UNL d   1     -37.940  13.683  15.400  0.00  0.00     0.000 C 
ATOM     21  C   UNL d   1     -39.430  14.588  16.712  0.00  0.00     0.002 A 
ENDBRANCH   4  15
TORSDOF 1
ENDMDL
MODEL 4
REMARK VINA RESULT:      -7.1      1.621      2.571
REMARK  1 active torsions:
REMARK  status: ('A' for Active; 'I' for Inactive)
REMARK    1  A    between atoms: C_10  and  C_4 
ROOT
ATOM      1  C   UNL d   1     -46.285  12.565  22.852  0.00  0.00     0.186 A 
ATOM      2  N   UNL d   1     -45.471  12.374  22.825  0.00  0.00    -0.193 N 
ATOM      3  N   UNL d   1     -46.826  12.015  23.143  0.00  0.00    -0.214 NA
ATOM      4  C   UNL d   1     -46.363  13.336  22.552  0.00  0.00     0.140 A 
ATOM      5  N   UNL d   1     -45.061  13.025  22.511  0.00  0.00    -0.058 NA
ATOM      6  N   UNL d   1     -45.620  13.613  22.346  0.00  0.00    -0.127 NA
ATOM      7  C   UNL d   1     -46.571  11.275  23.408  0.00  0.00     0.142 A 
ATOM      8  C   UNL d   1     -45.763  11.090  23.379  0.00  0.00     0.046 A 
ATOM      9  C   UNL d   1     -45.219  11.637  23.090  0.00  0.00     0.088 A 
ATOM     10 CL   UNL d   1     -47.113  10.726  23.698  0.00  0.00    -0.061 Cl
ATOM     11  C   UNL d   1     -45.512  10.353  23.643  0.00  0.00     0.004 A 
ATOM     12  C   UNL d   1     -44.417  11.441  23.066  0.00  0.00     0.019 A 
ATOM     13  C   UNL d   1     -44.712  10.160  23.619  0.00  0.00     0.000 A 
ATOM     14  C   UNL d   1     -44.165  10.704  23.330  0.00  0.00     0.002 A 
ENDROOT
BRANCH   4  15
ATOM     15  C   UNL d   1     -47.069  13.742  22.479  0.00  0.00     0.022 A 
ATOM     16  C   UNL d   1     -47.609  13.525  21.893  0.00  0.00     0.002 A 
ATOM     17  C   UNL d   1     -48.323  13.934  21.818  0.00  0.00     0.000 A 
ATOM     18  C   UNL d   1     -48.494  14.560  22.329  0.00  0.00     0.000 A 
ATOM     19  C   UNL d   1     -47.951  14.776  22.915  0.00  0.00     0.000 A 
ATOM     20  C   UNL d   1     -49.204  14.968  22.254  0.00  0.00     0.000 C 
ATOM     21  C   UNL d   1     -47.240  14.368  22.990  0.00  0.00     0.002 A 
ENDBRANCH   4  15
TORSDOF 1
ENDMDL
MODEL 5
REMARK VINA RESULT:      -7.1      8.881      9.928
REMARK  1 active torsions:
REMARK  status: ('A' for Active; 'I' for Inactive)
REMARK    1  A    between atoms: C_10  and  C_4 
ROOT
ATOM      1  C   UNL d   1     -40.082  14.861  19.508  0.00  0.00     0.186 A 
ATOM      2  N   UNL d   1     -40.561  15.394  19.077  0.00  0.00    -0.193 N 
ATOM      3  N   UNL d   1     -39.664  14.271  19.110  0.00  0.00    -0.214 NA
ATOM      4  C   UNL d   1     -40.146  15.071  20.309  0.00  0.00     0.140 A 
ATOM      5  N   UNL d   1     -40.912  15.922  19.614  0.00  0.00    -0.058 NA
ATOM      6  N   UNL d   1     -40.650  15.714  20.372  0.00  0.00    -0.127 NA
ATOM      7  C   UNL d   1     -39.715  14.202  18.289  0.00  0.00     0.142 A 
ATOM      8  C   UNL d   1     -40.191  14.733  17.866  0.00  0.00     0.046 A 
ATOM      9  C   UNL d   1     -40.611  15.323  18.259  0.00  0.00     0.088 A 
ATOM     10 CL   UNL d   1     -39.297  13.613  17.892  0.00  0.00    -0.061 Cl
ATOM     11  C   UNL d   1     -40.241  14.662  17.048  0.00  0.00     0.004 A 
ATOM     12  C   UNL d   1     -41.082  15.846  17.827  0.00  0.00     0.019 A 
ATOM     13  C   UNL d   1     -40.711  15.184  16.619  0.00  0.00     0.000 A 
ATOM     14  C   UNL d   1     -41.132  15.776  17.009  0.00  0.00     0.002 A 
ENDROOT
BRANCH   4  15
ATOM     15  C   UNL d   1     -39.765  14.692  20.926  0.00  0.00     0.022 A 
ATOM     16  C   UNL d   1     -39.013  14.941  21.158  0.00  0.00     0.002 A 
ATOM     17  C   UNL d   1     -38.626  14.559  21.782  0.00  0.00     0.000 A 
ATOM     18  C   UNL d   1     -38.994  13.930  22.170  0.00  0.00     0.000 A 
ATOM     19  C   UNL d   1     -39.749  13.683  21.935  0.00  0.00     0.000 A 
ATOM     20  C   UNL d   1     -38.610  13.550  22.791  0.00  0.00     0.000 C 
ATOM     21  C   UNL d   1     -40.133  14.063  21.315  0.00  0.00     0.002 A 
ENDBRANCH   4  15
TORSDOF 1
ENDMDL
MODEL 6
REMARK VINA RESULT:      -6.9      1.437      2.185
REMARK  1 active torsions:
REMARK  status: ('A' for Active; 'I' for Inactive)
REMARK    1  A    between atoms: C_10  and  C_4 
ROOT
ATOM      1  C   UNL d   1     -47.383  12.716  22.625  0.00  0.00     0.186 A 
ATOM      2  N   UNL d   1     -46.780  13.132  22.221  0.00  0.00    -0.193 N 
ATOM      3  N   UNL d   1     -47.186  12.081  23.113  0.00  0.00    -0.214 NA
ATOM      4  C   UNL d   1     -48.104  13.074  22.419  0.00  0.00     0.140 A 
ATOM      5  N   UNL d   1     -47.134  13.737  21.775  0.00  0.00    -0.058 NA
ATOM      6  N   UNL d   1     -47.951  13.693  21.904  0.00  0.00    -0.127 NA
ATOM      7  C   UNL d   1     -46.398  11.851  23.207  0.00  0.00     0.142 A 
ATOM      8  C   UNL d   1     -45.805  12.267  22.805  0.00  0.00     0.046 A 
ATOM      9  C   UNL d   1     -45.996  12.902  22.316  0.00  0.00     0.088 A 
ATOM     10 CL   UNL d   1     -46.203  11.217  23.695  0.00  0.00    -0.061 Cl
ATOM     11  C   UNL d   1     -45.020  12.037  22.900  0.00  0.00     0.004 A 
ATOM     12  C   UNL d   1     -45.395  13.309  21.920  0.00  0.00     0.019 A 
ATOM     13  C   UNL d   1     -44.424  12.443  22.505  0.00  0.00     0.000 A 
ATOM     14  C   UNL d   1     -44.611  13.079  22.015  0.00  0.00     0.002 A 
ENDROOT
BRANCH   4  15
ATOM     15  C   UNL d   1     -48.839  12.840  22.692  0.00  0.00     0.022 A 
ATOM     16  C   UNL d   1     -49.258  12.253  22.289  0.00  0.00     0.002 A 
ATOM     17  C   UNL d   1     -50.001  12.016  22.563  0.00  0.00     0.000 A 
ATOM     18  C   UNL d   1     -50.322  12.366  23.238  0.00  0.00     0.000 A 
ATOM     19  C   UNL d   1     -49.899  12.954  23.640  0.00  0.00     0.000 A 
ATOM     20  C   UNL d   1     -51.061  12.130  23.511  0.00  0.00     0.000 C 
ATOM     21  C   UNL d   1     -49.160  13.190  23.367  0.00  0.00     0.002 A 
ENDBRANCH   4  15
TORSDOF 1
ENDMDL
MODEL 7
REMARK VINA RESULT:      -6.8      9.173      9.906
REMARK  1 active torsions:
REMARK  status: ('A' for Active; 'I' for Inactive)
REMARK    1  A    between atoms: C_10  and  C_4 
ROOT
ATOM      1  C   UNL d   1     -39.396  14.413  19.574  0.00  0.00     0.186 A 
ATOM      2  N   UNL d   1     -38.781  13.955  19.908  0.00  0.00    -0.193 N 
ATOM      3  N   UNL d   1     -39.955  14.770  20.064  0.00  0.00    -0.214 NA
ATOM      4  C   UNL d   1     -39.288  14.399  18.750  0.00  0.00     0.140 A 
ATOM      5  N   UNL d   1     -38.305  13.667  19.291  0.00  0.00    -0.058 NA
ATOM      6  N   UNL d   1     -38.626  13.946  18.581  0.00  0.00    -0.127 NA
ATOM      7  C   UNL d   1     -39.913  14.679  20.884  0.00  0.00     0.142 A 
ATOM      8  C   UNL d   1     -39.302  14.224  21.211  0.00  0.00     0.046 A 
ATOM      9  C   UNL d   1     -38.741  13.866  20.725  0.00  0.00     0.088 A 
ATOM     10 CL   UNL d   1     -40.473  15.035  21.373  0.00  0.00    -0.061 Cl
ATOM     11  C   UNL d   1     -39.262  14.134  22.028  0.00  0.00     0.004 A 
ATOM     12  C   UNL d   1     -38.136  13.415  21.063  0.00  0.00     0.019 A 
ATOM     13  C   UNL d   1     -38.659  13.685  22.362  0.00  0.00     0.000 A 
ATOM     14  C   UNL d   1     -38.096  13.325  21.879  0.00  0.00     0.002 A 
ENDROOT
BRANCH   4  15
ATOM     15  C   UNL d   1     -39.768  14.778  18.207  0.00  0.00     0.022 A 
ATOM     16  C   UNL d   1     -40.441  14.396  17.918  0.00  0.00     0.002 A 
ATOM     17  C   UNL d   1     -40.927  14.778  17.369  0.00  0.00     0.000 A 
ATOM     18  C   UNL d   1     -40.738  15.539  17.111  0.00  0.00     0.000 A 
ATOM     19  C   UNL d   1     -40.062  15.919  17.402  0.00  0.00     0.000 A 
ATOM     20  C   UNL d   1     -41.222  15.919  16.565  0.00  0.00     0.000 C 
ATOM     21  C   UNL d   1     -39.579  15.539  17.949  0.00  0.00     0.002 A 
ENDBRANCH   4  15
TORSDOF 1
ENDMDL
MODEL 8
REMARK VINA RESULT:      -6.4      1.097      3.967
REMARK  1 active torsions:
REMARK  status: ('A' for Active; 'I' for Inactive)
REMARK    1  A    between atoms: C_10  and  C_4 
ROOT
ATOM      1  C   UNL d   1     -48.439  12.120  22.792  0.00  0.00     0.186 A 
ATOM      2  N   UNL d   1     -49.268  12.073  22.890  0.00  0.00    -0.193 N 
ATOM      3  N   UNL d   1     -48.118  12.665  22.262  0.00  0.00    -0.214 NA
ATOM      4  C   UNL d   1     -48.102  11.555  23.299  0.00  0.00     0.140 A 
ATOM      5  N   UNL d   1     -49.431  11.483  23.452  0.00  0.00    -0.058 NA
ATOM      6  N   UNL d   1     -48.705  11.169  23.698  0.00  0.00    -0.127 NA
ATOM      7  C   UNL d   1     -48.610  13.166  21.826  0.00  0.00     0.142 A 
ATOM      8  C   UNL d   1     -49.432  13.115  21.927  0.00  0.00     0.046 A 
ATOM      9  C   UNL d   1     -49.756  12.572  22.455  0.00  0.00     0.088 A 
ATOM     10 CL   UNL d   1     -48.289  13.710  21.297  0.00  0.00    -0.061 Cl
ATOM     11  C   UNL d   1     -49.920  13.614  21.492  0.00  0.00     0.004 A 
ATOM     12  C   UNL d   1     -50.576  12.531  22.546  0.00  0.00     0.019 A 
ATOM     13  C   UNL d   1     -50.736  13.572  21.584  0.00  0.00     0.000 A 
ATOM     14  C   UNL d   1     -51.064  13.031  22.112  0.00  0.00     0.002 A 
ENDROOT
BRANCH   4  15
ATOM     15  C   UNL d   1     -47.300  11.413  23.379  0.00  0.00     0.022 A 
ATOM     16  C   UNL d   1     -47.023  10.637  23.425  0.00  0.00     0.002 A 
ATOM     17  C   UNL d   1     -46.213  10.492  23.506  0.00  0.00     0.000 A 
ATOM     18  C   UNL d   1     -45.684  11.125  23.541  0.00  0.00     0.000 A 
ATOM     19  C   UNL d   1     -45.965  11.903  23.494  0.00  0.00     0.000 A 
ATOM     20  C   UNL d   1     -44.878  10.982  23.621  0.00  0.00     0.000 C 
ATOM     21  C   UNL d   1     -46.771  12.046  23.413  0.00  0.00     0.002 A 
ENDBRANCH   4  15
TORSDOF 1
ENDMDL
