MODEL 1
REMARK VINA RESULT:       5.0      0.000      0.000
REMARK  8 active torsions:
REMARK  status: ('A' for Active; 'I' for Inactive)
REMARK    1  A    between atoms: C_14  and  N_1 
REMARK    2  A    between atoms: S_10  and  C_2 
REMARK    3  A    between atoms: C_7  and  C_9 
REMARK       I    between atoms: N_8  and  C_7 
REMARK    4  A    between atoms: C_26  and  S_10 
REMARK    5  A    between atoms: C_13  and  C_18 
REMARK    6  A    between atoms: C_16  and  C_26 
REMARK    7  A    between atoms: O_28  and  C_16 
REMARK    8  A    between atoms: C_31  and  O_28 
ROOT
ATOM      1  N   UNL d   1      32.825  21.746 -22.755  0.00  0.00    -0.254 N 
ATOM      2  C   UNL d   1      32.721  20.959 -22.573  0.00  0.00     0.182 A 
ATOM      3  C   UNL d   1      32.963  22.295 -22.149  0.00  0.00     0.268 A 
ATOM      4  N   UNL d   1      32.751  20.706 -21.795  0.00  0.00    -0.222 NA
ATOM      5  C   UNL d   1      32.994  22.049 -21.371  0.00  0.00     0.074 A 
ATOM      6  C   UNL d   1      32.888  21.246 -21.181  0.00  0.00     0.088 A 
ATOM      7  C   UNL d   1      33.056  21.539 -19.784  0.00  0.00     0.058 A 
ATOM      8  C   UNL d   1      32.918  20.988 -20.392  0.00  0.00     0.024 A 
ATOM      9  C   UNL d   1      33.131  22.591 -20.754  0.00  0.00     0.006 A 
ATOM     10  O   UNL d   1      33.069  23.097 -22.337  0.00  0.00    -0.267 OA
ATOM     11  C   UNL d   1      33.160  22.336 -19.979  0.00  0.00     0.005 A 
ENDROOT
BRANCH   7  12
ATOM     12  C   UNL d   1      33.085  21.279 -19.003  0.00  0.00     0.265 C 
ATOM     13  N   UNL d   1      32.969  21.786 -18.387  0.00  0.00    -0.272 N 
ATOM     14  C   UNL d   1      32.816  22.595 -18.557  0.00  0.00     0.083 A 
ATOM     15  C   UNL d   1      32.997  21.533 -17.616  0.00  0.00     0.083 A 
ATOM     16  C   UNL d   1      32.699  23.109 -17.923  0.00  0.00     0.024 A 
ATOM     17  C   UNL d   1      32.727  22.853 -17.142  0.00  0.00     0.062 A 
ATOM     18  C   UNL d   1      32.880  22.043 -16.984  0.00  0.00     0.024 A 
ATOM     19  O   UNL d   1      33.241  20.456 -18.863  0.00  0.00    -0.267 OA
BRANCH  17  20
ATOM     20  C   UNL d   1      32.608  23.378 -16.518  0.00  0.00     0.297 C 
ATOM     21  O   UNL d   1      31.855  23.699 -16.386  0.00  0.00    -0.264 OA
ATOM     22  N   UNL d   1      33.238  23.590 -16.019  0.00  0.00    -0.102 N 
ENDBRANCH  17  20
ENDBRANCH   7  12
BRANCH   2  23
ATOM     23  S   UNL d   1      32.583  20.404 -23.185  0.00  0.00    -0.044 SA
BRANCH  23  24
ATOM     24  C   UNL d   1      32.902  19.654 -23.129  0.00  0.00     0.107 C 
BRANCH  24  25
ATOM     25  C   UNL d   1      32.500  19.020 -23.489  0.00  0.00     0.307 C 
ATOM     26  O   UNL d   1      31.957  19.155 -24.093  0.00  0.00    -0.258 OA
BRANCH  25  27
ATOM     27  O   UNL d   1      32.655  18.248 -23.226  0.00  0.00    -0.271 OA
BRANCH  27  28
ATOM     28  C   UNL d   1      32.838  17.668 -23.790  0.00  0.00     0.126 C 
ATOM     29  C   UNL d   1      32.799  16.896 -23.564  0.00  0.00     0.029 C 
ENDBRANCH  27  28
ENDBRANCH  25  27
ENDBRANCH  24  25
ENDBRANCH  23  24
ENDBRANCH   2  23
BRANCH   1  30
ATOM     30  C   UNL d   1      32.796  21.999 -23.533  0.00  0.00     0.069 A 
ATOM     31  C   UNL d   1      33.144  21.558 -24.123  0.00  0.00     0.018 A 
ATOM     32  C   UNL d   1      33.115  21.811 -24.905  0.00  0.00     0.002 A 
ATOM     33  C   UNL d   1      32.724  22.526 -25.094  0.00  0.00     0.000 A 
ATOM     34  C   UNL d   1      32.375  22.965 -24.495  0.00  0.00     0.002 A 
ATOM     35  C   UNL d   1      32.401  22.716 -23.706  0.00  0.00     0.018 A 
ENDBRANCH   1  30
TORSDOF 8
ENDMDL
