MODEL 1
REMARK VINA RESULT:      10.4      0.000      0.000
REMARK  1 active torsions:
REMARK  status: ('A' for Active; 'I' for Inactive)
REMARK    1  A    between atoms: C_6  and  C_1 
ROOT
ATOM      1  C   UNL d   1      13.669  12.326  -2.677  0.00  0.00     0.162 A 
ATOM      2  N   UNL d   1      14.403  12.582  -2.394  0.00  0.00    -0.225 NA
ATOM      3  N   UNL d   1      13.256  11.989  -2.064  0.00  0.00    -0.225 NA
ATOM      4  C   UNL d   1      14.451  12.401  -1.588  0.00  0.00     0.101 A 
ATOM      5  C   UNL d   1      13.744  12.037  -1.390  0.00  0.00     0.101 A 
ATOM      6  C   UNL d   1      15.036  12.520  -1.022  0.00  0.00     0.021 A 
ATOM      7  C   UNL d   1      13.611  11.783  -0.611  0.00  0.00     0.021 A 
ATOM      8  C   UNL d   1      14.925  12.273  -0.234  0.00  0.00     0.002 A 
ATOM      9  C   UNL d   1      14.213  11.901  -0.014  0.00  0.00     0.002 A 
ENDROOT
BRANCH   1  10
ATOM     10  C   UNL d   1      13.450  12.419  -3.436  0.00  0.00     0.036 A 
ATOM     11  C   UNL d   1      13.519  11.785  -3.966  0.00  0.00     0.005 A 
ATOM     12  C   UNL d   1      13.294  11.872  -4.754  0.00  0.00     0.030 A 
ATOM     13  C   UNL d   1      12.999  12.593  -5.021  0.00  0.00     0.140 A 
ATOM     14  C   UNL d   1      12.928  13.227  -4.497  0.00  0.00     0.030 A 
ATOM     15  F   UNL d   1      12.774  12.669  -5.826  0.00  0.00    -0.204 F 
ATOM     16  C   UNL d   1      13.148  13.150  -3.714  0.00  0.00     0.005 A 
ENDBRANCH   1  10
TORSDOF 1
ENDMDL
