MODEL 1
REMARK VINA RESULT:      49.3      0.000      0.000
REMARK  8 active torsions:
REMARK  status: ('A' for Active; 'I' for Inactive)
REMARK    1  A    between atoms: C_6  and  N_1 
REMARK    2  A    between atoms: C_7  and  C_6 
REMARK    3  A    between atoms: C_12  and  C_7 
REMARK    4  A    between atoms: C_8  and  C_19 
REMARK    5  A    between atoms: C_9  and  C_20 
REMARK    6  A    between atoms: N_13  and  C_12 
REMARK    7  A    between atoms: C_19  and  N_13 
REMARK    8  A    between atoms: C_20  and  N_13 
ROOT
ATOM      1  N   UNL d   1     -50.759  25.590  33.308  0.00  0.00    -0.303 N 
ATOM      2  C   UNL d   1     -51.519  25.926  33.310  0.00  0.00     0.064 A 
ATOM      3  C   UNL d   1     -50.848  24.763  33.309  0.00  0.00     0.064 A 
ATOM      4  C   UNL d   1     -51.656  24.588  33.311  0.00  0.00     0.018 A 
ATOM      5  C   UNL d   1     -52.078  25.306  33.312  0.00  0.00     0.018 A 
ATOM      6  C   UNL d   1     -50.294  24.152  33.308  0.00  0.00     0.018 A 
ATOM      7  C   UNL d   1     -51.775  26.711  33.310  0.00  0.00     0.018 A 
ATOM      8  C   UNL d   1     -51.911  23.801  33.312  0.00  0.00     0.002 A 
ATOM      9  C   UNL d   1     -52.879  25.478  33.313  0.00  0.00     0.002 A 
ATOM     10  C   UNL d   1     -53.137  26.256  33.313  0.00  0.00     0.000 A 
ATOM     11  C   UNL d   1     -52.585  26.874  33.311  0.00  0.00     0.002 A 
ATOM     12  C   UNL d   1     -50.549  23.357  33.310  0.00  0.00     0.002 A 
ATOM     13  C   UNL d   1     -51.360  23.189  33.312  0.00  0.00     0.000 A 
ENDROOT
BRANCH   1  14
ATOM     14  C   UNL d   1     -50.045  25.998  33.306  0.00  0.00     0.124 C 
BRANCH  14  15
ATOM     15  C   UNL d   1     -50.062  26.536  33.928  0.00  0.00     0.231 C 
ATOM     16  O   UNL d   1     -50.329  27.282  33.684  0.00  0.00    -0.283 OA
BRANCH  15  17
ATOM     17  C   UNL d   1     -49.878  26.514  34.731  0.00  0.00     0.124 C 
BRANCH  17  18
ATOM     18  N   UNL d   1     -49.595  27.187  35.106  0.00  0.00    -0.300 N 
BRANCH  18  19
ATOM     19  C   UNL d   1     -49.973  27.470  35.785  0.00  0.00     0.080 C 
BRANCH  19  20
ATOM     20  C   UNL d   1     -50.060  26.982  36.446  0.00  0.00     0.019 C 
ATOM     21  C   UNL d   1     -50.639  26.886  37.024  0.00  0.00     0.002 C 
ENDBRANCH  19  20
ENDBRANCH  18  19
BRANCH  18  22
ATOM     22  C   UNL d   1     -48.938  27.581  34.812  0.00  0.00     0.080 C 
BRANCH  22  23
ATOM     23  C   UNL d   1     -48.433  27.984  35.322  0.00  0.00     0.019 C 
ATOM     24  C   UNL d   1     -48.298  28.780  35.494  0.00  0.00     0.002 C 
ENDBRANCH  22  23
ENDBRANCH  18  22
ENDBRANCH  17  18
ENDBRANCH  15  17
ENDBRANCH  14  15
ENDBRANCH   1  14
TORSDOF 8
ENDMDL
