MODEL 1
REMARK VINA RESULT:      -4.2      0.000      0.000
REMARK  0 active torsions:
REMARK  status: ('A' for Active; 'I' for Inactive)
ROOT
ATOM      1  N   UNL d   1     -46.146  12.706  23.350  0.00  0.00    -0.219 NA
ATOM      2  C   UNL d   1     -46.572  12.004  23.470  0.00  0.00     0.215 A 
ATOM      3  S   UNL d   1     -47.373  12.163  23.320  0.00  0.00    -0.045 SA
ATOM      4  C   UNL d   1     -46.680  13.296  23.126  0.00  0.00     0.090 A 
ATOM      5  C   UNL d   1     -47.435  12.963  23.108  0.00  0.00     0.058 A 
ATOM      6  N   UNL d   1     -46.265  11.274  23.698  0.00  0.00    -0.120 N 
ATOM      7  C   UNL d   1     -46.485  14.074  22.955  0.00  0.00     0.021 C 
ENDROOT
TORSDOF 0
ENDMDL
MODEL 2
REMARK VINA RESULT:      -4.1      0.825      1.779
REMARK  0 active torsions:
REMARK  status: ('A' for Active; 'I' for Inactive)
ROOT
ATOM      1  N   UNL d   1     -46.189  12.842  23.388  0.00  0.00    -0.219 NA
ATOM      2  C   UNL d   1     -46.562  13.517  23.080  0.00  0.00     0.215 A 
ATOM      3  S   UNL d   1     -47.355  13.324  22.927  0.00  0.00    -0.045 SA
ATOM      4  C   UNL d   1     -46.749  12.235  23.425  0.00  0.00     0.090 A 
ATOM      5  C   UNL d   1     -47.466  12.530  23.141  0.00  0.00     0.058 A 
ATOM      6  N   UNL d   1     -46.216  14.253  22.946  0.00  0.00    -0.120 N 
ATOM      7  C   UNL d   1     -46.608  11.474  23.697  0.00  0.00     0.021 C 
ENDROOT
TORSDOF 0
ENDMDL
MODEL 3
REMARK VINA RESULT:      -3.8      1.156      1.266
REMARK  0 active torsions:
REMARK  status: ('A' for Active; 'I' for Inactive)
ROOT
ATOM      1  N   UNL d   1     -47.658  12.927  23.254  0.00  0.00    -0.219 NA
ATOM      2  C   UNL d   1     -47.794  12.150  23.512  0.00  0.00     0.215 A 
ATOM      3  S   UNL d   1     -47.057  11.783  23.618  0.00  0.00    -0.045 SA
ATOM      4  C   UNL d   1     -46.841  13.041  23.201  0.00  0.00     0.090 A 
ATOM      5  C   UNL d   1     -46.471  12.338  23.425  0.00  0.00     0.058 A 
ATOM      6  N   UNL d   1     -48.527  11.795  23.642  0.00  0.00    -0.120 N 
ATOM      7  C   UNL d   1     -46.471  13.734  22.967  0.00  0.00     0.021 C 
ENDROOT
TORSDOF 0
ENDMDL
MODEL 4
REMARK VINA RESULT:      -3.7      1.715      2.109
REMARK  0 active torsions:
REMARK  status: ('A' for Active; 'I' for Inactive)
ROOT
ATOM      1  N   UNL d   1     -47.371  14.694  22.723  0.00  0.00    -0.219 NA
ATOM      2  C   UNL d   1     -47.019  13.957  22.872  0.00  0.00     0.215 A 
ATOM      3  S   UNL d   1     -47.620  13.384  22.879  0.00  0.00    -0.045 SA
ATOM      4  C   UNL d   1     -48.186  14.577  22.639  0.00  0.00     0.090 A 
ATOM      5  C   UNL d   1     -48.339  13.772  22.735  0.00  0.00     0.058 A 
ATOM      6  N   UNL d   1     -46.217  13.810  22.992  0.00  0.00    -0.120 N 
ATOM      7  C   UNL d   1     -48.738  15.164  22.487  0.00  0.00     0.021 C 
ENDROOT
TORSDOF 0
ENDMDL
MODEL 5
REMARK VINA RESULT:      -3.5      1.865      2.310
REMARK  0 active torsions:
REMARK  status: ('A' for Active; 'I' for Inactive)
ROOT
ATOM      1  N   UNL d   1     -48.329  11.406  23.223  0.00  0.00    -0.219 NA
ATOM      2  C   UNL d   1     -48.843  11.857  22.752  0.00  0.00     0.215 A 
ATOM      3  S   UNL d   1     -48.437  12.543  22.519  0.00  0.00    -0.045 SA
ATOM      4  C   UNL d   1     -47.610  11.810  23.280  0.00  0.00     0.090 A 
ATOM      5  C   UNL d   1     -47.676  12.510  22.847  0.00  0.00     0.058 A 
ATOM      6  N   UNL d   1     -49.618  11.668  22.548  0.00  0.00    -0.120 N 
ATOM      7  C   UNL d   1     -46.951  11.554  23.696  0.00  0.00     0.021 C 
ENDROOT
TORSDOF 0
ENDMDL
MODEL 6
REMARK VINA RESULT:      -3.5      8.838      9.163
REMARK  0 active torsions:
REMARK  status: ('A' for Active; 'I' for Inactive)
ROOT
ATOM      1  N   UNL d   1     -41.113  14.873  17.262  0.00  0.00    -0.219 NA
ATOM      2  C   UNL d   1     -41.132  15.590  16.844  0.00  0.00     0.215 A 
ATOM      3  S   UNL d   1     -40.372  15.922  16.872  0.00  0.00    -0.045 SA
ATOM      4  C   UNL d   1     -40.345  14.762  17.547  0.00  0.00     0.090 A 
ATOM      5  C   UNL d   1     -39.889  15.407  17.308  0.00  0.00     0.058 A 
ATOM      6  N   UNL d   1     -41.784  15.922  16.465  0.00  0.00    -0.120 N 
ATOM      7  C   UNL d   1     -40.089  14.120  17.990  0.00  0.00     0.021 C 
ENDROOT
TORSDOF 0
ENDMDL
MODEL 7
REMARK VINA RESULT:      -3.5      1.950      2.418
REMARK  0 active torsions:
REMARK  status: ('A' for Active; 'I' for Inactive)
ROOT
ATOM      1  N   UNL d   1     -48.928  11.608  22.932  0.00  0.00    -0.219 NA
ATOM      2  C   UNL d   1     -48.161  11.814  23.171  0.00  0.00     0.215 A 
ATOM      3  S   UNL d   1     -47.954  12.520  22.785  0.00  0.00    -0.045 SA
ATOM      4  C   UNL d   1     -49.195  12.183  22.401  0.00  0.00     0.090 A 
ATOM      5  C   UNL d   1     -48.596  12.744  22.310  0.00  0.00     0.058 A 
ATOM      6  N   UNL d   1     -47.681  11.400  23.698  0.00  0.00    -0.120 N 
ATOM      7  C   UNL d   1     -49.928  12.188  22.032  0.00  0.00     0.021 C 
ENDROOT
TORSDOF 0
ENDMDL
MODEL 8
REMARK VINA RESULT:      -3.4      8.810      8.994
REMARK  0 active torsions:
REMARK  status: ('A' for Active; 'I' for Inactive)
ROOT
ATOM      1  N   UNL d   1     -41.078  14.852  17.442  0.00  0.00    -0.219 NA
ATOM      2  C   UNL d   1     -40.323  14.581  17.655  0.00  0.00     0.215 A 
ATOM      3  S   UNL d   1     -39.762  15.047  17.256  0.00  0.00    -0.045 SA
ATOM      4  C   UNL d   1     -40.985  15.482  16.914  0.00  0.00     0.090 A 
ATOM      5  C   UNL d   1     -40.177  15.602  16.800  0.00  0.00     0.058 A 
ATOM      6  N   UNL d   1     -40.149  13.962  18.170  0.00  0.00    -0.120 N 
ATOM      7  C   UNL d   1     -41.596  15.907  16.569  0.00  0.00     0.021 C 
ENDROOT
TORSDOF 0
ENDMDL
MODEL 9
REMARK VINA RESULT:      -3.3      3.013      3.381
REMARK  0 active torsions:
REMARK  status: ('A' for Active; 'I' for Inactive)
ROOT
ATOM      1  N   UNL d   1     -48.597  13.912  22.269  0.00  0.00    -0.219 NA
ATOM      2  C   UNL d   1     -49.183  14.422  22.560  0.00  0.00     0.215 A 
ATOM      3  S   UNL d   1     -49.895  14.238  22.174  0.00  0.00    -0.045 SA
ATOM      4  C   UNL d   1     -48.944  13.414  21.707  0.00  0.00     0.090 A 
ATOM      5  C   UNL d   1     -49.743  13.615  21.648  0.00  0.00     0.058 A 
ATOM      6  N   UNL d   1     -49.087  15.010  23.129  0.00  0.00    -0.120 N 
ATOM      7  C   UNL d   1     -48.556  12.827  21.286  0.00  0.00     0.021 C 
ENDROOT
TORSDOF 0
ENDMDL
