MODEL 1
REMARK VINA RESULT:       9.0      0.000      0.000
REMARK  3 active torsions:
REMARK  status: ('A' for Active; 'I' for Inactive)
REMARK       I    between atoms: N_4  and  C_1 
REMARK    1  A    between atoms: O_11  and  C_3 
REMARK    2  A    between atoms: C_6  and  N_4 
REMARK    3  A    between atoms: O_12  and  C_7 
ROOT
ATOM      1  C   UNL d   1     -54.712-101.458 -38.052  0.00  0.00     0.046 A 
ATOM      2  C   UNL d   1     -54.712-101.376 -37.233  0.00  0.00     0.118 A 
ATOM      3  C   UNL d   1     -54.712-102.212 -38.394  0.00  0.00     0.102 A 
ATOM      4  C   UNL d   1     -54.713-102.048 -36.751  0.00  0.00     0.116 A 
ATOM      5  C   UNL d   1     -54.713-102.802 -37.093  0.00  0.00     0.028 A 
ATOM      6  C   UNL d   1     -54.712-102.880 -37.915  0.00  0.00     0.022 A 
ENDROOT
BRANCH   3   7
ATOM      7  N   UNL d   1     -54.712-102.293 -39.217  0.00  0.00    -0.056 NA
ATOM      8  C   UNL d   1     -55.352-102.625 -39.602  0.00  0.00     0.787 C 
ATOM      9  N   UNL d   1     -55.351-102.705 -40.416  0.00  0.00     0.064 N 
ATOM     10  N   UNL d   1     -56.004-102.880 -39.161  0.00  0.00     0.064 N 
ENDBRANCH   3   7
BRANCH   2  11
ATOM     11  O   UNL d   1     -54.712-100.630 -36.894  0.00  0.00    -0.326 OA
ATOM     12  C   UNL d   1     -54.711 -99.962 -37.373  0.00  0.00     0.181 C 
ENDBRANCH   2  11
BRANCH   4  13
ATOM     13  O   UNL d   1     -54.713-101.968 -35.938  0.00  0.00    -0.326 OA
ATOM     14  C   UNL d   1     -55.224-102.424 -35.479  0.00  0.00     0.181 C 
ENDBRANCH   4  13
TORSDOF 3
ENDMDL
