MODEL 1
REMARK VINA RESULT:      28.5      0.000      0.000
REMARK  3 active torsions:
REMARK  status: ('A' for Active; 'I' for Inactive)
REMARK    1  A    between atoms: C_2  and  C_1 
REMARK       I    between atoms: N_4  and  C_2 
REMARK    2  A    between atoms: C_6  and  N_4 
REMARK    3  A    between atoms: S_12  and  C_5 
ROOT
ATOM      1  C   UNL d   1      14.167  12.649  -2.173  0.00  0.00     0.298 C 
ATOM      2  N   UNL d   1      13.709  13.145  -2.650  0.00  0.00    -0.207 NA
ATOM      3  O   UNL d   1      14.328  11.866  -2.406  0.00  0.00    -0.264 OA
ENDROOT
BRANCH   1   4
ATOM      4  C   UNL d   1      14.466  12.933  -1.457  0.00  0.00     0.153 A 
ATOM      5  N   UNL d   1      14.884  13.660  -1.432  0.00  0.00    -0.216 NA
ATOM      6  C   UNL d   1      15.182  13.939  -0.709  0.00  0.00     0.190 A 
ATOM      7  N   UNL d   1      15.070  13.504  -0.016  0.00  0.00    -0.219 NA
ATOM      8  C   UNL d   1      14.657  12.785  -0.041  0.00  0.00     0.114 A 
ATOM      9  C   UNL d   1      14.355  12.498  -0.759  0.00  0.00     0.099 A 
ATOM     10 CL   UNL d   1      13.942  11.779  -0.780  0.00  0.00    -0.079 Cl
BRANCH   6  11
ATOM     11  S   UNL d   1      15.593  14.653  -0.680  0.00  0.00    -0.075 SA
ATOM     12  C   UNL d   1      15.215  15.340  -0.395  0.00  0.00     0.077 C 
ENDBRANCH   6  11
ENDBRANCH   1   4
BRANCH   2  13
ATOM     13  C   UNL d   1      13.409  12.865  -3.365  0.00  0.00     0.085 A 
ATOM     14  C   UNL d   1      13.258  13.383  -3.981  0.00  0.00     0.018 A 
ATOM     15  C   UNL d   1      12.959  13.110  -4.694  0.00  0.00     0.002 A 
ATOM     16  C   UNL d   1      13.408  14.188  -3.883  0.00  0.00     0.002 A 
ATOM     17  C   UNL d   1      12.809  13.636  -5.310  0.00  0.00     0.000 A 
ATOM     18  C   UNL d   1      12.808  12.306  -4.792  0.00  0.00     0.000 A 
ATOM     19  C   UNL d   1      12.958  14.434  -5.213  0.00  0.00     0.000 A 
ATOM     20  C   UNL d   1      13.258  14.713  -4.500  0.00  0.00     0.000 A 
ATOM     21  C   UNL d   1      12.959  11.780  -4.172  0.00  0.00     0.002 A 
ATOM     22  C   UNL d   1      13.260  12.064  -3.458  0.00  0.00     0.019 A 
ENDBRANCH   2  13
TORSDOF 3
ENDMDL
MODEL 2
REMARK VINA RESULT:      31.2      1.874      4.254
REMARK  3 active torsions:
REMARK  status: ('A' for Active; 'I' for Inactive)
REMARK    1  A    between atoms: C_2  and  C_1 
REMARK       I    between atoms: N_4  and  C_2 
REMARK    2  A    between atoms: C_6  and  N_4 
REMARK    3  A    between atoms: S_12  and  C_5 
ROOT
ATOM      1  C   UNL d   1      13.382  12.346  -2.841  0.00  0.00     0.298 C 
ATOM      2  N   UNL d   1      13.989  12.660  -2.376  0.00  0.00    -0.207 NA
ATOM      3  O   UNL d   1      12.855  11.783  -2.525  0.00  0.00    -0.264 OA
ENDROOT
BRANCH   1   4
ATOM      4  C   UNL d   1      13.297  12.593  -3.624  0.00  0.00     0.153 A 
ATOM      5  N   UNL d   1      13.432  12.056  -4.254  0.00  0.00    -0.216 NA
ATOM      6  C   UNL d   1      13.344  12.312  -5.039  0.00  0.00     0.190 A 
ATOM      7  N   UNL d   1      13.126  13.091  -5.202  0.00  0.00    -0.219 NA
ATOM      8  C   UNL d   1      12.993  13.622  -4.579  0.00  0.00     0.114 A 
ATOM      9  C   UNL d   1      13.078  13.376  -3.791  0.00  0.00     0.099 A 
ATOM     10 CL   UNL d   1      12.944  13.910  -3.171  0.00  0.00    -0.079 Cl
BRANCH   6  11
ATOM     11  S   UNL d   1      13.476  11.786  -5.661  0.00  0.00    -0.075 SA
ATOM     12  C   UNL d   1      13.836  12.055  -6.364  0.00  0.00     0.077 C 
ENDBRANCH   6  11
ENDBRANCH   1   4
BRANCH   2  13
ATOM     13  C   UNL d   1      14.077  12.416  -1.594  0.00  0.00     0.085 A 
ATOM     14  C   UNL d   1      14.776  12.560  -1.192  0.00  0.00     0.018 A 
ATOM     15  C   UNL d   1      14.869  12.320  -0.413  0.00  0.00     0.002 A 
ATOM     16  C   UNL d   1      15.393  12.951  -1.574  0.00  0.00     0.002 A 
ATOM     17  C   UNL d   1      15.574  12.468  -0.015  0.00  0.00     0.000 A 
ATOM     18  C   UNL d   1      14.252  11.930  -0.031  0.00  0.00     0.000 A 
ATOM     19  C   UNL d   1      16.186  12.855  -0.394  0.00  0.00     0.000 A 
ATOM     20  C   UNL d   1      16.098  13.099  -1.175  0.00  0.00     0.000 A 
ATOM     21  C   UNL d   1      13.545  11.782  -0.433  0.00  0.00     0.002 A 
ATOM     22  C   UNL d   1      13.461  12.028  -1.217  0.00  0.00     0.019 A 
ENDBRANCH   2  13
TORSDOF 3
ENDMDL
