MODEL 1
REMARK VINA RESULT:      13.6      0.000      0.000
REMARK  1 active torsions:
REMARK  status: ('A' for Active; 'I' for Inactive)
REMARK    1  A    between atoms: C_2  and  C_1 
REMARK       I    between atoms: N_3  and  C_2 
ROOT
ATOM      1  C   UNL d   1      57.957  49.681  50.437  0.00  0.00     0.109 A 
ATOM      2  C   UNL d   1      57.739  49.685  51.212  0.00  0.00     0.026 A 
ATOM      3  C   UNL d   1      57.351  49.686  49.922  0.00  0.00    -0.014 A 
ATOM      4  C   UNL d   1      57.591  49.683  49.590  0.00  0.00    -0.014 A 
ATOM      5  C   UNL d   1      56.851  49.694  51.268  0.00  0.00     0.045 A 
ATOM      6  C   UNL d   1      56.852  49.690  49.631  0.00  0.00    -0.007 A 
ATOM      7  C   UNL d   1      56.400  49.696  49.999  0.00  0.00    -0.007 A 
ATOM      8  C   UNL d   1      56.034  49.698  49.152  0.00  0.00    -0.001 A 
ATOM      9  C   UNL d   1      56.191  49.699  50.741  0.00  0.00    -0.022 A 
ATOM     10  C   UNL d   1      56.511  49.696  50.622  0.00  0.00    -0.022 A 
ENDROOT
BRANCH   1  11
ATOM     11  C   UNL d   1      58.993  49.670  50.276  0.00  0.00     0.248 C 
ATOM     12  N   UNL d   1      59.688  49.687  51.052  0.00  0.00    -0.275 N 
ATOM     13  C   UNL d   1      59.907  49.707  51.802  0.00  0.00     0.083 A 
ATOM     14  C   UNL d   1      60.332  49.671  50.622  0.00  0.00     0.083 A 
ATOM     15  C   UNL d   1      60.695  49.703  51.824  0.00  0.00     0.021 A 
ATOM     16  C   UNL d   1      60.958  49.681  51.096  0.00  0.00     0.021 A 
ATOM     17  O   UNL d   1      59.208  49.646  49.458  0.00  0.00    -0.271 OA
ENDBRANCH   1  11
TORSDOF 1
ENDMDL
