MODEL 1
REMARK VINA RESULT:      45.9      0.000      0.000
REMARK  6 active torsions:
REMARK  status: ('A' for Active; 'I' for Inactive)
REMARK    1  A    between atoms: C_7  and  N_1 
REMARK    2  A    between atoms: C_6  and  C_3 
REMARK       I    between atoms: N_9  and  C_6 
REMARK    3  A    between atoms: C_19  and  N_9 
REMARK    4  A    between atoms: C_10  and  C_19 
REMARK    5  A    between atoms: O_23  and  C_20 
REMARK    6  A    between atoms: C_24  and  O_23 
ROOT
ATOM      1  N   UNL d   1      46.139 -18.483  42.243  0.00  0.00    -0.276 N 
ATOM      2  C   UNL d   1      46.030 -17.839  42.726  0.00  0.00     0.181 A 
ATOM      3  C   UNL d   1      46.236 -18.074  43.487  0.00  0.00     0.126 A 
ATOM      4  C   UNL d   1      46.419 -19.136  42.712  0.00  0.00     0.152 A 
ATOM      5  S   UNL d   1      46.475 -18.865  43.491  0.00  0.00    -0.051 SA
ATOM      6  S   UNL d   1      46.603 -19.905  42.443  0.00  0.00    -0.052 SA
ATOM      7  N   UNL d   1      45.766 -17.101  42.494  0.00  0.00    -0.128 N 
ENDROOT
BRANCH   1   8
ATOM      8  C   UNL d   1      45.993 -18.480  41.429  0.00  0.00     0.067 A 
ATOM      9  C   UNL d   1      46.382 -19.006  40.950  0.00  0.00     0.020 A 
ATOM     10  C   UNL d   1      46.246 -19.012  40.142  0.00  0.00     0.026 A 
ATOM     11  C   UNL d   1      45.710 -18.483  39.799  0.00  0.00     0.100 A 
ATOM     12  C   UNL d   1      45.316 -17.952  40.276  0.00  0.00     0.026 A 
ATOM     13  C   UNL d   1      45.458 -17.949  41.099  0.00  0.00     0.020 A 
BRANCH  11  14
ATOM     14  O   UNL d   1      45.548 -18.461  38.984  0.00  0.00    -0.305 OA
BRANCH  14  15
ATOM     15  C   UNL d   1      45.175 -17.789  38.659  0.00  0.00     0.123 C 
ATOM     16  C   UNL d   1      44.578 -17.895  38.085  0.00  0.00     0.029 C 
ENDBRANCH  14  15
ENDBRANCH  11  14
ENDBRANCH   1   8
BRANCH   3  17
ATOM     17  C   UNL d   1      46.220 -17.600  44.200  0.00  0.00     0.288 C 
ATOM     18  N   UNL d   1      45.861 -16.868  44.201  0.00  0.00    -0.204 NA
ATOM     19  O   UNL d   1      46.582 -17.906  44.899  0.00  0.00    -0.265 OA
BRANCH  18  20
ATOM     20  C   UNL d   1      45.865 -16.434  44.917  0.00  0.00     0.127 C 
BRANCH  20  21
ATOM     21  C   UNL d   1      45.718 -15.595  44.892  0.00  0.00     0.119 A 
ATOM     22  O   UNL d   1      44.949 -15.315  44.802  0.00  0.00    -0.304 OA
ATOM     23  C   UNL d   1      44.989 -14.501  44.798  0.00  0.00     0.123 A 
ATOM     24  C   UNL d   1      45.745 -14.269  44.883  0.00  0.00     0.029 A 
ATOM     25  C   UNL d   1      46.225 -14.928  44.944  0.00  0.00     0.028 A 
ENDBRANCH  20  21
ENDBRANCH  18  20
ENDBRANCH   3  17
TORSDOF 6
ENDMDL
MODEL 2
REMARK VINA RESULT:      46.1      2.459      5.161
REMARK  6 active torsions:
REMARK  status: ('A' for Active; 'I' for Inactive)
REMARK    1  A    between atoms: C_7  and  N_1 
REMARK    2  A    between atoms: C_6  and  C_3 
REMARK       I    between atoms: N_9  and  C_6 
REMARK    3  A    between atoms: C_19  and  N_9 
REMARK    4  A    between atoms: C_10  and  C_19 
REMARK    5  A    between atoms: O_23  and  C_20 
REMARK    6  A    between atoms: C_24  and  O_23 
ROOT
ATOM      1  N   UNL d   1      45.834 -18.486  40.617  0.00  0.00    -0.276 N 
ATOM      2  C   UNL d   1      45.338 -17.878  40.406  0.00  0.00     0.181 A 
ATOM      3  C   UNL d   1      45.309 -17.870  39.583  0.00  0.00     0.126 A 
ATOM      4  C   UNL d   1      46.122 -18.867  39.912  0.00  0.00     0.152 A 
ATOM      5  S   UNL d   1      45.784 -18.469  39.270  0.00  0.00    -0.051 SA
ATOM      6  S   UNL d   1      46.646 -19.516  39.871  0.00  0.00    -0.052 SA
ATOM      7  N   UNL d   1      44.946 -17.375  40.917  0.00  0.00    -0.128 N 
ENDROOT
BRANCH   1   8
ATOM      8  C   UNL d   1      46.015 -18.683  41.400  0.00  0.00     0.067 A 
ATOM      9  C   UNL d   1      45.742 -18.215  42.004  0.00  0.00     0.020 A 
ATOM     10  C   UNL d   1      45.914 -18.399  42.784  0.00  0.00     0.026 A 
ATOM     11  C   UNL d   1      46.368 -19.065  42.970  0.00  0.00     0.100 A 
ATOM     12  C   UNL d   1      46.645 -19.539  42.368  0.00  0.00     0.026 A 
ATOM     13  C   UNL d   1      46.467 -19.347  41.574  0.00  0.00     0.020 A 
BRANCH  11  14
ATOM     14  O   UNL d   1      46.561 -19.282  43.749  0.00  0.00    -0.305 OA
BRANCH  14  15
ATOM     15  C   UNL d   1      46.017 -19.730  44.196  0.00  0.00     0.123 C 
ATOM     16  C   UNL d   1      46.242 -20.003  44.953  0.00  0.00     0.029 C 
ENDBRANCH  14  15
ENDBRANCH  11  14
ENDBRANCH   1   8
BRANCH   3  17
ATOM     17  C   UNL d   1      44.864 -17.336  39.084  0.00  0.00     0.288 C 
ATOM     18  N   UNL d   1      45.211 -16.998  38.429  0.00  0.00    -0.204 NA
ATOM     19  O   UNL d   1      44.060 -17.167  39.285  0.00  0.00    -0.265 OA
BRANCH  18  20
ATOM     20  C   UNL d   1      44.743 -16.480  37.965  0.00  0.00     0.127 C 
BRANCH  20  21
ATOM     21  C   UNL d   1      45.130 -15.881  37.497  0.00  0.00     0.119 A 
ATOM     22  O   UNL d   1      45.609 -16.100  36.865  0.00  0.00    -0.304 OA
ATOM     23  C   UNL d   1      45.896 -15.413  36.532  0.00  0.00     0.123 A 
ATOM     24  C   UNL d   1      45.615 -14.784  36.930  0.00  0.00     0.029 A 
ATOM     25  C   UNL d   1      45.133 -15.043  37.539  0.00  0.00     0.028 A 
ENDBRANCH  20  21
ENDBRANCH  18  20
ENDBRANCH   3  17
TORSDOF 6
ENDMDL
