MODEL 1
REMARK VINA RESULT:      27.7      0.000      0.000
REMARK  5 active torsions:
REMARK  status: ('A' for Active; 'I' for Inactive)
REMARK    1  A    between atoms: N_3  and  C_1 
REMARK       I    between atoms: C_9  and  N_3 
REMARK       I    between atoms: N_7  and  C_8 
REMARK    2  A    between atoms: C_8  and  C_14 
REMARK    3  A    between atoms: C_15  and  C_9 
REMARK    4  A    between atoms: S_12  and  C_15 
REMARK    5  A    between atoms: C_14  and  S_12 
ROOT
ATOM      1  N   UNL d   1      12.927  12.568  -2.451  0.00  0.00    -0.183 NA
ATOM      2  C   UNL d   1      13.537  12.129  -2.101  0.00  0.00     0.287 C 
ATOM      3  O   UNL d   1      14.122  11.781  -2.575  0.00  0.00    -0.265 OA
ENDROOT
BRANCH   2   4
ATOM      4  C   UNL d   1      13.569  12.037  -1.288  0.00  0.00     0.098 C 
BRANCH   4   5
ATOM      5  S   UNL d   1      14.273  11.801  -0.917  0.00  0.00    -0.076 SA
BRANCH   5   6
ATOM      6  C   UNL d   1      14.485  12.121  -0.186  0.00  0.00     0.097 C 
BRANCH   6   7
ATOM      7  C   UNL d   1      15.152  12.600  -0.118  0.00  0.00     0.271 C 
ATOM      8  N   UNL d   1      15.065  13.415  -0.104  0.00  0.00    -0.272 N 
ATOM      9  C   UNL d   1      14.306  13.736  -0.159  0.00  0.00     0.083 A 
ATOM     10  C   UNL d   1      15.719  13.892  -0.036  0.00  0.00     0.083 A 
ATOM     11  C   UNL d   1      14.217  14.557  -0.145  0.00  0.00     0.019 A 
ATOM     12  C   UNL d   1      14.871  15.041  -0.077  0.00  0.00     0.003 A 
ATOM     13  C   UNL d   1      15.629  14.716  -0.022  0.00  0.00     0.019 A 
ATOM     14  O   UNL d   1      15.899  12.260  -0.064  0.00  0.00    -0.266 OA
ENDBRANCH   6   7
ENDBRANCH   5   6
ENDBRANCH   4   5
ENDBRANCH   2   4
BRANCH   1  15
ATOM     15  C   UNL d   1      13.082  12.536  -3.262  0.00  0.00     0.182 A 
ATOM     16  N   UNL d   1      13.562  13.057  -3.689  0.00  0.00    -0.283 N 
ATOM     17  C   UNL d   1      13.561  12.820  -4.483  0.00  0.00     0.072 A 
ATOM     18  C   UNL d   1      13.965  13.696  -3.373  0.00  0.00     0.101 C 
ATOM     19  C   UNL d   1      13.930  13.120  -5.151  0.00  0.00     0.017 A 
ATOM     20  C   UNL d   1      13.080  12.152  -4.548  0.00  0.00     0.048 A 
ATOM     21  C   UNL d   1      13.826  12.765  -5.876  0.00  0.00    -0.011 A 
ATOM     22  C   UNL d   1      13.346  12.097  -5.941  0.00  0.00     0.027 A 
ATOM     23  C   UNL d   1      12.968  11.782  -5.282  0.00  0.00    -0.004 A 
ATOM     24  S   UNL d   1      12.782  11.973  -3.794  0.00  0.00    -0.048 SA
ENDBRANCH   1  15
TORSDOF 5
ENDMDL
