MODEL 1
REMARK VINA RESULT:      -4.5      0.000      0.000
REMARK  1 active torsions:
REMARK  status: ('A' for Active; 'I' for Inactive)
REMARK    1  A    between atoms: C_6  and  CA_1 
ROOT
ATOM      1  CA  UNL d   1      57.182  -0.022  31.411  0.00  0.00     0.147 A 
ATOM      2  N   UNL d   1      57.007  -0.800  31.598  0.00  0.00    -0.237 NA
ATOM      3  C   UNL d   1      56.748   0.472  31.910  0.00  0.00     0.052 A 
ATOM      4  C   UNL d   1      56.461  -0.792  32.217  0.00  0.00     0.106 A 
ATOM      5  C   UNL d   1      56.301  -0.008  32.409  0.00  0.00     0.119 A 
ATOM      6  C   UNL d   1      56.014  -1.273  32.717  0.00  0.00     0.048 A 
ATOM      7  O   UNL d   1      55.755  -0.001  33.029  0.00  0.00    -0.303 OA
ATOM      8  C   UNL d   1      55.575  -0.784  33.221  0.00  0.00     0.124 A 
ENDROOT
BRANCH   1   9
ATOM      9  C   UNL d   1      57.707   0.227  30.820  0.00  0.00     0.230 C 
ATOM     10  O   UNL d   1      58.454   0.503  31.021  0.00  0.00    -0.643 OA
ATOM     11  OXT UNL d   1      57.479   0.198  30.031  0.00  0.00    -0.643 OA
ENDBRANCH   1   9
TORSDOF 1
ENDMDL
MODEL 2
REMARK VINA RESULT:      -4.4      0.811      2.614
REMARK  1 active torsions:
REMARK  status: ('A' for Active; 'I' for Inactive)
REMARK    1  A    between atoms: C_6  and  CA_1 
ROOT
ATOM      1  CA  UNL d   1      56.393  -0.811  32.308  0.00  0.00     0.147 A 
ATOM      2  N   UNL d   1      56.751  -1.185  31.673  0.00  0.00    -0.237 NA
ATOM      3  C   UNL d   1      56.588  -0.009  32.284  0.00  0.00     0.052 A 
ATOM      4  C   UNL d   1      57.171  -0.614  31.251  0.00  0.00     0.106 A 
ATOM      5  C   UNL d   1      57.071   0.111  31.628  0.00  0.00     0.119 A 
ATOM      6  C   UNL d   1      57.655  -0.494  30.593  0.00  0.00     0.048 A 
ATOM      7  O   UNL d   1      57.492   0.682  31.205  0.00  0.00    -0.303 OA
ATOM      8  C   UNL d   1      57.855   0.309  30.563  0.00  0.00     0.124 A 
ENDROOT
BRANCH   1   9
ATOM      9  C   UNL d   1      55.915  -1.177  32.878  0.00  0.00     0.230 C 
ATOM     10  O   UNL d   1      55.330  -0.748  33.264  0.00  0.00    -0.643 OA
ATOM     11  OXT UNL d   1      56.027  -1.972  33.058  0.00  0.00    -0.643 OA
ENDBRANCH   1   9
TORSDOF 1
ENDMDL
MODEL 3
REMARK VINA RESULT:      -4.2      8.504      9.130
REMARK  1 active torsions:
REMARK  status: ('A' for Active; 'I' for Inactive)
REMARK    1  A    between atoms: C_6  and  CA_1 
ROOT
ATOM      1  CA  UNL d   1      59.939  -7.062  35.957  0.00  0.00     0.147 A 
ATOM      2  N   UNL d   1      60.351  -7.667  35.587  0.00  0.00    -0.237 NA
ATOM      3  C   UNL d   1      59.277  -7.386  36.328  0.00  0.00     0.052 A 
ATOM      4  C   UNL d   1      59.945  -8.371  35.728  0.00  0.00     0.106 A 
ATOM      5  C   UNL d   1      59.282  -8.198  36.186  0.00  0.00     0.119 A 
ATOM      6  C   UNL d   1      59.951  -9.183  35.585  0.00  0.00     0.048 A 
ATOM      7  O   UNL d   1      58.876  -8.903  36.327  0.00  0.00    -0.303 OA
ATOM      8  C   UNL d   1      59.288  -9.515  35.956  0.00  0.00     0.124 A 
ENDROOT
BRANCH   1   9
ATOM      9  C   UNL d   1      60.151  -6.262  35.957  0.00  0.00     0.230 C 
ATOM     10  O   UNL d   1      60.871  -6.026  36.275  0.00  0.00    -0.643 OA
ATOM     11  OXT UNL d   1      59.641  -5.702  35.638  0.00  0.00    -0.643 OA
ENDBRANCH   1   9
TORSDOF 1
ENDMDL
MODEL 4
REMARK VINA RESULT:      -4.1      1.452      1.882
REMARK  1 active torsions:
REMARK  status: ('A' for Active; 'I' for Inactive)
REMARK    1  A    between atoms: C_6  and  CA_1 
ROOT
ATOM      1  CA  UNL d   1      56.302  -0.396  32.581  0.00  0.00     0.147 A 
ATOM      2  N   UNL d   1      55.506  -0.399  32.776  0.00  0.00    -0.237 NA
ATOM      3  C   UNL d   1      56.714   0.016  33.166  0.00  0.00     0.052 A 
ATOM      4  C   UNL d   1      55.420   0.013  33.486  0.00  0.00     0.106 A 
ATOM      5  C   UNL d   1      56.165   0.269  33.726  0.00  0.00     0.119 A 
ATOM      6  C   UNL d   1      54.870   0.266  34.046  0.00  0.00     0.048 A 
ATOM      7  O   UNL d   1      56.078   0.682  34.436  0.00  0.00    -0.303 OA
ATOM      8  C   UNL d   1      55.277   0.681  34.637  0.00  0.00     0.124 A 
ENDROOT
BRANCH   1   9
ATOM      9  C   UNL d   1      56.637  -0.748  31.910  0.00  0.00     0.230 C 
ATOM     10  O   UNL d   1      56.635  -1.566  31.828  0.00  0.00    -0.643 OA
ATOM     11  OXT UNL d   1      56.972  -0.278  31.325  0.00  0.00    -0.643 OA
ENDBRANCH   1   9
TORSDOF 1
ENDMDL
MODEL 5
REMARK VINA RESULT:      -3.6      8.764      9.508
REMARK  1 active torsions:
REMARK  status: ('A' for Active; 'I' for Inactive)
REMARK    1  A    between atoms: C_6  and  CA_1 
ROOT
ATOM      1  CA  UNL d   1      59.694  -8.331  36.173  0.00  0.00     0.147 A 
ATOM      2  N   UNL d   1      60.465  -8.083  36.299  0.00  0.00    -0.237 NA
ATOM      3  C   UNL d   1      59.222  -7.666  36.046  0.00  0.00     0.052 A 
ATOM      4  C   UNL d   1      60.474  -7.260  36.249  0.00  0.00     0.106 A 
ATOM      5  C   UNL d   1      59.708  -7.002  36.093  0.00  0.00     0.119 A 
ATOM      6  C   UNL d   1      60.961  -6.595  36.297  0.00  0.00     0.048 A 
ATOM      7  O   UNL d   1      59.718  -6.178  36.044  0.00  0.00    -0.303 OA
ATOM      8  C   UNL d   1      60.494  -5.923  36.170  0.00  0.00     0.124 A 
ENDROOT
BRANCH   1   9
ATOM      9  C   UNL d   1      59.433  -9.117  36.175  0.00  0.00     0.230 C 
ATOM     10  O   UNL d   1      58.644  -9.290  36.330  0.00  0.00    -0.643 OA
ATOM     11  OXT UNL d   1      59.963  -9.726  36.020  0.00  0.00    -0.643 OA
ENDBRANCH   1   9
TORSDOF 1
ENDMDL
MODEL 6
REMARK VINA RESULT:      -3.1      0.841      2.747
REMARK  1 active torsions:
REMARK  status: ('A' for Active; 'I' for Inactive)
REMARK    1  A    between atoms: C_6  and  CA_1 
ROOT
ATOM      1  CA  UNL d   1      56.993  -0.187  31.660  0.00  0.00     0.147 A 
ATOM      2  N   UNL d   1      57.238  -0.786  31.158  0.00  0.00    -0.237 NA
ATOM      3  C   UNL d   1      57.357   0.517  31.426  0.00  0.00     0.052 A 
ATOM      4  C   UNL d   1      57.758  -0.456  30.608  0.00  0.00     0.106 A 
ATOM      5  C   UNL d   1      57.831   0.347  30.774  0.00  0.00     0.119 A 
ATOM      6  C   UNL d   1      58.232  -0.625  29.955  0.00  0.00     0.048 A 
ATOM      7  O   UNL d   1      58.352   0.677  30.224  0.00  0.00    -0.303 OA
ATOM      8  C   UNL d   1      58.602   0.076  29.715  0.00  0.00     0.124 A 
ENDROOT
BRANCH   1   9
ATOM      9  C   UNL d   1      56.468  -0.272  32.295  0.00  0.00     0.230 C 
ATOM     10  O   UNL d   1      55.911   0.312  32.452  0.00  0.00    -0.643 OA
ATOM     11  OXT UNL d   1      56.503  -0.943  32.769  0.00  0.00    -0.643 OA
ENDBRANCH   1   9
TORSDOF 1
ENDMDL
MODEL 7
REMARK VINA RESULT:      -2.8      9.495      9.700
REMARK  1 active torsions:
REMARK  status: ('A' for Active; 'I' for Inactive)
REMARK    1  A    between atoms: C_6  and  CA_1 
ROOT
ATOM      1  CA  UNL d   1      60.176  -9.074  34.026  0.00  0.00     0.147 A 
ATOM      2  N   UNL d   1      60.632  -8.515  34.414  0.00  0.00    -0.237 NA
ATOM      3  C   UNL d   1      59.509  -9.233  34.485  0.00  0.00     0.052 A 
ATOM      4  C   UNL d   1      60.248  -8.324  35.119  0.00  0.00     0.106 A 
ATOM      5  C   UNL d   1      59.556  -8.767  35.163  0.00  0.00     0.119 A 
ATOM      6  C   UNL d   1      60.294  -7.856  35.797  0.00  0.00     0.048 A 
ATOM      7  O   UNL d   1      59.172  -8.575  35.868  0.00  0.00    -0.303 OA
ATOM      8  C   UNL d   1      59.628  -8.011  36.263  0.00  0.00     0.124 A 
ENDROOT
BRANCH   1   9
ATOM      9  C   UNL d   1      60.355  -9.421  33.295  0.00  0.00     0.230 C 
ATOM     10  O   UNL d   1      59.758  -9.750  32.837  0.00  0.00    -0.643 OA
ATOM     11  OXT UNL d   1      61.133  -9.438  33.028  0.00  0.00    -0.643 OA
ENDBRANCH   1   9
TORSDOF 1
ENDMDL
MODEL 8
REMARK VINA RESULT:      -2.5      1.460      2.168
REMARK  1 active torsions:
REMARK  status: ('A' for Active; 'I' for Inactive)
REMARK    1  A    between atoms: C_6  and  CA_1 
ROOT
ATOM      1  CA  UNL d   1      58.315  -0.679  29.890  0.00  0.00     0.147 A 
ATOM      2  N   UNL d   1      57.789  -1.092  30.364  0.00  0.00    -0.237 NA
ATOM      3  C   UNL d   1      58.373   0.094  30.175  0.00  0.00     0.052 A 
ATOM      4  C   UNL d   1      57.518  -0.575  30.947  0.00  0.00     0.106 A 
ATOM      5  C   UNL d   1      57.879   0.156  30.831  0.00  0.00     0.119 A 
ATOM      6  C   UNL d   1      57.023  -0.514  31.604  0.00  0.00     0.048 A 
ATOM      7  O   UNL d   1      57.607   0.672  31.416  0.00  0.00    -0.303 OA
ATOM      8  C   UNL d   1      57.077   0.260  31.896  0.00  0.00     0.124 A 
ENDROOT
BRANCH   1   9
ATOM      9  C   UNL d   1      58.719  -0.985  29.235  0.00  0.00     0.230 C 
ATOM     10  O   UNL d   1      59.201  -1.645  29.319  0.00  0.00    -0.643 OA
ATOM     11  OXT UNL d   1      58.639  -0.627  28.499  0.00  0.00    -0.643 OA
ENDBRANCH   1   9
TORSDOF 1
ENDMDL
MODEL 9
REMARK VINA RESULT:      -2.5      3.308      4.448
REMARK  1 active torsions:
REMARK  status: ('A' for Active; 'I' for Inactive)
REMARK    1  A    between atoms: C_6  and  CA_1 
ROOT
ATOM      1  CA  UNL d   1      58.880  -2.609  28.965  0.00  0.00     0.147 A 
ATOM      2  N   UNL d   1      58.500  -2.241  29.591  0.00  0.00    -0.237 NA
ATOM      3  C   UNL d   1      59.204  -2.027  28.477  0.00  0.00     0.052 A 
ATOM      4  C   UNL d   1      58.588  -1.426  29.494  0.00  0.00     0.106 A 
ATOM      5  C   UNL d   1      59.022  -1.294  28.807  0.00  0.00     0.119 A 
ATOM      6  C   UNL d   1      58.405  -0.693  29.824  0.00  0.00     0.048 A 
ATOM      7  O   UNL d   1      59.109  -0.479  28.710  0.00  0.00    -0.303 OA
ATOM      8  C   UNL d   1      58.728  -0.104  29.339  0.00  0.00     0.124 A 
ENDROOT
BRANCH   1   9
ATOM      9  C   UNL d   1      58.930  -3.427  28.843  0.00  0.00     0.230 C 
ATOM     10  O   UNL d   1      58.246  -3.871  28.737  0.00  0.00    -0.643 OA
ATOM     11  OXT UNL d   1      59.664  -3.795  28.826  0.00  0.00    -0.643 OA
ENDBRANCH   1   9
TORSDOF 1
ENDMDL
