MODEL 1
REMARK VINA RESULT:      -2.2      0.000      0.000
REMARK  8 active torsions:
REMARK  status: ('A' for Active; 'I' for Inactive)
REMARK    1  A    between atoms: C_6  and  N_1 
REMARK    2  A    between atoms: C_15  and  N_2 
REMARK    3  A    between atoms: C_8  and  C_3 
REMARK    4  A    between atoms: O_23  and  C_5 
REMARK    5  A    between atoms: C_7  and  O_9 
REMARK    6  A    between atoms: O_9  and  C_21 
REMARK    7  A    between atoms: C_20  and  C_15 
REMARK    8  A    between atoms: C_21  and  C_20 
ROOT
ATOM      1  C   UNL d   1      57.585   0.494  30.448  0.00  0.00     0.238 C 
ATOM      2  O   UNL d   1      56.985   0.314  29.910  0.00  0.00    -0.283 OA
ENDROOT
BRANCH   1   3
ATOM      3  C   UNL d   1      58.374   0.492  30.206  0.00  0.00     0.125 C 
BRANCH   3   4
ATOM      4  N   UNL d   1      58.731  -0.213  29.942  0.00  0.00    -0.297 N 
ATOM      5  C   UNL d   1      59.154  -0.671  30.488  0.00  0.00     0.100 A 
ATOM      6  C   UNL d   1      59.513  -1.373  30.238  0.00  0.00     0.100 A 
ATOM      7  N   UNL d   1      59.446  -1.609  29.449  0.00  0.00    -0.301 N 
ATOM      8  C   UNL d   1      59.022  -1.148  28.907  0.00  0.00     0.100 A 
ATOM      9  C   UNL d   1      58.659  -0.439  29.159  0.00  0.00     0.100 A 
BRANCH   7  10
ATOM     10  C   UNL d   1      59.805  -2.310  29.201  0.00  0.00     0.064 A 
ATOM     11  C   UNL d   1      60.623  -2.344  29.102  0.00  0.00     0.020 A 
ATOM     12  C   UNL d   1      60.985  -3.045  28.853  0.00  0.00     0.031 A 
ATOM     13  C   UNL d   1      60.521  -3.709  28.704  0.00  0.00     0.140 A 
ATOM     14  C   UNL d   1      59.699  -3.675  28.803  0.00  0.00     0.031 A 
ATOM     15  F   UNL d   1      60.880  -4.409  28.455  0.00  0.00    -0.204 F 
ATOM     16  C   UNL d   1      59.349  -2.973  29.051  0.00  0.00     0.020 A 
ENDBRANCH   7  10
ENDBRANCH   3   4
ENDBRANCH   1   3
BRANCH   1  17
ATOM     17  C   UNL d   1      57.396   0.679  31.243  0.00  0.00     0.166 C 
BRANCH  17  18
ATOM     18  O   UNL d   1      57.000   0.118  31.723  0.00  0.00    -0.300 OA
BRANCH  18  19
ATOM     19  C   UNL d   1      56.944   0.210  32.554  0.00  0.00     0.122 A 
ATOM     20  C   UNL d   1      56.294  -0.080  32.955  0.00  0.00     0.117 A 
ATOM     21  C   UNL d   1      56.238   0.009  33.768  0.00  0.00     0.029 A 
ATOM     22  C   UNL d   1      56.841   0.392  34.182  0.00  0.00     0.041 A 
ATOM     23  C   UNL d   1      57.491   0.682  33.781  0.00  0.00     0.005 A 
ATOM     24  C   UNL d   1      57.550   0.593  32.958  0.00  0.00     0.027 A 
BRANCH  20  25
ATOM     25  O   UNL d   1      55.695  -0.461  32.541  0.00  0.00    -0.326 OA
ATOM     26  C   UNL d   1      55.251  -1.052  32.907  0.00  0.00     0.181 C 
ENDBRANCH  20  25
BRANCH  22  27
ATOM     27  C   UNL d   1      56.786   0.483  34.999  0.00  0.00     0.196 C 
ATOM     28  O   UNL d   1      56.048   0.476  35.367  0.00  0.00    -0.287 OA
ATOM     29  C   UNL d   1      57.469   0.580  35.448  0.00  0.00     0.045 C 
ENDBRANCH  22  27
ENDBRANCH  18  19
ENDBRANCH  17  18
ENDBRANCH   1  17
TORSDOF 8
ENDMDL
