MODEL 1
REMARK VINA RESULT:      -5.4      0.000      0.000
REMARK  3 active torsions:
REMARK  status: ('A' for Active; 'I' for Inactive)
REMARK    1  A    between atoms: CB_6  and  CG_1 
REMARK    2  A    between atoms: C_5  and  CA_8 
REMARK    3  A    between atoms: CA_8  and  CB_6 
ROOT
ATOM      1  CG  TRP d   1      56.251  -0.299  32.478  0.00  0.00     0.022 A 
ATOM      2  NE1 TRP d   1      56.671  -1.422  31.903  0.00  0.00    -0.244 NA
ATOM      3  CD1 TRP d   1      56.202  -1.109  32.504  0.00  0.00     0.099 A 
ATOM      4  CD2 TRP d   1      56.758  -0.093  31.853  0.00  0.00     0.019 A 
ATOM      5  CE2 TRP d   1      57.016  -0.790  31.499  0.00  0.00     0.081 A 
ATOM      6  CE3 TRP d   1      57.016   0.639  31.564  0.00  0.00     0.002 A 
ATOM      7  CZ2 TRP d   1      57.531  -0.759  30.856  0.00  0.00     0.019 A 
ATOM      8  CZ3 TRP d   1      57.529   0.670  30.923  0.00  0.00     0.000 A 
ATOM      9  CH2 TRP d   1      57.789  -0.027  30.567  0.00  0.00     0.002 A 
ENDROOT
BRANCH   1  10
ATOM     10  CB  TRP d   1      55.859   0.217  32.992  0.00  0.00     0.029 C 
BRANCH  10  11
ATOM     11  CA  TRP d   1      55.376  -0.083  33.577  0.00  0.00     0.167 C 
ATOM     12  N   TRP d   1      55.243  -0.896  33.625  0.00  0.00    -0.142 N 
BRANCH  11  13
ATOM     13  C   TRP d   1      55.023   0.428  34.117  0.00  0.00     0.231 C 
ATOM     14  O   TRP d   1      54.257   0.682  34.001  0.00  0.00    -0.643 OA
ATOM     15  OXT TRP d   1      55.450   0.681  34.775  0.00  0.00    -0.643 OA
ENDBRANCH  11  13
ENDBRANCH  10  11
ENDBRANCH   1  10
TORSDOF 3
ENDMDL
MODEL 2
REMARK VINA RESULT:      -4.9      2.462      3.652
REMARK  3 active torsions:
REMARK  status: ('A' for Active; 'I' for Inactive)
REMARK    1  A    between atoms: CB_6  and  CG_1 
REMARK    2  A    between atoms: C_5  and  CA_8 
REMARK    3  A    between atoms: CA_8  and  CB_6 
ROOT
ATOM      1  CG  TRP d   1      57.171  -0.096  31.787  0.00  0.00     0.022 A 
ATOM      2  NE1 TRP d   1      57.000   0.681  32.851  0.00  0.00    -0.244 NA
ATOM      3  CD1 TRP d   1      57.391   0.605  32.130  0.00  0.00     0.099 A 
ATOM      4  CD2 TRP d   1      56.634  -0.473  32.296  0.00  0.00     0.019 A 
ATOM      5  CE2 TRP d   1      56.530   0.010  32.953  0.00  0.00     0.081 A 
ATOM      6  CE3 TRP d   1      56.228  -1.193  32.242  0.00  0.00     0.002 A 
ATOM      7  CZ2 TRP d   1      56.022  -0.222  33.560  0.00  0.00     0.019 A 
ATOM      8  CZ3 TRP d   1      55.721  -1.425  32.846  0.00  0.00     0.000 A 
ATOM      9  CH2 TRP d   1      55.616  -0.942  33.506  0.00  0.00     0.002 A 
ENDROOT
BRANCH   1  10
ATOM     10  CB  TRP d   1      57.444  -0.374  31.056  0.00  0.00     0.029 C 
BRANCH  10  11
ATOM     11  CA  TRP d   1      57.987   0.064  30.633  0.00  0.00     0.167 C 
ATOM     12  N   TRP d   1      58.394   0.682  31.000  0.00  0.00    -0.142 N 
BRANCH  11  13
ATOM     13  C   TRP d   1      58.127  -0.113  29.843  0.00  0.00     0.231 C 
ATOM     14  O   TRP d   1      58.603  -0.744  29.641  0.00  0.00    -0.643 OA
ATOM     15  OXT TRP d   1      57.782   0.351  29.256  0.00  0.00    -0.643 OA
ENDBRANCH  11  13
ENDBRANCH  10  11
ENDBRANCH   1  10
TORSDOF 3
ENDMDL
MODEL 3
REMARK VINA RESULT:      -4.1      1.562      2.318
REMARK  3 active torsions:
REMARK  status: ('A' for Active; 'I' for Inactive)
REMARK    1  A    between atoms: CB_6  and  CG_1 
REMARK    2  A    between atoms: C_5  and  CA_8 
REMARK    3  A    between atoms: CA_8  and  CB_6 
ROOT
ATOM      1  CG  TRP d   1      57.381  -0.401  31.072  0.00  0.00     0.022 A 
ATOM      2  NE1 TRP d   1      57.827   0.681  30.442  0.00  0.00    -0.244 NA
ATOM      3  CD1 TRP d   1      57.357   0.410  31.062  0.00  0.00     0.099 A 
ATOM      4  CD2 TRP d   1      57.873  -0.651  30.451  0.00  0.00     0.019 A 
ATOM      5  CE2 TRP d   1      58.147   0.021  30.064  0.00  0.00     0.081 A 
ATOM      6  CE3 TRP d   1      58.104  -1.403  30.193  0.00  0.00     0.002 A 
ATOM      7  CZ2 TRP d   1      58.653  -0.055  29.416  0.00  0.00     0.019 A 
ATOM      8  CZ3 TRP d   1      58.608  -1.479  29.548  0.00  0.00     0.000 A 
ATOM      9  CH2 TRP d   1      58.884  -0.807  29.157  0.00  0.00     0.002 A 
ENDROOT
BRANCH   1  10
ATOM     10  CB  TRP d   1      56.980  -0.882  31.614  0.00  0.00     0.029 C 
BRANCH  10  11
ATOM     11  CA  TRP d   1      56.651  -0.551  32.284  0.00  0.00     0.167 C 
ATOM     12  N   TRP d   1      56.929   0.174  32.564  0.00  0.00    -0.142 N 
BRANCH  11  13
ATOM     13  C   TRP d   1      56.044  -0.942  32.676  0.00  0.00     0.231 C 
ATOM     14  O   TRP d   1      56.119  -1.732  32.863  0.00  0.00    -0.643 OA
ATOM     15  OXT TRP d   1      55.360  -0.530  32.879  0.00  0.00    -0.643 OA
ENDBRANCH  11  13
ENDBRANCH  10  11
ENDBRANCH   1  10
TORSDOF 3
ENDMDL
MODEL 4
REMARK VINA RESULT:      -3.4      8.874      9.536
REMARK  3 active torsions:
REMARK  status: ('A' for Active; 'I' for Inactive)
REMARK    1  A    between atoms: CB_6  and  CG_1 
REMARK    2  A    between atoms: C_5  and  CA_8 
REMARK    3  A    between atoms: CA_8  and  CB_6 
ROOT
ATOM      1  CG  TRP d   1      59.923  -8.632  34.800  0.00  0.00     0.022 A 
ATOM      2  NE1 TRP d   1      58.912  -9.201  34.151  0.00  0.00    -0.244 NA
ATOM      3  CD1 TRP d   1      59.122  -8.758  34.813  0.00  0.00     0.099 A 
ATOM      4  CD2 TRP d   1      60.229  -8.999  34.120  0.00  0.00     0.019 A 
ATOM      5  CE2 TRP d   1      59.601  -9.350  33.721  0.00  0.00     0.081 A 
ATOM      6  CE3 TRP d   1      60.997  -9.057  33.818  0.00  0.00     0.002 A 
ATOM      7  CZ2 TRP d   1      59.737  -9.760  33.018  0.00  0.00     0.019 A 
ATOM      8  CZ3 TRP d   1      61.133  -9.465  33.117  0.00  0.00     0.000 A 
ATOM      9  CH2 TRP d   1      60.506  -9.818  32.715  0.00  0.00     0.002 A 
ENDROOT
BRANCH   1  10
ATOM     10  CB  TRP d   1      60.347  -8.209  35.371  0.00  0.00     0.029 C 
BRANCH  10  11
ATOM     11  CA  TRP d   1      59.948  -7.746  35.912  0.00  0.00     0.167 C 
ATOM     12  N   TRP d   1      59.294  -8.051  36.312  0.00  0.00    -0.142 N 
BRANCH  11  13
ATOM     13  C   TRP d   1      60.200  -6.977  36.054  0.00  0.00     0.231 C 
ATOM     14  O   TRP d   1      60.970  -6.833  36.283  0.00  0.00    -0.643 OA
ATOM     15  OXT TRP d   1      59.671  -6.352  35.965  0.00  0.00    -0.643 OA
ENDBRANCH  11  13
ENDBRANCH  10  11
ENDBRANCH   1  10
TORSDOF 3
ENDMDL
MODEL 5
REMARK VINA RESULT:      -3.2      3.445      4.671
REMARK  3 active torsions:
REMARK  status: ('A' for Active; 'I' for Inactive)
REMARK    1  A    between atoms: CB_6  and  CG_1 
REMARK    2  A    between atoms: C_5  and  CA_8 
REMARK    3  A    between atoms: CA_8  and  CB_6 
ROOT
ATOM      1  CG  TRP d   1      58.209  -0.907  29.860  0.00  0.00     0.022 A 
ATOM      2  NE1 TRP d   1      58.287   0.419  29.833  0.00  0.00    -0.244 NA
ATOM      3  CD1 TRP d   1      58.517  -0.275  29.454  0.00  0.00     0.099 A 
ATOM      4  CD2 TRP d   1      57.778  -0.612  30.505  0.00  0.00     0.019 A 
ATOM      5  CE2 TRP d   1      57.828   0.209  30.486  0.00  0.00     0.081 A 
ATOM      6  CE3 TRP d   1      57.348  -0.987  31.105  0.00  0.00     0.002 A 
ATOM      7  CZ2 TRP d   1      57.449   0.659  31.064  0.00  0.00     0.019 A 
ATOM      8  CZ3 TRP d   1      56.970  -0.539  31.682  0.00  0.00     0.000 A 
ATOM      9  CH2 TRP d   1      57.019   0.284  31.664  0.00  0.00     0.002 A 
ENDROOT
BRANCH   1  10
ATOM     10  CB  TRP d   1      58.316  -1.702  29.654  0.00  0.00     0.029 C 
BRANCH  10  11
ATOM     11  CA  TRP d   1      58.964  -1.922  29.209  0.00  0.00     0.167 C 
ATOM     12  N   TRP d   1      59.402  -1.349  28.807  0.00  0.00    -0.142 N 
BRANCH  11  13
ATOM     13  C   TRP d   1      59.179  -2.714  29.165  0.00  0.00     0.231 C 
ATOM     14  O   TRP d   1      59.947  -2.941  29.317  0.00  0.00    -0.643 OA
ATOM     15  OXT TRP d   1      58.611  -3.278  28.966  0.00  0.00    -0.643 OA
ENDBRANCH  11  13
ENDBRANCH  10  11
ENDBRANCH   1  10
TORSDOF 3
ENDMDL
MODEL 6
REMARK VINA RESULT:      -2.8      3.603      4.850
REMARK  3 active torsions:
REMARK  status: ('A' for Active; 'I' for Inactive)
REMARK    1  A    between atoms: CB_6  and  CG_1 
REMARK    2  A    between atoms: C_5  and  CA_8 
REMARK    3  A    between atoms: CA_8  and  CB_6 
ROOT
ATOM      1  CG  TRP d   1      59.315  -1.230  29.201  0.00  0.00     0.022 A 
ATOM      2  NE1 TRP d   1      60.590  -1.546  29.001  0.00  0.00    -0.244 NA
ATOM      3  CD1 TRP d   1      60.069  -0.932  29.174  0.00  0.00     0.099 A 
ATOM      4  CD2 TRP d   1      59.355  -2.044  29.043  0.00  0.00     0.019 A 
ATOM      5  CE2 TRP d   1      60.145  -2.237  28.920  0.00  0.00     0.081 A 
ATOM      6  CE3 TRP d   1      58.772  -2.631  28.996  0.00  0.00     0.002 A 
ATOM      7  CZ2 TRP d   1      60.358  -3.016  28.749  0.00  0.00     0.019 A 
ATOM      8  CZ3 TRP d   1      58.984  -3.407  28.826  0.00  0.00     0.000 A 
ATOM      9  CH2 TRP d   1      59.775  -3.603  28.703  0.00  0.00     0.002 A 
ENDROOT
BRANCH   1  10
ATOM     10  CB  TRP d   1      58.634  -0.786  29.359  0.00  0.00     0.029 C 
BRANCH  10  11
ATOM     11  CA  TRP d   1      58.704  -0.029  29.657  0.00  0.00     0.167 C 
ATOM     12  N   TRP d   1      59.379   0.417  29.495  0.00  0.00    -0.142 N 
BRANCH  11  13
ATOM     13  C   TRP d   1      58.100   0.285  30.117  0.00  0.00     0.231 C 
ATOM     14  O   TRP d   1      58.184   0.333  30.927  0.00  0.00    -0.643 OA
ATOM     15  OXT TRP d   1      57.409   0.551  29.755  0.00  0.00    -0.643 OA
ENDBRANCH  11  13
ENDBRANCH  10  11
ENDBRANCH   1  10
TORSDOF 3
ENDMDL
