MODEL 1
REMARK VINA RESULT:      40.2      0.000      0.000
REMARK  3 active torsions:
REMARK  status: ('A' for Active; 'I' for Inactive)
REMARK    1  A    between atoms: N_5  and  C_2 
REMARK    2  A    between atoms: C_9  and  C_3 
REMARK       I    between atoms: C_7  and  N_5 
REMARK    3  A    between atoms: C_8  and  C_7 
ROOT
ATOM      1  N   UNL d   1      13.894  12.967  -2.775  0.00  0.00    -0.200 NA
ATOM      2  C   UNL d   1      13.528  12.887  -3.502  0.00  0.00     0.216 A 
ATOM      3  C   UNL d   1      13.734  12.272  -2.341  0.00  0.00     0.172 A 
ATOM      4  N   UNL d   1      13.272  11.780  -2.812  0.00  0.00    -0.187 NA
ATOM      5  S   UNL d   1      13.145  12.160  -3.529  0.00  0.00     0.054 SA
ENDROOT
BRANCH   2   6
ATOM      6  N   UNL d   1      13.545  13.447  -4.104  0.00  0.00    -0.181 NA
ATOM      7  C   UNL d   1      13.450  14.250  -3.921  0.00  0.00     0.281 C 
ATOM      8  O   UNL d   1      13.340  14.486  -3.143  0.00  0.00    -0.265 OA
BRANCH   7   9
ATOM      9  C   UNL d   1      13.467  14.807  -4.521  0.00  0.00     0.058 A 
ATOM     10  C   UNL d   1      12.769  15.040  -4.885  0.00  0.00     0.005 A 
ATOM     11  C   UNL d   1      12.785  15.604  -5.491  0.00  0.00     0.000 A 
ATOM     12  C   UNL d   1      13.500  15.931  -5.728  0.00  0.00     0.000 A 
ATOM     13  C   UNL d   1      14.207  15.699  -5.363  0.00  0.00     0.000 A 
ATOM     14  C   UNL d   1      13.517  16.492  -6.331  0.00  0.00     0.000 C 
ATOM     15  C   UNL d   1      14.190  15.135  -4.757  0.00  0.00     0.005 A 
ENDBRANCH   7   9
ENDBRANCH   2   6
BRANCH   3  16
ATOM     16  C   UNL d   1      13.991  12.110  -1.581  0.00  0.00     0.036 A 
ATOM     17  C   UNL d   1      13.435  11.942  -0.990  0.00  0.00     0.003 A 
ATOM     18  C   UNL d   1      13.705  11.780  -0.226  0.00  0.00     0.000 A 
ATOM     19  C   UNL d   1      14.518  11.785  -0.053  0.00  0.00     0.000 A 
ATOM     20  C   UNL d   1      15.058  11.952  -0.645  0.00  0.00     0.000 A 
ATOM     21  C   UNL d   1      14.797  12.116  -1.412  0.00  0.00     0.003 A 
ENDBRANCH   3  16
TORSDOF 3
ENDMDL
