MODEL 1
REMARK VINA RESULT:      39.8      0.000      0.000
REMARK  3 active torsions:
REMARK  status: ('A' for Active; 'I' for Inactive)
REMARK    1  A    between atoms: C_8  and  N_1 
REMARK    2  A    between atoms: N_10  and  C_5 
REMARK    3  A    between atoms: C_15  and  N_10 
ROOT
ATOM      1  N   UNL d   1     -57.462 -99.181 -44.236  0.00  0.00    -0.212 N 
ATOM      2  C   UNL d   1     -56.838 -99.072 -44.765  0.00  0.00     0.170 A 
ATOM      3  C   UNL d   1     -56.139 -99.281 -44.380  0.00  0.00     0.093 A 
ATOM      4  N   UNL d   1     -57.146 -99.458 -43.520  0.00  0.00    -0.162 NA
ATOM      5  C   UNL d   1     -55.413 -99.228 -44.778  0.00  0.00     0.169 A 
ATOM      6  C   UNL d   1     -56.326 -99.518 -43.616  0.00  0.00     0.127 A 
ATOM      7  N   UNL d   1     -56.823 -98.809 -45.551  0.00  0.00    -0.205 NA
ATOM      8  N   UNL d   1     -55.398 -98.964 -45.564  0.00  0.00    -0.205 NA
ATOM      9  C   UNL d   1     -56.101 -98.758 -45.944  0.00  0.00     0.202 A 
ENDROOT
BRANCH   1  10
ATOM     10  C   UNL d   1     -58.261 -99.039 -44.390  0.00  0.00     0.085 A 
ATOM     11  C   UNL d   1     -58.539 -99.038 -45.161  0.00  0.00     0.019 A 
ATOM     12  C   UNL d   1     -59.343 -98.895 -45.314  0.00  0.00     0.002 A 
ATOM     13  C   UNL d   1     -59.626 -98.892 -46.084  0.00  0.00     0.000 C 
ATOM     14  C   UNL d   1     -59.859 -98.756 -44.697  0.00  0.00     0.000 A 
ATOM     15  C   UNL d   1     -59.578 -98.758 -43.913  0.00  0.00     0.002 A 
ATOM     16  C   UNL d   1     -58.791 -98.897 -43.757  0.00  0.00     0.019 A 
ENDBRANCH   1  10
BRANCH   5  17
ATOM     17  N   UNL d   1     -54.717 -99.433 -44.403  0.00  0.00    -0.227 NA
BRANCH  17  18
ATOM     18  C   UNL d   1     -54.719 -99.619 -43.608  0.00  0.00     0.083 C 
ATOM     19  C   UNL d   1     -54.715 -99.021 -43.039  0.00  0.00     0.021 C 
ATOM     20  C   UNL d   1     -54.725-100.412 -43.366  0.00  0.00     0.021 C 
ENDBRANCH  17  18
ENDBRANCH   5  17
TORSDOF 3
ENDMDL
