MODEL 1
REMARK VINA RESULT:      22.9      0.000      0.000
REMARK  5 active torsions:
REMARK  status: ('A' for Active; 'I' for Inactive)
REMARK    1  A    between atoms: C_2  and  S_1 
REMARK    2  A    between atoms: N_3  and  S_1 
REMARK    3  A    between atoms: C_5  and  N_3 
REMARK    4  A    between atoms: C_14  and  C_9 
REMARK    5  A    between atoms: O_18  and  C_10 
ROOT
ATOM      1  C   UNL d   1      45.231 -14.509  44.435  0.00  0.00     0.128 A 
ATOM      2  C   UNL d   1      45.618 -13.887  44.048  0.00  0.00     0.015 A 
ATOM      3  C   UNL d   1      45.187 -13.232  43.791  0.00  0.00     0.001 A 
ATOM      4  C   UNL d   1      44.413 -14.468  44.561  0.00  0.00     0.106 A 
ATOM      5  C   UNL d   1      44.380 -13.195  43.917  0.00  0.00     0.002 A 
ATOM      6  C   UNL d   1      43.988 -13.810  44.302  0.00  0.00     0.025 A 
ENDROOT
BRANCH   1   7
ATOM      7  S   UNL d   1      45.656 -15.167  44.695  0.00  0.00     0.288 S 
ATOM      8  O   UNL d   1      46.344 -14.712  44.719  0.00  0.00    -0.198 OA
ATOM      9  O   UNL d   1      44.964 -15.614  44.668  0.00  0.00    -0.198 OA
BRANCH   7  10
ATOM     10  N   UNL d   1      46.074 -15.828  44.954  0.00  0.00    -0.139 NA
BRANCH  10  11
ATOM     11  C   UNL d   1      46.113 -16.497  44.474  0.00  0.00     0.175 A 
ATOM     12  N   UNL d   1      46.141 -16.415  43.655  0.00  0.00    -0.224 NA
ATOM     13  C   UNL d   1      46.180 -17.076  43.172  0.00  0.00     0.112 A 
ATOM     14  C   UNL d   1      46.192 -17.832  43.505  0.00  0.00     0.077 A 
ATOM     15  C   UNL d   1      46.164 -17.913  44.325  0.00  0.00     0.016 A 
ATOM     16 CL   UNL d   1      46.230 -18.497  43.026  0.00  0.00    -0.081 Cl
ATOM     17  C   UNL d   1      46.125 -17.253  44.811  0.00  0.00     0.041 A 
ENDBRANCH  10  11
ENDBRANCH   7  10
ENDBRANCH   1   7
BRANCH   4  18
ATOM     18  O   UNL d   1      44.030 -15.083  44.945  0.00  0.00    -0.327 OA
ATOM     19  C   UNL d   1      43.206 -15.115  44.955  0.00  0.00     0.181 C 
ENDBRANCH   4  18
BRANCH   3  20
ATOM     20  C   UNL d   1      45.579 -12.612  43.403  0.00  0.00     0.000 C 
ATOM     21  C   UNL d   1      46.040 -12.081  43.829  0.00  0.00     0.000 C 
ATOM     22  C   UNL d   1      45.505 -12.529  42.586  0.00  0.00     0.000 C 
ENDBRANCH   3  20
TORSDOF 5
ENDMDL
