MODEL 1
REMARK VINA RESULT:      58.1      0.000      0.000
REMARK  6 active torsions:
REMARK  status: ('A' for Active; 'I' for Inactive)
REMARK    1  A    between atoms: N_2  and  S_1 
REMARK    2  A    between atoms: C_3  and  S_1 
REMARK    3  A    between atoms: C_6  and  N_2 
REMARK    4  A    between atoms: C_12  and  C_6 
REMARK    5  A    between atoms: O_10  and  C_11 
REMARK    6  A    between atoms: C_15  and  O_10 
ROOT
ATOM      1  C   UNL d   1     -47.720  29.612  35.512  0.00  0.00     0.105 A 
ATOM      2  C   UNL d   1     -48.343  29.200  35.868  0.00  0.00     0.015 A 
ATOM      3  C   UNL d   1     -47.383  29.320  34.809  0.00  0.00     0.015 A 
ATOM      4  C   UNL d   1     -48.294  28.222  34.839  0.00  0.00     0.100 A 
ATOM      5  C   UNL d   1     -47.671  28.626  34.475  0.00  0.00     0.025 A 
ATOM      6  C   UNL d   1     -48.629  28.507  35.531  0.00  0.00     0.025 A 
ENDROOT
BRANCH   1   7
ATOM      7  S   UNL d   1     -47.429  30.308  35.845  0.00  0.00     0.285 S 
ATOM      8  O   UNL d   1     -47.206  29.889  36.517  0.00  0.00    -0.198 OA
ATOM      9  O   UNL d   1     -47.138  31.001  36.180  0.00  0.00    -0.198 OA
BRANCH   7  10
ATOM     10  N   UNL d   1     -47.654  30.732  35.165  0.00  0.00    -0.155 NA
BRANCH  10  11
ATOM     11  C   UNL d   1     -47.868  31.530  35.232  0.00  0.00     0.137 C 
BRANCH  11  12
ATOM     12  C   UNL d   1     -47.791  32.029  34.574  0.00  0.00     0.120 A 
ATOM     13  O   UNL d   1     -47.133  32.490  34.372  0.00  0.00    -0.304 OA
ATOM     14  C   UNL d   1     -47.311  32.892  33.675  0.00  0.00     0.123 A 
ATOM     15  C   UNL d   1     -48.068  32.686  33.443  0.00  0.00     0.029 A 
ATOM     16  C   UNL d   1     -48.368  32.153  33.996  0.00  0.00     0.028 A 
ENDBRANCH  11  12
ENDBRANCH  10  11
ENDBRANCH   7  10
ENDBRANCH   1   7
BRANCH   4  17
ATOM     17  O   UNL d   1     -48.586  27.520  34.500  0.00  0.00    -0.307 OA
BRANCH  17  18
ATOM     18  C   UNL d   1     -49.312  27.529  34.100  0.00  0.00     0.100 A 
ATOM     19  C   UNL d   1     -49.566  28.212  33.701  0.00  0.00     0.025 A 
ATOM     20  C   UNL d   1     -50.290  28.214  33.306  0.00  0.00     0.002 A 
ATOM     21  C   UNL d   1     -50.761  27.537  33.307  0.00  0.00     0.000 A 
ATOM     22  C   UNL d   1     -50.507  26.854  33.706  0.00  0.00     0.002 A 
ATOM     23  C   UNL d   1     -49.783  26.851  34.102  0.00  0.00     0.025 A 
ENDBRANCH  17  18
ENDBRANCH   4  17
TORSDOF 6
ENDMDL
MODEL 2
REMARK VINA RESULT:      61.0      1.022      4.312
REMARK  6 active torsions:
REMARK  status: ('A' for Active; 'I' for Inactive)
REMARK    1  A    between atoms: N_2  and  S_1 
REMARK    2  A    between atoms: C_3  and  S_1 
REMARK    3  A    between atoms: C_6  and  N_2 
REMARK    4  A    between atoms: C_12  and  C_6 
REMARK    5  A    between atoms: O_10  and  C_11 
REMARK    6  A    between atoms: C_15  and  O_10 
ROOT
ATOM      1  C   UNL d   1     -48.024  29.437  35.488  0.00  0.00     0.105 A 
ATOM      2  C   UNL d   1     -47.883  29.677  34.709  0.00  0.00     0.015 A 
ATOM      3  C   UNL d   1     -47.822  29.943  36.117  0.00  0.00     0.015 A 
ATOM      4  C   UNL d   1     -47.349  30.907  35.177  0.00  0.00     0.100 A 
ATOM      5  C   UNL d   1     -47.485  30.677  35.959  0.00  0.00     0.025 A 
ATOM      6  C   UNL d   1     -47.547  30.410  34.555  0.00  0.00     0.025 A 
ENDROOT
BRANCH   1   7
ATOM      7  S   UNL d   1     -48.361  28.702  35.649  0.00  0.00     0.285 S 
ATOM      8  O   UNL d   1     -48.111  28.762  36.431  0.00  0.00    -0.198 OA
ATOM      9  O   UNL d   1     -48.697  27.969  35.814  0.00  0.00    -0.198 OA
BRANCH   7  10
ATOM     10  N   UNL d   1     -48.615  28.640  34.860  0.00  0.00    -0.155 NA
BRANCH  10  11
ATOM     11  C   UNL d   1     -48.667  27.894  34.502  0.00  0.00     0.137 C 
BRANCH  11  12
ATOM     12  C   UNL d   1     -49.326  27.710  34.034  0.00  0.00     0.120 A 
ATOM     13  O   UNL d   1     -49.913  28.234  33.774  0.00  0.00    -0.304 OA
ATOM     14  C   UNL d   1     -50.454  27.803  33.325  0.00  0.00     0.123 A 
ATOM     15  C   UNL d   1     -50.210  27.022  33.306  0.00  0.00     0.029 A 
ATOM     16  C   UNL d   1     -49.514  26.960  33.742  0.00  0.00     0.028 A 
ENDBRANCH  11  12
ENDBRANCH  10  11
ENDBRANCH   7  10
ENDBRANCH   1   7
BRANCH   4  17
ATOM     17  O   UNL d   1     -47.008  31.649  35.017  0.00  0.00    -0.307 OA
BRANCH  17  18
ATOM     18  C   UNL d   1     -47.386  32.168  34.492  0.00  0.00     0.100 A 
ATOM     19  C   UNL d   1     -48.178  32.389  34.612  0.00  0.00     0.025 A 
ATOM     20  C   UNL d   1     -48.546  32.906  34.085  0.00  0.00     0.002 A 
ATOM     21  C   UNL d   1     -48.128  33.203  33.440  0.00  0.00     0.000 A 
ATOM     22  C   UNL d   1     -47.336  32.982  33.320  0.00  0.00     0.002 A 
ATOM     23  C   UNL d   1     -46.966  32.465  33.846  0.00  0.00     0.025 A 
ENDBRANCH  17  18
ENDBRANCH   4  17
TORSDOF 6
ENDMDL
MODEL 3
REMARK VINA RESULT:      61.1      4.397      5.782
REMARK  6 active torsions:
REMARK  status: ('A' for Active; 'I' for Inactive)
REMARK    1  A    between atoms: N_2  and  S_1 
REMARK    2  A    between atoms: C_3  and  S_1 
REMARK    3  A    between atoms: C_6  and  N_2 
REMARK    4  A    between atoms: C_12  and  C_6 
REMARK    5  A    between atoms: O_10  and  C_11 
REMARK    6  A    between atoms: C_15  and  O_10 
ROOT
ATOM      1  C   UNL d   1     -50.736  26.607  35.560  0.00  0.00     0.105 A 
ATOM      2  C   UNL d   1     -51.373  26.919  35.134  0.00  0.00     0.015 A 
ATOM      3  C   UNL d   1     -50.315  25.958  35.252  0.00  0.00     0.015 A 
ATOM      4  C   UNL d   1     -51.173  25.952  34.113  0.00  0.00     0.100 A 
ATOM      5  C   UNL d   1     -50.535  25.633  34.529  0.00  0.00     0.025 A 
ATOM      6  C   UNL d   1     -51.591  26.592  34.413  0.00  0.00     0.025 A 
ENDROOT
BRANCH   1   7
ATOM      7  S   UNL d   1     -50.512  26.931  36.285  0.00  0.00     0.285 S 
ATOM      8  O   UNL d   1     -49.926  27.366  35.905  0.00  0.00    -0.198 OA
ATOM      9  O   UNL d   1     -50.287  27.256  37.006  0.00  0.00    -0.198 OA
BRANCH   7  10
ATOM     10  N   UNL d   1     -51.105  26.492  36.668  0.00  0.00    -0.155 NA
BRANCH  10  11
ATOM     11  C   UNL d   1     -51.379  26.735  37.412  0.00  0.00     0.137 C 
BRANCH  11  12
ATOM     12  C   UNL d   1     -51.842  26.217  37.865  0.00  0.00     0.120 A 
ATOM     13  O   UNL d   1     -52.659  26.099  37.807  0.00  0.00    -0.304 OA
ATOM     14  C   UNL d   1     -52.874  25.534  38.368  0.00  0.00     0.123 A 
ATOM     15  C   UNL d   1     -52.201  25.302  38.771  0.00  0.00     0.029 A 
ATOM     16  C   UNL d   1     -51.561  25.721  38.464  0.00  0.00     0.028 A 
ENDBRANCH  11  12
ENDBRANCH  10  11
ENDBRANCH   7  10
ENDBRANCH   1   7
BRANCH   4  17
ATOM     17  O   UNL d   1     -51.397  25.623  33.382  0.00  0.00    -0.307 OA
BRANCH  17  18
ATOM     18  C   UNL d   1     -51.708  24.855  33.356  0.00  0.00     0.100 A 
ATOM     19  C   UNL d   1     -51.203  24.195  33.332  0.00  0.00     0.025 A 
ATOM     20  C   UNL d   1     -51.519  23.434  33.307  0.00  0.00     0.002 A 
ATOM     21  C   UNL d   1     -52.337  23.328  33.306  0.00  0.00     0.000 A 
ATOM     22  C   UNL d   1     -52.842  23.988  33.330  0.00  0.00     0.002 A 
ATOM     23  C   UNL d   1     -52.526  24.750  33.355  0.00  0.00     0.025 A 
ENDBRANCH  17  18
ENDBRANCH   4  17
TORSDOF 6
ENDMDL
