MODEL 1
REMARK VINA RESULT:       1.4      0.000      0.000
REMARK  1 active torsions:
REMARK  status: ('A' for Active; 'I' for Inactive)
REMARK    1  A    between atoms: C_6  and  C_3 
ROOT
ATOM      1  O   UNL d   1      43.780 -15.109  36.702  0.00  0.00    -0.260 OA
ATOM      2  N   UNL d   1      44.400 -16.281  36.414  0.00  0.00    -0.120 NA
ATOM      3  C   UNL d   1      44.500 -15.470  36.647  0.00  0.00     0.205 A 
ATOM      4  N   UNL d   1      43.623 -16.405  36.330  0.00  0.00    -0.109 NA
ATOM      5  C   UNL d   1      43.200 -15.736  36.489  0.00  0.00     0.262 A 
ATOM      6  S   UNL d   1      42.394 -15.705  36.446  0.00  0.00    -0.029 SA
ENDROOT
BRANCH   3   7
ATOM      7  C   UNL d   1      45.200 -15.100  36.795  0.00  0.00     0.043 A 
ATOM      8  C   UNL d   1      45.911 -15.446  36.519  0.00  0.00     0.004 A 
ATOM      9  C   UNL d   1      46.632 -15.075  36.666  0.00  0.00     0.000 A 
ATOM     10  C   UNL d   1      46.647 -14.353  37.092  0.00  0.00     0.000 A 
ATOM     11  C   UNL d   1      45.935 -14.030  37.355  0.00  0.00     0.000 A 
ATOM     12  C   UNL d   1      45.209 -14.383  37.219  0.00  0.00     0.004 A 
ENDBRANCH   3   7
TORSDOF 1
ENDMDL
MODEL 2
REMARK VINA RESULT:       2.0      7.281      7.720
REMARK  1 active torsions:
REMARK  status: ('A' for Active; 'I' for Inactive)
REMARK    1  A    between atoms: C_6  and  C_3 
ROOT
ATOM      1  O   UNL d   1      44.924 -13.341  43.104  0.00  0.00    -0.260 OA
ATOM      2  N   UNL d   1      45.597 -12.636  44.047  0.00  0.00    -0.120 NA
ATOM      3  C   UNL d   1      45.338 -13.405  43.794  0.00  0.00     0.205 A 
ATOM      4  N   UNL d   1      45.339 -12.115  43.511  0.00  0.00    -0.109 NA
ATOM      5  C   UNL d   1      44.928 -12.480  42.921  0.00  0.00     0.262 A 
ATOM      6  S   UNL d   1      44.601 -12.081  42.300  0.00  0.00    -0.029 SA
ENDROOT
BRANCH   3   7
ATOM      7  C   UNL d   1      45.476 -14.103  44.173  0.00  0.00     0.043 A 
ATOM      8  C   UNL d   1      44.842 -14.489  44.561  0.00  0.00     0.004 A 
ATOM      9  C   UNL d   1      44.974 -15.202  44.951  0.00  0.00     0.000 A 
ATOM     10  C   UNL d   1      45.743 -15.536  44.955  0.00  0.00     0.000 A 
ATOM     11  C   UNL d   1      46.353 -15.139  44.566  0.00  0.00     0.000 A 
ATOM     12  C   UNL d   1      46.242 -14.429  44.173  0.00  0.00     0.004 A 
ENDBRANCH   3   7
TORSDOF 1
ENDMDL
MODEL 3
REMARK VINA RESULT:       2.4      1.773      2.953
REMARK  1 active torsions:
REMARK  status: ('A' for Active; 'I' for Inactive)
REMARK    1  A    between atoms: C_6  and  C_3 
ROOT
ATOM      1  O   UNL d   1      45.316 -14.536  37.137  0.00  0.00    -0.260 OA
ATOM      2  N   UNL d   1      45.909 -15.453  36.331  0.00  0.00    -0.120 NA
ATOM      3  C   UNL d   1      45.179 -15.183  36.674  0.00  0.00     0.205 A 
ATOM      4  N   UNL d   1      46.479 -14.970  36.588  0.00  0.00    -0.109 NA
ATOM      5  C   UNL d   1      46.184 -14.399  37.076  0.00  0.00     0.262 A 
ATOM      6  S   UNL d   1      46.644 -13.831  37.418  0.00  0.00    -0.029 SA
ENDROOT
BRANCH   3   7
ATOM      7  C   UNL d   1      44.451 -15.511  36.565  0.00  0.00     0.043 A 
ATOM      8  C   UNL d   1      43.774 -15.018  36.581  0.00  0.00     0.004 A 
ATOM      9  C   UNL d   1      43.026 -15.345  36.470  0.00  0.00     0.000 A 
ATOM     10  C   UNL d   1      42.950 -16.170  36.342  0.00  0.00     0.000 A 
ATOM     11  C   UNL d   1      43.630 -16.637  36.330  0.00  0.00     0.000 A 
ATOM     12  C   UNL d   1      44.382 -16.331  36.438  0.00  0.00     0.004 A 
ENDBRANCH   3   7
TORSDOF 1
ENDMDL
MODEL 4
REMARK VINA RESULT:       3.8      7.482      7.762
REMARK  1 active torsions:
REMARK  status: ('A' for Active; 'I' for Inactive)
REMARK    1  A    between atoms: C_6  and  C_3 
ROOT
ATOM      1  O   UNL d   1      45.053 -14.799  44.254  0.00  0.00    -0.260 OA
ATOM      2  N   UNL d   1      46.214 -14.234  44.672  0.00  0.00    -0.120 NA
ATOM      3  C   UNL d   1      45.494 -14.124  44.232  0.00  0.00     0.205 A 
ATOM      4  N   UNL d   1      46.202 -14.973  44.955  0.00  0.00    -0.109 NA
ATOM      5  C   UNL d   1      45.530 -15.361  44.737  0.00  0.00     0.262 A 
ATOM      6  S   UNL d   1      45.373 -16.124  44.949  0.00  0.00    -0.029 SA
ENDROOT
BRANCH   3   7
ATOM      7  C   UNL d   1      45.270 -13.453  43.846  0.00  0.00     0.043 A 
ATOM      8  C   UNL d   1      44.509 -13.417  43.499  0.00  0.00     0.004 A 
ATOM      9  C   UNL d   1      44.271 -12.735  43.102  0.00  0.00     0.000 A 
ATOM     10  C   UNL d   1      44.796 -12.082  43.050  0.00  0.00     0.000 A 
ATOM     11  C   UNL d   1      45.541 -12.140  43.399  0.00  0.00     0.000 A 
ATOM     12  C   UNL d   1      45.796 -12.809  43.797  0.00  0.00     0.004 A 
ENDBRANCH   3   7
TORSDOF 1
ENDMDL
