MODEL 1
REMARK VINA RESULT:      84.8      0.000      0.000
REMARK  4 active torsions:
REMARK  status: ('A' for Active; 'I' for Inactive)
REMARK    1  A    between atoms: C_9  and  N_2 
REMARK    2  A    between atoms: C_6  and  C_3 
REMARK    3  A    between atoms: C_8  and  C_4 
REMARK    4  A    between atoms: O_18  and  C_15 
ROOT
ATOM      1  N   UNL d   1     -48.800  28.573  34.637  0.00  0.00    -0.165 NA
ATOM      2  N   UNL d   1     -48.389  29.291  34.840  0.00  0.00    -0.230 N 
ATOM      3  C   UNL d   1     -49.268  28.719  33.977  0.00  0.00     0.109 A 
ATOM      4  C   UNL d   1     -48.638  29.861  34.271  0.00  0.00     0.084 A 
ATOM      5  C   UNL d   1     -49.171  29.509  33.749  0.00  0.00     0.041 A 
ENDROOT
BRANCH   4   6
ATOM      6  C   UNL d   1     -48.394  30.644  34.233  0.00  0.00     0.018 A 
ATOM      7  C   UNL d   1     -48.958  31.223  34.395  0.00  0.00     0.004 A 
ATOM      8  C   UNL d   1     -48.741  32.009  34.364  0.00  0.00     0.024 A 
ATOM      9  C   UNL d   1     -47.973  32.220  34.174  0.00  0.00     0.094 A 
ATOM     10  C   UNL d   1     -47.408  31.641  34.012  0.00  0.00     0.024 A 
ATOM     11  C   UNL d   1     -47.626  30.849  34.043  0.00  0.00     0.004 A 
BRANCH   9  12
ATOM     12  O   UNL d   1     -47.717  33.035  34.134  0.00  0.00    -0.328 OA
ATOM     13  C   UNL d   1     -47.815  33.467  33.398  0.00  0.00     0.181 C 
ENDBRANCH   9  12
ENDBRANCH   4   6
BRANCH   2  14
ATOM     14  C   UNL d   1     -47.855  29.493  35.429  0.00  0.00     0.083 A 
ATOM     15  C   UNL d   1     -47.032  29.536  35.289  0.00  0.00     0.019 A 
ATOM     16  C   UNL d   1     -46.514  29.743  35.905  0.00  0.00     0.002 A 
ATOM     17  C   UNL d   1     -46.794  29.905  36.646  0.00  0.00     0.000 A 
ATOM     18  C   UNL d   1     -47.614  29.862  36.789  0.00  0.00     0.002 A 
ATOM     19  C   UNL d   1     -48.146  29.656  36.179  0.00  0.00     0.019 A 
ENDBRANCH   2  14
BRANCH   3  20
ATOM     20  C   UNL d   1     -49.614  27.972  33.869  0.00  0.00     0.049 A 
ATOM     21  S   UNL d   1     -49.547  27.170  34.026  0.00  0.00    -0.085 SA
ATOM     22  C   UNL d   1     -50.186  26.790  33.682  0.00  0.00     0.035 A 
ATOM     23  C   UNL d   1     -50.646  27.340  33.316  0.00  0.00     0.007 A 
ATOM     24  C   UNL d   1     -50.316  28.085  33.414  0.00  0.00     0.009 A 
ENDBRANCH   3  20
TORSDOF 4
ENDMDL
MODEL 2
REMARK VINA RESULT:      87.3      4.036      5.603
REMARK  4 active torsions:
REMARK  status: ('A' for Active; 'I' for Inactive)
REMARK    1  A    between atoms: C_9  and  N_2 
REMARK    2  A    between atoms: C_6  and  C_3 
REMARK    3  A    between atoms: C_8  and  C_4 
REMARK    4  A    between atoms: O_18  and  C_15 
ROOT
ATOM      1  N   UNL d   1     -52.181  25.214  33.896  0.00  0.00    -0.165 NA
ATOM      2  N   UNL d   1     -51.730  25.847  34.246  0.00  0.00    -0.230 N 
ATOM      3  C   UNL d   1     -52.448  24.723  34.499  0.00  0.00     0.109 A 
ATOM      4  C   UNL d   1     -51.746  25.703  35.075  0.00  0.00     0.084 A 
ATOM      5  C   UNL d   1     -52.183  25.020  35.225  0.00  0.00     0.041 A 
ENDROOT
BRANCH   4   6
ATOM      6  C   UNL d   1     -51.386  26.164  35.653  0.00  0.00     0.018 A 
ATOM      7  C   UNL d   1     -51.835  26.352  36.319  0.00  0.00     0.004 A 
ATOM      8  C   UNL d   1     -51.501  26.809  36.907  0.00  0.00     0.024 A 
ATOM      9  C   UNL d   1     -50.731  27.077  36.837  0.00  0.00     0.094 A 
ATOM     10  C   UNL d   1     -50.282  26.890  36.170  0.00  0.00     0.024 A 
ATOM     11  C   UNL d   1     -50.618  26.429  35.577  0.00  0.00     0.004 A 
BRANCH   9  12
ATOM     12  O   UNL d   1     -50.355  27.557  37.436  0.00  0.00    -0.328 OA
ATOM     13  C   UNL d   1     -50.424  27.323  38.261  0.00  0.00     0.181 C 
ENDBRANCH   9  12
ENDBRANCH   4   6
BRANCH   2  14
ATOM     14  C   UNL d   1     -51.331  26.495  33.940  0.00  0.00     0.083 A 
ATOM     15  C   UNL d   1     -51.732  27.151  33.608  0.00  0.00     0.019 A 
ATOM     16  C   UNL d   1     -51.302  27.794  33.306  0.00  0.00     0.002 A 
ATOM     17  C   UNL d   1     -50.493  27.800  33.326  0.00  0.00     0.000 A 
ATOM     18  C   UNL d   1     -50.091  27.148  33.656  0.00  0.00     0.002 A 
ATOM     19  C   UNL d   1     -50.510  26.495  33.963  0.00  0.00     0.019 A 
ENDBRANCH   2  14
BRANCH   3  20
ATOM     20  C   UNL d   1     -52.864  24.156  34.058  0.00  0.00     0.049 A 
ATOM     21  S   UNL d   1     -52.980  23.835  33.312  0.00  0.00    -0.085 SA
ATOM     22  C   UNL d   1     -53.542  23.242  33.375  0.00  0.00     0.035 A 
ATOM     23  C   UNL d   1     -53.776  23.190  34.143  0.00  0.00     0.007 A 
ATOM     24  C   UNL d   1     -53.372  23.746  34.593  0.00  0.00     0.009 A 
ENDBRANCH   3  20
TORSDOF 4
ENDMDL
