MODEL 1
REMARK VINA RESULT:      32.2      0.000      0.000
REMARK  2 active torsions:
REMARK  status: ('A' for Active; 'I' for Inactive)
REMARK    1  A    between atoms: C_3  and  C_1 
REMARK       I    between atoms: N_7  and  C_3 
REMARK    2  A    between atoms: C_11  and  N_7 
ROOT
ATOM      1  C   UNL d   1     -51.646  24.956  33.445  0.00  0.00     0.121 A 
ATOM      2  C   UNL d   1     -51.422  24.173  33.560  0.00  0.00     0.305 A 
ATOM      3  C   UNL d   1     -52.444  25.149  33.360  0.00  0.00     0.012 A 
ATOM      4  O   UNL d   1     -51.996  23.587  33.590  0.00  0.00    -0.273 OA
ATOM      5  C   UNL d   1     -53.016  24.556  33.391  0.00  0.00     0.023 A 
ATOM      6  C   UNL d   1     -52.792  23.773  33.506  0.00  0.00     0.103 A 
ATOM      7  O   UNL d   1     -50.619  23.990  33.644  0.00  0.00    -0.259 OA
ATOM      8  C   UNL d   1     -53.806  24.751  33.307  0.00  0.00     0.002 A 
ATOM      9  C   UNL d   1     -53.358  23.189  33.537  0.00  0.00     0.025 A 
ATOM     10  C   UNL d   1     -54.386  24.156  33.337  0.00  0.00     0.000 A 
ATOM     11  C   UNL d   1     -54.161  23.372  33.453  0.00  0.00     0.002 A 
ENDROOT
BRANCH   1  12
ATOM     12  C   UNL d   1     -51.067  25.552  33.414  0.00  0.00     0.284 C 
ATOM     13  N   UNL d   1     -51.284  26.337  33.487  0.00  0.00    -0.208 NA
ATOM     14  O   UNL d   1     -50.267  25.351  33.309  0.00  0.00    -0.265 OA
BRANCH  13  15
ATOM     15  C   UNL d   1     -50.706  26.925  33.456  0.00  0.00     0.085 A 
ATOM     16  C   UNL d   1     -50.925  27.718  33.339  0.00  0.00     0.019 A 
ATOM     17  C   UNL d   1     -50.339  28.304  33.309  0.00  0.00     0.002 A 
ATOM     18  C   UNL d   1     -49.540  28.108  33.394  0.00  0.00     0.000 A 
ATOM     19  C   UNL d   1     -49.321  27.315  33.512  0.00  0.00     0.002 A 
ATOM     20  C   UNL d   1     -49.891  26.730  33.543  0.00  0.00     0.019 A 
ENDBRANCH  13  15
ENDBRANCH   1  12
TORSDOF 2
ENDMDL
