MODEL 1
REMARK VINA RESULT:      83.3      0.000      0.000
REMARK  5 active torsions:
REMARK  status: ('A' for Active; 'I' for Inactive)
REMARK       I    between atoms: N_3  and  C_1 
REMARK    1  A    between atoms: C_4  and  C_1 
REMARK    2  A    between atoms: N_2  and  C_4 
REMARK       I    between atoms: C_5  and  N_2 
REMARK    3  A    between atoms: C_18  and  C_4 
REMARK    4  A    between atoms: C_9  and  C_5 
REMARK    5  A    between atoms: C_7  and  N_6 
ROOT
ATOM      1  C   UNL d   1     -50.628  27.282  33.651  0.00  0.00     0.283 C 
ATOM      2  N   UNL d   1     -50.051  27.722  34.042  0.00  0.00    -0.268 N 
ATOM      3  N   UNL d   1     -48.902  28.600  34.822  0.00  0.00    -0.286 N 
ATOM      4  O   UNL d   1     -51.278  27.656  33.307  0.00  0.00    -0.265 OA
ATOM      5  C   UNL d   1     -49.405  27.342  34.383  0.00  0.00     0.102 A 
ATOM      6  C   UNL d   1     -50.128  28.542  34.089  0.00  0.00     0.102 A 
ATOM      7  C   UNL d   1     -49.548  28.983  34.482  0.00  0.00     0.101 A 
ATOM      8  C   UNL d   1     -48.833  27.787  34.773  0.00  0.00     0.101 A 
ENDROOT
BRANCH   1   9
ATOM      9  C   UNL d   1     -50.551  26.461  33.605  0.00  0.00     0.141 C 
BRANCH   9  10
ATOM     10  N   UNL d   1     -51.228  25.982  33.578  0.00  0.00    -0.203 NA
ATOM     11  C   UNL d   1     -51.150  25.168  33.490  0.00  0.00     0.279 C 
ATOM     12  O   UNL d   1     -50.406  24.829  33.429  0.00  0.00    -0.265 OA
BRANCH  11  13
ATOM     13  C   UNL d   1     -51.825  24.694  33.464  0.00  0.00     0.058 A 
ATOM     14  C   UNL d   1     -51.759  23.885  33.343  0.00  0.00     0.005 A 
ATOM     15  C   UNL d   1     -52.425  23.408  33.316  0.00  0.00     0.000 A 
ATOM     16  C   UNL d   1     -53.171  23.746  33.412  0.00  0.00     0.000 A 
ATOM     17  C   UNL d   1     -53.254  24.560  33.534  0.00  0.00     0.000 A 
ATOM     18  C   UNL d   1     -53.853  23.274  33.386  0.00  0.00     0.000 C 
ATOM     19  C   UNL d   1     -52.572  25.031  33.560  0.00  0.00     0.005 A 
ENDBRANCH  11  13
ENDBRANCH   9  10
BRANCH   9  20
ATOM     20  C   UNL d   1     -49.810  26.111  33.585  0.00  0.00     0.022 C 
ATOM     21  C   UNL d   1     -49.148  26.542  33.850  0.00  0.00     0.002 C 
ATOM     22  C   UNL d   1     -49.714  25.342  33.306  0.00  0.00     0.002 C 
ENDBRANCH   9  20
ENDBRANCH   1   9
BRANCH   3  23
ATOM     23  C   UNL d   1     -48.325  29.043  35.215  0.00  0.00     0.148 A 
ATOM     24  N   UNL d   1     -48.224  28.959  36.029  0.00  0.00    -0.227 NA
ATOM     25  C   UNL d   1     -47.647  29.403  36.416  0.00  0.00     0.101 A 
ATOM     26  C   UNL d   1     -47.173  29.927  35.999  0.00  0.00     0.021 A 
ATOM     27  C   UNL d   1     -47.279  30.008  35.176  0.00  0.00     0.005 A 
ATOM     28  C   UNL d   1     -47.853  29.567  34.788  0.00  0.00     0.037 A 
ENDBRANCH   3  23
TORSDOF 5
ENDMDL
