MODEL 1
REMARK VINA RESULT:      28.9      0.000      0.000
REMARK  2 active torsions:
REMARK  status: ('A' for Active; 'I' for Inactive)
REMARK    1  A    between atoms: C_4  and  C_1 
REMARK       I    between atoms: N_8  and  C_4 
REMARK    2  A    between atoms: O_12  and  C_11 
ROOT
ATOM      1  C   UNL d   1     -58.052 -98.799 -44.311  0.00  0.00     0.120 A 
ATOM      2  C   UNL d   1     -57.771 -98.803 -45.087  0.00  0.00     0.305 A 
ATOM      3  O   UNL d   1     -56.950 -98.797 -45.230  0.00  0.00    -0.271 OA
ATOM      4  C   UNL d   1     -57.520 -98.787 -43.669  0.00  0.00     0.012 A 
ATOM      5  C   UNL d   1     -56.425 -98.786 -44.605  0.00  0.00     0.125 A 
ATOM      6  C   UNL d   1     -56.709 -98.781 -43.822  0.00  0.00     0.025 A 
ATOM      7  O   UNL d   1     -58.295 -98.814 -45.716  0.00  0.00    -0.259 OA
ATOM      8  C   UNL d   1     -55.608 -98.779 -44.737  0.00  0.00     0.117 A 
ATOM      9  C   UNL d   1     -56.178 -98.770 -43.188  0.00  0.00     0.002 A 
ATOM     10  C   UNL d   1     -55.368 -98.764 -43.337  0.00  0.00     0.002 A 
ATOM     11  C   UNL d   1     -55.084 -98.768 -44.108  0.00  0.00     0.026 A 
ENDROOT
BRANCH   1  12
ATOM     12  C   UNL d   1     -58.859 -98.805 -44.170  0.00  0.00     0.270 C 
ATOM     13  N   UNL d   1     -59.147 -98.783 -43.404  0.00  0.00    -0.269 N 
ATOM     14  C   UNL d   1     -58.620 -98.755 -42.776  0.00  0.00     0.102 C 
ATOM     15  C   UNL d   1     -59.954 -98.790 -43.262  0.00  0.00     0.102 C 
ATOM     16  O   UNL d   1     -59.387 -98.833 -44.799  0.00  0.00    -0.266 OA
ENDBRANCH   1  12
BRANCH   8  17
ATOM     17  O   UNL d   1     -55.325 -98.784 -45.508  0.00  0.00    -0.326 OA
ATOM     18  C   UNL d   1     -54.717 -99.291 -45.718  0.00  0.00     0.181 C 
ENDBRANCH   8  17
TORSDOF 2
ENDMDL
MODEL 2
REMARK VINA RESULT:      29.6      6.817      7.772
REMARK  2 active torsions:
REMARK  status: ('A' for Active; 'I' for Inactive)
REMARK    1  A    between atoms: C_4  and  C_1 
REMARK       I    between atoms: N_8  and  C_4 
REMARK    2  A    between atoms: O_12  and  C_11 
ROOT
ATOM      1  C   UNL d   1     -54.813-101.489 -38.892  0.00  0.00     0.120 A 
ATOM      2  C   UNL d   1     -54.928-102.258 -38.616  0.00  0.00     0.305 A 
ATOM      3  O   UNL d   1     -54.973-102.402 -37.796  0.00  0.00    -0.271 OA
ATOM      4  C   UNL d   1     -54.742-100.854 -38.356  0.00  0.00     0.012 A 
ATOM      5  C   UNL d   1     -54.904-101.783 -37.267  0.00  0.00     0.125 A 
ATOM      6  C   UNL d   1     -54.788-101.007 -37.546  0.00  0.00     0.025 A 
ATOM      7  O   UNL d   1     -54.998-102.880 -39.144  0.00  0.00    -0.259 OA
ATOM      8  C   UNL d   1     -54.947-101.916 -36.452  0.00  0.00     0.117 A 
ATOM      9  C   UNL d   1     -54.717-100.381 -37.011  0.00  0.00     0.002 A 
ATOM     10  C   UNL d   1     -54.763-100.530 -36.202  0.00  0.00     0.002 A 
ATOM     11  C   UNL d   1     -54.877-101.294 -35.924  0.00  0.00     0.026 A 
ENDROOT
BRANCH   1  12
ATOM     12  C   UNL d   1     -54.769-101.347 -39.698  0.00  0.00     0.270 C 
ATOM     13  N   UNL d   1     -54.770-101.969 -40.229  0.00  0.00    -0.269 N 
ATOM     14  C   UNL d   1     -54.816-102.739 -39.948  0.00  0.00     0.102 C 
ATOM     15  C   UNL d   1     -54.726-101.829 -41.035  0.00  0.00     0.102 C 
ATOM     16  O   UNL d   1     -54.723-100.577 -39.978  0.00  0.00    -0.266 OA
ENDBRANCH   1  12
BRANCH   8  17
ATOM     17  O   UNL d   1     -55.061-102.680 -36.173  0.00  0.00    -0.326 OA
ATOM     18  C   UNL d   1     -55.027-102.833 -35.369  0.00  0.00     0.181 C 
ENDBRANCH   8  17
TORSDOF 2
ENDMDL
MODEL 3
REMARK VINA RESULT:      31.2      1.455      3.619
REMARK  2 active torsions:
REMARK  status: ('A' for Active; 'I' for Inactive)
REMARK    1  A    between atoms: C_4  and  C_1 
REMARK       I    between atoms: N_8  and  C_4 
REMARK    2  A    between atoms: O_12  and  C_11 
ROOT
ATOM      1  C   UNL d   1     -56.812 -98.810 -44.239  0.00  0.00     0.120 A 
ATOM      2  C   UNL d   1     -57.264 -98.810 -43.549  0.00  0.00     0.305 A 
ATOM      3  O   UNL d   1     -58.096 -98.796 -43.599  0.00  0.00    -0.271 OA
ATOM      4  C   UNL d   1     -57.181 -98.796 -44.986  0.00  0.00     0.012 A 
ATOM      5  C   UNL d   1     -58.463 -98.783 -44.329  0.00  0.00     0.125 A 
ATOM      6  C   UNL d   1     -58.006 -98.783 -45.025  0.00  0.00     0.025 A 
ATOM      7  O   UNL d   1     -56.900 -98.824 -42.815  0.00  0.00    -0.259 OA
ATOM      8  C   UNL d   1     -59.288 -98.769 -44.389  0.00  0.00     0.117 A 
ATOM      9  C   UNL d   1     -58.376 -98.769 -45.764  0.00  0.00     0.002 A 
ATOM     10  C   UNL d   1     -59.199 -98.755 -45.806  0.00  0.00     0.002 A 
ATOM     11  C   UNL d   1     -59.652 -98.755 -45.122  0.00  0.00     0.026 A 
ENDROOT
BRANCH   1  12
ATOM     12  C   UNL d   1     -55.994 -98.824 -44.189  0.00  0.00     0.270 C 
ATOM     13  N   UNL d   1     -55.538 -98.873 -44.867  0.00  0.00    -0.269 N 
ATOM     14  C   UNL d   1     -55.907 -98.909 -45.600  0.00  0.00     0.102 C 
ATOM     15  C   UNL d   1     -54.721 -98.887 -44.819  0.00  0.00     0.102 C 
ATOM     16  O   UNL d   1     -55.625 -98.788 -43.457  0.00  0.00    -0.266 OA
ENDBRANCH   1  12
BRANCH   8  17
ATOM     17  O   UNL d   1     -59.741 -98.769 -43.704  0.00  0.00    -0.326 OA
ATOM     18  C   UNL d   1     -59.945 -99.477 -43.347  0.00  0.00     0.181 C 
ENDBRANCH   8  17
TORSDOF 2
ENDMDL
