MODEL 1
REMARK VINA RESULT:      72.1      0.000      0.000
REMARK  8 active torsions:
REMARK  status: ('A' for Active; 'I' for Inactive)
REMARK    1  A    between atoms: S_13  and  C_4 
REMARK    2  A    between atoms: C_5  and  N_10 
REMARK    3  A    between atoms: C_20  and  N_6 
REMARK       I    between atoms: N_10  and  C_14 
REMARK    4  A    between atoms: C_19  and  S_13 
REMARK    5  A    between atoms: C_14  and  C_19 
REMARK    6  A    between atoms: C_22  and  C_20 
REMARK    7  A    between atoms: C_28  and  C_22 
REMARK    8  A    between atoms: N_25  and  C_28 
ROOT
ATOM      1  N   UNL d   1     -55.288-100.475 -42.478  0.00  0.00    -0.185 NA
ATOM      2  C   UNL d   1     -55.556 -99.907 -43.014  0.00  0.00     0.354 A 
ATOM      3  C   UNL d   1     -54.999-101.362 -43.562  0.00  0.00     0.040 A 
ATOM      4  C   UNL d   1     -55.009-101.202 -42.752  0.00  0.00     0.117 A 
ATOM      5  N   UNL d   1     -55.546-100.068 -43.824  0.00  0.00    -0.258 N 
ATOM      6  C   UNL d   1     -55.267-100.795 -44.098  0.00  0.00     0.070 A 
ATOM      7  O   UNL d   1     -55.837 -99.174 -42.746  0.00  0.00    -0.244 OA
ATOM      8  C   UNL d   1     -54.761-102.018 -43.995  0.00  0.00     0.004 A 
ATOM      9  C   UNL d   1     -55.193-101.104 -44.858  0.00  0.00     0.018 A 
ATOM     10  C   UNL d   1     -54.882-101.854 -44.798  0.00  0.00     0.002 A 
ENDROOT
BRANCH   4  11
ATOM     11  S   UNL d   1     -54.741-101.769 -42.217  0.00  0.00    -0.062 SA
BRANCH  11  12
ATOM     12  C   UNL d   1     -55.258-102.324 -41.916  0.00  0.00     0.099 C 
BRANCH  12  13
ATOM     13  C   UNL d   1     -55.411-102.349 -41.106  0.00  0.00     0.288 C 
ATOM     14  N   UNL d   1     -54.795-102.270 -40.568  0.00  0.00    -0.182 NA
ATOM     15  O   UNL d   1     -56.184-102.453 -40.836  0.00  0.00    -0.265 OA
BRANCH  14  16
ATOM     16  C   UNL d   1     -54.948-102.295 -39.757  0.00  0.00     0.197 A 
ATOM     17  N   UNL d   1     -55.413-101.710 -39.406  0.00  0.00    -0.221 NA
ATOM     18  C   UNL d   1     -55.466-101.884 -38.596  0.00  0.00     0.090 A 
ATOM     19  C   UNL d   1     -55.852-101.503 -37.976  0.00  0.00     0.020 A 
ATOM     20  C   UNL d   1     -55.041-102.565 -38.453  0.00  0.00     0.050 A 
ATOM     21  C   UNL d   1     -55.806-101.809 -37.216  0.00  0.00     0.002 A 
ATOM     22  C   UNL d   1     -55.378-102.494 -37.072  0.00  0.00     0.001 A 
ATOM     23  C   UNL d   1     -54.994-102.876 -37.689  0.00  0.00     0.008 A 
ATOM     24  C   UNL d   1     -55.342-102.794 -36.291  0.00  0.00     0.000 C 
ATOM     25  S   UNL d   1     -54.716-102.826 -39.170  0.00  0.00    -0.047 SA
ENDBRANCH  14  16
ENDBRANCH  12  13
ENDBRANCH  11  12
ENDBRANCH   4  11
BRANCH   5  26
ATOM     26  C   UNL d   1     -55.814 -99.501 -44.359  0.00  0.00     0.086 C 
BRANCH  26  27
ATOM     27  C   UNL d   1     -55.369 -98.831 -44.509  0.00  0.00     0.038 C 
BRANCH  27  28
ATOM     28  C   UNL d   1     -54.882 -98.794 -45.174  0.00  0.00     0.082 C 
BRANCH  28  29
ATOM     29  N   UNL d   1     -55.207 -98.843 -45.926  0.00  0.00    -0.300 N 
ATOM     30  C   UNL d   1     -54.718 -98.941 -46.583  0.00  0.00     0.100 C 
ATOM     31  C   UNL d   1     -56.025 -98.795 -46.025  0.00  0.00     0.100 C 
ENDBRANCH  28  29
ENDBRANCH  27  28
ENDBRANCH  26  27
ENDBRANCH   5  26
TORSDOF 8
ENDMDL
