MODEL 1
REMARK VINA RESULT:      -4.7      0.000      0.000
REMARK  7 active torsions:
REMARK  status: ('A' for Active; 'I' for Inactive)
REMARK    1  A    between atoms: S_2  and  C_1 
REMARK    2  A    between atoms: C_7  and  S_2 
REMARK    3  A    between atoms: C_9  and  N_3 
REMARK    4  A    between atoms: C_11  and  C_7 
REMARK    5  A    between atoms: C_8  and  C_9 
REMARK       I    between atoms: N_10  and  C_8 
REMARK       I    between atoms: N_15  and  C_11 
REMARK    6  A    between atoms: C_12  and  C_16 
REMARK    7  A    between atoms: C_23  and  N_15 
ROOT
ATOM      1  C   UNL d   1     -45.336  12.723  22.359  0.00  0.00     0.107 A 
ATOM      2  N   UNL d   1     -46.394  13.256  22.963  0.00  0.00    -0.299 N 
ATOM      3  C   UNL d   1     -45.755  13.428  22.474  0.00  0.00     0.092 A 
ATOM      4  C   UNL d   1     -45.720  12.125  22.776  0.00  0.00     0.028 A 
ATOM      5  C   UNL d   1     -46.377  12.459  23.150  0.00  0.00     0.065 A 
ATOM      6  C   UNL d   1     -45.557  11.324  22.863  0.00  0.00     0.002 A 
ATOM      7  C   UNL d   1     -46.867  11.982  23.610  0.00  0.00     0.018 A 
ATOM      8  C   UNL d   1     -46.049  10.845  23.325  0.00  0.00     0.000 A 
ATOM      9  C   UNL d   1     -46.705  11.181  23.697  0.00  0.00     0.002 A 
ENDROOT
BRANCH   1  10
ATOM     10  S   UNL d   1     -44.650  12.636  21.903  0.00  0.00     0.217 S 
ATOM     11  O   UNL d   1     -44.187  12.461  22.554  0.00  0.00    -0.217 OA
ATOM     12  O   UNL d   1     -45.124  12.814  21.244  0.00  0.00    -0.217 OA
BRANCH  10  13
ATOM     13  C   UNL d   1     -43.967  12.550  21.442  0.00  0.00     0.161 C 
BRANCH  13  14
ATOM     14  C   UNL d   1     -43.397  13.132  21.448  0.00  0.00     0.291 C 
ATOM     15  N   UNL d   1     -42.684  13.022  21.049  0.00  0.00    -0.207 NA
ATOM     16  O   UNL d   1     -43.533  13.839  21.856  0.00  0.00    -0.264 OA
BRANCH  15  17
ATOM     17  C   UNL d   1     -42.110  13.613  21.058  0.00  0.00     0.085 A 
ATOM     18  C   UNL d   1     -41.396  13.496  21.459  0.00  0.00     0.019 A 
ATOM     19  C   UNL d   1     -40.819  14.081  21.472  0.00  0.00     0.006 A 
ATOM     20  C   UNL d   1     -40.950  14.802  21.077  0.00  0.00     0.059 A 
ATOM     21  C   UNL d   1     -41.659  14.930  20.673  0.00  0.00     0.006 A 
ATOM     22  C   UNL d   1     -42.244  14.332  20.662  0.00  0.00     0.019 A 
BRANCH  20  23
ATOM     23  C   UNL d   1     -40.383  15.390  21.083  0.00  0.00     0.297 C 
ATOM     24  O   UNL d   1     -40.290  15.886  21.740  0.00  0.00    -0.264 OA
ATOM     25  N   UNL d   1     -39.888  15.493  20.416  0.00  0.00    -0.102 N 
ENDBRANCH  20  23
ENDBRANCH  15  17
ENDBRANCH  13  14
ENDBRANCH  10  13
ENDBRANCH   1  10
BRANCH   2  26
ATOM     26  C   UNL d   1     -46.959  13.798  23.220  0.00  0.00     0.142 C 
BRANCH  26  27
ATOM     27  C   UNL d   1     -47.119  14.470  22.773  0.00  0.00     0.282 C 
ATOM     28  N   UNL d   1     -47.892  14.749  22.710  0.00  0.00    -0.271 N 
ATOM     29  C   UNL d   1     -48.512  14.359  23.094  0.00  0.00     0.083 A 
ATOM     30  C   UNL d   1     -48.052  15.420  22.264  0.00  0.00     0.083 A 
ATOM     31  C   UNL d   1     -49.288  14.640  23.031  0.00  0.00     0.019 A 
ATOM     32  C   UNL d   1     -49.444  15.310  22.584  0.00  0.00     0.003 A 
ATOM     33  C   UNL d   1     -48.833  15.702  22.200  0.00  0.00     0.019 A 
ATOM     34  O   UNL d   1     -46.507  14.861  22.390  0.00  0.00    -0.265 OA
ENDBRANCH  26  27
ENDBRANCH   2  26
TORSDOF 7
ENDMDL
MODEL 2
REMARK VINA RESULT:      -4.2      1.418      2.023
REMARK  7 active torsions:
REMARK  status: ('A' for Active; 'I' for Inactive)
REMARK    1  A    between atoms: S_2  and  C_1 
REMARK    2  A    between atoms: C_7  and  S_2 
REMARK    3  A    between atoms: C_9  and  N_3 
REMARK    4  A    between atoms: C_11  and  C_7 
REMARK    5  A    between atoms: C_8  and  C_9 
REMARK       I    between atoms: N_10  and  C_8 
REMARK       I    between atoms: N_15  and  C_11 
REMARK    6  A    between atoms: C_12  and  C_16 
REMARK    7  A    between atoms: C_23  and  N_15 
ROOT
ATOM      1  C   UNL d   1     -46.996  12.464  22.906  0.00  0.00     0.107 A 
ATOM      2  N   UNL d   1     -48.113  13.127  22.618  0.00  0.00    -0.299 N 
ATOM      3  C   UNL d   1     -47.292  13.163  22.574  0.00  0.00     0.092 A 
ATOM      4  C   UNL d   1     -47.635  12.005  23.150  0.00  0.00     0.028 A 
ATOM      5  C   UNL d   1     -48.328  12.420  22.970  0.00  0.00     0.065 A 
ATOM      6  C   UNL d   1     -47.676  11.268  23.511  0.00  0.00     0.002 A 
ATOM      7  C   UNL d   1     -49.058  12.087  23.156  0.00  0.00     0.018 A 
ATOM      8  C   UNL d   1     -48.410  10.934  23.698  0.00  0.00     0.000 A 
ATOM      9  C   UNL d   1     -49.100  11.350  23.517  0.00  0.00     0.002 A 
ENDROOT
BRANCH   1  10
ATOM     10  S   UNL d   1     -46.197  12.264  22.978  0.00  0.00     0.217 S 
ATOM     11  O   UNL d   1     -46.190  11.855  22.270  0.00  0.00    -0.217 OA
ATOM     12  O   UNL d   1     -46.206  12.680  23.698  0.00  0.00    -0.217 OA
BRANCH  10  13
ATOM     13  C   UNL d   1     -45.395  12.065  23.056  0.00  0.00     0.161 C 
BRANCH  13  14
ATOM     14  C   UNL d   1     -44.832  12.483  22.643  0.00  0.00     0.291 C 
ATOM     15  N   UNL d   1     -44.203  12.091  22.282  0.00  0.00    -0.207 NA
ATOM     16  O   UNL d   1     -44.889  13.307  22.583  0.00  0.00    -0.264 OA
BRANCH  15  17
ATOM     17  C   UNL d   1     -43.634  12.517  21.864  0.00  0.00     0.085 A 
ATOM     18  C   UNL d   1     -42.854  12.553  22.138  0.00  0.00     0.019 A 
ATOM     19  C   UNL d   1     -42.283  12.976  21.727  0.00  0.00     0.006 A 
ATOM     20  C   UNL d   1     -42.486  13.375  21.025  0.00  0.00     0.059 A 
ATOM     21  C   UNL d   1     -43.261  13.346  20.743  0.00  0.00     0.006 A 
ATOM     22  C   UNL d   1     -43.841  12.915  21.163  0.00  0.00     0.019 A 
BRANCH  20  23
ATOM     23  C   UNL d   1     -41.924  13.799  20.609  0.00  0.00     0.297 C 
ATOM     24  O   UNL d   1     -41.581  13.490  19.920  0.00  0.00    -0.264 OA
ATOM     25  N   UNL d   1     -41.691  14.555  20.882  0.00  0.00    -0.102 N 
ENDBRANCH  20  23
ENDBRANCH  15  17
ENDBRANCH  13  14
ENDBRANCH  10  13
ENDBRANCH   1  10
BRANCH   2  26
ATOM     26  C   UNL d   1     -48.632  13.709  22.351  0.00  0.00     0.142 C 
BRANCH  26  27
ATOM     27  C   UNL d   1     -48.669  14.436  22.735  0.00  0.00     0.282 C 
ATOM     28  N   UNL d   1     -49.394  14.814  22.834  0.00  0.00    -0.271 N 
ATOM     29  C   UNL d   1     -50.090  14.468  22.551  0.00  0.00     0.083 A 
ATOM     30  C   UNL d   1     -49.432  15.540  23.217  0.00  0.00     0.083 A 
ATOM     31  C   UNL d   1     -50.819  14.848  22.652  0.00  0.00     0.019 A 
ATOM     32  C   UNL d   1     -50.852  15.573  23.034  0.00  0.00     0.003 A 
ATOM     33  C   UNL d   1     -50.164  15.922  23.317  0.00  0.00     0.019 A 
ATOM     34  O   UNL d   1     -47.981  14.784  23.018  0.00  0.00    -0.265 OA
ENDBRANCH  26  27
ENDBRANCH   2  26
TORSDOF 7
ENDMDL
MODEL 3
REMARK VINA RESULT:      -3.1      1.640      2.317
REMARK  7 active torsions:
REMARK  status: ('A' for Active; 'I' for Inactive)
REMARK    1  A    between atoms: S_2  and  C_1 
REMARK    2  A    between atoms: C_7  and  S_2 
REMARK    3  A    between atoms: C_9  and  N_3 
REMARK    4  A    between atoms: C_11  and  C_7 
REMARK    5  A    between atoms: C_8  and  C_9 
REMARK       I    between atoms: N_10  and  C_8 
REMARK       I    between atoms: N_15  and  C_11 
REMARK    6  A    between atoms: C_12  and  C_16 
REMARK    7  A    between atoms: C_23  and  N_15 
ROOT
ATOM      1  C   UNL d   1     -46.193  12.892  22.367  0.00  0.00     0.107 A 
ATOM      2  N   UNL d   1     -47.521  12.962  22.392  0.00  0.00    -0.299 N 
ATOM      3  C   UNL d   1     -46.888  12.448  22.285  0.00  0.00     0.092 A 
ATOM      4  C   UNL d   1     -46.404  13.673  22.523  0.00  0.00     0.028 A 
ATOM      5  C   UNL d   1     -47.230  13.713  22.538  0.00  0.00     0.065 A 
ATOM      6  C   UNL d   1     -45.954  14.348  22.653  0.00  0.00     0.002 A 
ATOM      7  C   UNL d   1     -47.597  14.436  22.684  0.00  0.00     0.018 A 
ATOM      8  C   UNL d   1     -46.322  15.074  22.800  0.00  0.00     0.000 A 
ATOM      9  C   UNL d   1     -47.147  15.112  22.814  0.00  0.00     0.002 A 
ENDROOT
BRANCH   1  10
ATOM     10  S   UNL d   1     -45.422  12.599  22.303  0.00  0.00     0.217 S 
ATOM     11  O   UNL d   1     -45.339  12.516  23.112  0.00  0.00    -0.217 OA
ATOM     12  O   UNL d   1     -45.508  12.685  21.481  0.00  0.00    -0.217 OA
BRANCH  10  13
ATOM     13  C   UNL d   1     -44.649  12.307  22.232  0.00  0.00     0.161 C 
BRANCH  13  14
ATOM     14  C   UNL d   1     -44.059  12.785  21.941  0.00  0.00     0.291 C 
ATOM     15  N   UNL d   1     -43.352  12.459  21.670  0.00  0.00    -0.207 NA
ATOM     16  O   UNL d   1     -44.167  13.606  21.916  0.00  0.00    -0.264 OA
BRANCH  15  17
ATOM     17  C   UNL d   1     -42.756  12.947  21.376  0.00  0.00     0.085 A 
ATOM     18  C   UNL d   1     -42.118  13.162  21.855  0.00  0.00     0.019 A 
ATOM     19  C   UNL d   1     -41.521  13.648  21.569  0.00  0.00     0.006 A 
ATOM     20  C   UNL d   1     -41.555  13.930  20.786  0.00  0.00     0.059 A 
ATOM     21  C   UNL d   1     -42.188  13.722  20.299  0.00  0.00     0.006 A 
ATOM     22  C   UNL d   1     -42.794  13.227  20.593  0.00  0.00     0.019 A 
BRANCH  20  23
ATOM     23  C   UNL d   1     -40.966  14.414  20.492  0.00  0.00     0.297 C 
ATOM     24  O   UNL d   1     -40.189  14.138  20.408  0.00  0.00    -0.264 OA
ATOM     25  N   UNL d   1     -41.149  15.200  20.270  0.00  0.00    -0.102 N 
ENDBRANCH  20  23
ENDBRANCH  15  17
ENDBRANCH  13  14
ENDBRANCH  10  13
ENDBRANCH   1  10
BRANCH   2  26
ATOM     26  C   UNL d   1     -48.318  12.754  22.357  0.00  0.00     0.142 C 
BRANCH  26  27
ATOM     27  C   UNL d   1     -48.623  12.204  22.887  0.00  0.00     0.282 C 
ATOM     28  N   UNL d   1     -49.435  12.172  23.026  0.00  0.00    -0.271 N 
ATOM     29  C   UNL d   1     -49.949  12.689  22.638  0.00  0.00     0.083 A 
ATOM     30  C   UNL d   1     -49.740  11.622  23.556  0.00  0.00     0.083 A 
ATOM     31  C   UNL d   1     -50.764  12.657  22.778  0.00  0.00     0.019 A 
ATOM     32  C   UNL d   1     -51.064  12.107  23.307  0.00  0.00     0.003 A 
ATOM     33  C   UNL d   1     -50.560  11.590  23.697  0.00  0.00     0.019 A 
ATOM     34  O   UNL d   1     -48.117  11.686  23.276  0.00  0.00    -0.265 OA
ENDBRANCH  26  27
ENDBRANCH   2  26
TORSDOF 7
ENDMDL
MODEL 4
REMARK VINA RESULT:      -3.0      1.082      1.570
REMARK  7 active torsions:
REMARK  status: ('A' for Active; 'I' for Inactive)
REMARK    1  A    between atoms: S_2  and  C_1 
REMARK    2  A    between atoms: C_7  and  S_2 
REMARK    3  A    between atoms: C_9  and  N_3 
REMARK    4  A    between atoms: C_11  and  C_7 
REMARK    5  A    between atoms: C_8  and  C_9 
REMARK       I    between atoms: N_10  and  C_8 
REMARK       I    between atoms: N_15  and  C_11 
REMARK    6  A    between atoms: C_12  and  C_16 
REMARK    7  A    between atoms: C_23  and  N_15 
ROOT
ATOM      1  C   UNL d   1     -44.112  12.656  21.854  0.00  0.00     0.107 A 
ATOM      2  N   UNL d   1     -45.256  12.566  22.527  0.00  0.00    -0.299 N 
ATOM      3  C   UNL d   1     -44.850  13.014  21.968  0.00  0.00     0.092 A 
ATOM      4  C   UNL d   1     -44.070  11.993  22.341  0.00  0.00     0.028 A 
ATOM      5  C   UNL d   1     -44.782  11.940  22.758  0.00  0.00     0.065 A 
ATOM      6  C   UNL d   1     -43.480  11.434  22.458  0.00  0.00     0.002 A 
ATOM      7  C   UNL d   1     -44.894  11.322  23.291  0.00  0.00     0.018 A 
ATOM      8  C   UNL d   1     -43.591  10.813  22.994  0.00  0.00     0.000 A 
ATOM      9  C   UNL d   1     -44.303  10.762  23.409  0.00  0.00     0.002 A 
ENDROOT
BRANCH   1  10
ATOM     10  S   UNL d   1     -43.521  12.920  21.338  0.00  0.00     0.217 S 
ATOM     11  O   UNL d   1     -43.578  12.257  20.863  0.00  0.00    -0.217 OA
ATOM     12  O   UNL d   1     -43.465  13.593  21.823  0.00  0.00    -0.217 OA
BRANCH  10  13
ATOM     13  C   UNL d   1     -42.928  13.189  20.825  0.00  0.00     0.161 C 
BRANCH  13  14
ATOM     14  C   UNL d   1     -42.308  13.630  21.117  0.00  0.00     0.291 C 
ATOM     15  N   UNL d   1     -41.651  13.788  20.646  0.00  0.00    -0.207 NA
ATOM     16  O   UNL d   1     -42.337  13.921  21.891  0.00  0.00    -0.264 OA
BRANCH  15  17
ATOM     17  C   UNL d   1     -41.025  14.234  20.945  0.00  0.00     0.085 A 
ATOM     18  C   UNL d   1     -40.371  13.860  21.286  0.00  0.00     0.019 A 
ATOM     19  C   UNL d   1     -39.745  14.299  21.586  0.00  0.00     0.006 A 
ATOM     20  C   UNL d   1     -39.763  15.130  21.547  0.00  0.00     0.059 A 
ATOM     21  C   UNL d   1     -40.411  15.514  21.208  0.00  0.00     0.006 A 
ATOM     22  C   UNL d   1     -41.047  15.065  20.904  0.00  0.00     0.019 A 
BRANCH  20  23
ATOM     23  C   UNL d   1     -39.145  15.575  21.843  0.00  0.00     0.297 C 
ATOM     24  O   UNL d   1     -39.189  15.922  22.594  0.00  0.00    -0.264 OA
ATOM     25  N   UNL d   1     -38.456  15.683  21.379  0.00  0.00    -0.102 N 
ENDBRANCH  20  23
ENDBRANCH  15  17
ENDBRANCH  13  14
ENDBRANCH  10  13
ENDBRANCH   1  10
BRANCH   2  26
ATOM     26  C   UNL d   1     -46.015  12.724  22.807  0.00  0.00     0.142 C 
BRANCH  26  27
ATOM     27  C   UNL d   1     -46.325  13.484  22.751  0.00  0.00     0.282 C 
ATOM     28  N   UNL d   1     -47.138  13.593  22.672  0.00  0.00    -0.271 N 
ATOM     29  C   UNL d   1     -47.649  12.944  22.648  0.00  0.00     0.083 A 
ATOM     30  C   UNL d   1     -47.448  14.352  22.617  0.00  0.00     0.083 A 
ATOM     31  C   UNL d   1     -48.465  13.054  22.569  0.00  0.00     0.019 A 
ATOM     32  C   UNL d   1     -48.770  13.813  22.514  0.00  0.00     0.003 A 
ATOM     33  C   UNL d   1     -48.269  14.463  22.537  0.00  0.00     0.019 A 
ATOM     34  O   UNL d   1     -45.822  14.133  22.775  0.00  0.00    -0.265 OA
ENDBRANCH  26  27
ENDBRANCH   2  26
TORSDOF 7
ENDMDL
MODEL 5
REMARK VINA RESULT:      -2.7      2.070      6.625
REMARK  7 active torsions:
REMARK  status: ('A' for Active; 'I' for Inactive)
REMARK    1  A    between atoms: S_2  and  C_1 
REMARK    2  A    between atoms: C_7  and  S_2 
REMARK    3  A    between atoms: C_9  and  N_3 
REMARK    4  A    between atoms: C_11  and  C_7 
REMARK    5  A    between atoms: C_8  and  C_9 
REMARK       I    between atoms: N_10  and  C_8 
REMARK       I    between atoms: N_15  and  C_11 
REMARK    6  A    between atoms: C_12  and  C_16 
REMARK    7  A    between atoms: C_23  and  N_15 
ROOT
ATOM      1  C   UNL d   1     -41.106  14.107  20.657  0.00  0.00     0.107 A 
ATOM      2  N   UNL d   1     -40.562  15.136  20.014  0.00  0.00    -0.299 N 
ATOM      3  C   UNL d   1     -41.216  14.637  20.032  0.00  0.00     0.092 A 
ATOM      4  C   UNL d   1     -40.386  14.282  21.019  0.00  0.00     0.028 A 
ATOM      5  C   UNL d   1     -40.051  14.922  20.617  0.00  0.00     0.065 A 
ATOM      6  C   UNL d   1     -39.996  13.944  21.657  0.00  0.00     0.002 A 
ATOM      7  C   UNL d   1     -39.322  15.217  20.862  0.00  0.00     0.018 A 
ATOM      8  C   UNL d   1     -39.263  14.240  21.904  0.00  0.00     0.000 A 
ATOM      9  C   UNL d   1     -38.930  14.879  21.501  0.00  0.00     0.002 A 
ENDROOT
BRANCH   1  10
ATOM     10  S   UNL d   1     -41.628  13.505  20.880  0.00  0.00     0.217 S 
ATOM     11  O   UNL d   1     -41.559  13.679  21.676  0.00  0.00    -0.217 OA
ATOM     12  O   UNL d   1     -41.697  13.330  20.070  0.00  0.00    -0.217 OA
BRANCH  10  13
ATOM     13  C   UNL d   1     -42.153  12.900  21.097  0.00  0.00     0.161 C 
BRANCH  13  14
ATOM     14  C   UNL d   1     -42.869  13.087  21.437  0.00  0.00     0.291 C 
ATOM     15  N   UNL d   1     -43.483  12.537  21.444  0.00  0.00    -0.207 NA
ATOM     16  O   UNL d   1     -42.982  13.832  21.778  0.00  0.00    -0.264 OA
BRANCH  15  17
ATOM     17  C   UNL d   1     -44.206  12.729  21.790  0.00  0.00     0.085 A 
ATOM     18  C   UNL d   1     -44.457  12.343  22.477  0.00  0.00     0.019 A 
ATOM     19  C   UNL d   1     -45.176  12.530  22.826  0.00  0.00     0.006 A 
ATOM     20  C   UNL d   1     -45.663  13.114  22.488  0.00  0.00     0.059 A 
ATOM     21  C   UNL d   1     -45.423  13.506  21.802  0.00  0.00     0.006 A 
ATOM     22  C   UNL d   1     -44.690  13.314  21.449  0.00  0.00     0.019 A 
BRANCH  20  23
ATOM     23  C   UNL d   1     -46.381  13.307  22.828  0.00  0.00     0.297 C 
ATOM     24  O   UNL d   1     -46.692  12.859  23.452  0.00  0.00    -0.264 OA
ATOM     25  N   UNL d   1     -46.810  13.967  22.542  0.00  0.00    -0.102 N 
ENDBRANCH  20  23
ENDBRANCH  15  17
ENDBRANCH  13  14
ENDBRANCH  10  13
ENDBRANCH   1  10
BRANCH   2  26
ATOM     26  C   UNL d   1     -40.442  15.749  19.477  0.00  0.00     0.142 C 
BRANCH  26  27
ATOM     27  C   UNL d   1     -40.898  15.794  18.794  0.00  0.00     0.282 C 
ATOM     28  N   UNL d   1     -40.534  15.835  18.056  0.00  0.00    -0.271 N 
ATOM     29  C   UNL d   1     -39.710  15.832  17.994  0.00  0.00     0.083 A 
ATOM     30  C   UNL d   1     -40.990  15.880  17.373  0.00  0.00     0.083 A 
ATOM     31  C   UNL d   1     -39.344  15.874  17.252  0.00  0.00     0.019 A 
ATOM     32  C   UNL d   1     -39.802  15.918  16.574  0.00  0.00     0.003 A 
ATOM     33  C   UNL d   1     -40.622  15.922  16.628  0.00  0.00     0.019 A 
ATOM     34  O   UNL d   1     -41.718  15.798  18.849  0.00  0.00    -0.265 OA
ENDBRANCH  26  27
ENDBRANCH   2  26
TORSDOF 7
ENDMDL
MODEL 6
REMARK VINA RESULT:      -2.7      1.967      2.618
REMARK  7 active torsions:
REMARK  status: ('A' for Active; 'I' for Inactive)
REMARK    1  A    between atoms: S_2  and  C_1 
REMARK    2  A    between atoms: C_7  and  S_2 
REMARK    3  A    between atoms: C_9  and  N_3 
REMARK    4  A    between atoms: C_11  and  C_7 
REMARK    5  A    between atoms: C_8  and  C_9 
REMARK       I    between atoms: N_10  and  C_8 
REMARK       I    between atoms: N_15  and  C_11 
REMARK    6  A    between atoms: C_12  and  C_16 
REMARK    7  A    between atoms: C_23  and  N_15 
ROOT
ATOM      1  C   UNL d   1     -43.204  12.814  21.652  0.00  0.00     0.107 A 
ATOM      2  N   UNL d   1     -44.518  12.734  21.846  0.00  0.00    -0.299 N 
ATOM      3  C   UNL d   1     -43.930  13.170  21.471  0.00  0.00     0.092 A 
ATOM      4  C   UNL d   1     -43.352  12.164  22.136  0.00  0.00     0.028 A 
ATOM      5  C   UNL d   1     -44.168  12.116  22.255  0.00  0.00     0.065 A 
ATOM      6  C   UNL d   1     -42.851  11.612  22.481  0.00  0.00     0.002 A 
ATOM      7  C   UNL d   1     -44.476  11.512  22.722  0.00  0.00     0.018 A 
ATOM      8  C   UNL d   1     -43.159  11.004  22.951  0.00  0.00     0.000 A 
ATOM      9  C   UNL d   1     -43.975  10.959  23.068  0.00  0.00     0.002 A 
ENDROOT
BRANCH   1  10
ATOM     10  S   UNL d   1     -42.461  13.069  21.392  0.00  0.00     0.217 S 
ATOM     11  O   UNL d   1     -42.430  13.677  21.937  0.00  0.00    -0.217 OA
ATOM     12  O   UNL d   1     -42.496  12.450  20.838  0.00  0.00    -0.217 OA
BRANCH  10  13
ATOM     13  C   UNL d   1     -41.717  13.320  21.126  0.00  0.00     0.161 C 
BRANCH  13  14
ATOM     14  C   UNL d   1     -41.641  13.655  20.389  0.00  0.00     0.291 C 
ATOM     15  N   UNL d   1     -40.991  14.130  20.212  0.00  0.00    -0.207 NA
ATOM     16  O   UNL d   1     -42.218  13.520  19.812  0.00  0.00    -0.264 OA
BRANCH  15  17
ATOM     17  C   UNL d   1     -40.917  14.469  19.463  0.00  0.00     0.085 A 
ATOM     18  C   UNL d   1     -41.043  15.279  19.357  0.00  0.00     0.019 A 
ATOM     19  C   UNL d   1     -40.971  15.623  18.615  0.00  0.00     0.006 A 
ATOM     20  C   UNL d   1     -40.769  15.154  17.958  0.00  0.00     0.059 A 
ATOM     21  C   UNL d   1     -40.641  14.344  18.052  0.00  0.00     0.006 A 
ATOM     22  C   UNL d   1     -40.715  13.997  18.809  0.00  0.00     0.019 A 
BRANCH  20  23
ATOM     23  C   UNL d   1     -40.695  15.487  17.215  0.00  0.00     0.297 C 
ATOM     24  O   UNL d   1     -41.293  15.400  16.647  0.00  0.00    -0.264 OA
ATOM     25  N   UNL d   1     -40.006  15.922  17.024  0.00  0.00    -0.102 N 
ENDBRANCH  20  23
ENDBRANCH  15  17
ENDBRANCH  13  14
ENDBRANCH  10  13
ENDBRANCH   1  10
BRANCH   2  26
ATOM     26  C   UNL d   1     -45.326  12.894  21.815  0.00  0.00     0.142 C 
BRANCH  26  27
ATOM     27  C   UNL d   1     -45.630  13.556  22.197  0.00  0.00     0.282 C 
ATOM     28  N   UNL d   1     -46.442  13.624  22.321  0.00  0.00    -0.271 N 
ATOM     29  C   UNL d   1     -46.957  13.031  22.064  0.00  0.00     0.083 A 
ATOM     30  C   UNL d   1     -46.746  14.285  22.704  0.00  0.00     0.083 A 
ATOM     31  C   UNL d   1     -47.773  13.100  22.189  0.00  0.00     0.019 A 
ATOM     32  C   UNL d   1     -48.072  13.761  22.571  0.00  0.00     0.003 A 
ATOM     33  C   UNL d   1     -47.566  14.354  22.829  0.00  0.00     0.019 A 
ATOM     34  O   UNL d   1     -45.122  14.148  22.455  0.00  0.00    -0.265 OA
ENDBRANCH  26  27
ENDBRANCH   2  26
TORSDOF 7
ENDMDL
MODEL 7
REMARK VINA RESULT:      -2.3      3.491      6.431
REMARK  7 active torsions:
REMARK  status: ('A' for Active; 'I' for Inactive)
REMARK    1  A    between atoms: S_2  and  C_1 
REMARK    2  A    between atoms: C_7  and  S_2 
REMARK    3  A    between atoms: C_9  and  N_3 
REMARK    4  A    between atoms: C_11  and  C_7 
REMARK    5  A    between atoms: C_8  and  C_9 
REMARK       I    between atoms: N_10  and  C_8 
REMARK       I    between atoms: N_15  and  C_11 
REMARK    6  A    between atoms: C_12  and  C_16 
REMARK    7  A    between atoms: C_23  and  N_15 
ROOT
ATOM      1  C   UNL d   1     -39.498  14.737  20.608  0.00  0.00     0.107 A 
ATOM      2  N   UNL d   1     -40.342  13.980  21.304  0.00  0.00    -0.299 N 
ATOM      3  C   UNL d   1     -40.272  14.441  20.626  0.00  0.00     0.092 A 
ATOM      4  C   UNL d   1     -39.100  14.456  21.272  0.00  0.00     0.028 A 
ATOM      5  C   UNL d   1     -39.627  13.986  21.703  0.00  0.00     0.065 A 
ATOM      6  C   UNL d   1     -38.331  14.567  21.539  0.00  0.00     0.002 A 
ATOM      7  C   UNL d   1     -39.374  13.630  22.401  0.00  0.00     0.018 A 
ATOM      8  C   UNL d   1     -38.076  14.209  22.241  0.00  0.00     0.000 A 
ATOM      9  C   UNL d   1     -38.604  13.740  22.669  0.00  0.00     0.002 A 
ENDROOT
BRANCH   1  10
ATOM     10  S   UNL d   1     -39.182  15.229  20.023  0.00  0.00     0.217 S 
ATOM     11  O   UNL d   1     -39.376  15.911  20.430  0.00  0.00    -0.217 OA
ATOM     12  O   UNL d   1     -38.986  14.534  19.611  0.00  0.00    -0.217 OA
BRANCH  10  13
ATOM     13  C   UNL d   1     -38.864  15.718  19.433  0.00  0.00     0.161 C 
BRANCH  13  14
ATOM     14  C   UNL d   1     -38.874  15.475  18.656  0.00  0.00     0.291 C 
ATOM     15  N   UNL d   1     -38.202  15.554  18.185  0.00  0.00    -0.207 NA
ATOM     16  O   UNL d   1     -39.563  15.148  18.335  0.00  0.00    -0.264 OA
BRANCH  15  17
ATOM     17  C   UNL d   1     -38.217  15.307  17.399  0.00  0.00     0.085 A 
ATOM     18  C   UNL d   1     -38.312  15.859  16.790  0.00  0.00     0.019 A 
ATOM     19  C   UNL d   1     -38.328  15.621  16.004  0.00  0.00     0.006 A 
ATOM     20  C   UNL d   1     -38.246  14.815  15.813  0.00  0.00     0.059 A 
ATOM     21  C   UNL d   1     -38.149  14.255  16.413  0.00  0.00     0.006 A 
ATOM     22  C   UNL d   1     -38.134  14.501  17.211  0.00  0.00     0.019 A 
BRANCH  20  23
ATOM     23  C   UNL d   1     -38.260  14.568  15.034  0.00  0.00     0.297 C 
ATOM     24  O   UNL d   1     -38.585  13.835  14.825  0.00  0.00    -0.264 OA
ATOM     25  N   UNL d   1     -37.940  15.061  14.438  0.00  0.00    -0.102 N 
ENDBRANCH  20  23
ENDBRANCH  15  17
ENDBRANCH  13  14
ENDBRANCH  10  13
ENDBRANCH   1  10
BRANCH   2  26
ATOM     26  C   UNL d   1     -41.021  13.578  21.541  0.00  0.00     0.142 C 
BRANCH  26  27
ATOM     27  C   UNL d   1     -41.764  13.882  21.360  0.00  0.00     0.282 C 
ATOM     28  N   UNL d   1     -42.435  13.411  21.447  0.00  0.00    -0.271 N 
ATOM     29  C   UNL d   1     -42.369  12.632  21.715  0.00  0.00     0.083 A 
ATOM     30  C   UNL d   1     -43.177  13.714  21.266  0.00  0.00     0.083 A 
ATOM     31  C   UNL d   1     -43.043  12.159  21.802  0.00  0.00     0.019 A 
ATOM     32  C   UNL d   1     -43.782  12.466  21.620  0.00  0.00     0.003 A 
ATOM     33  C   UNL d   1     -43.854  13.239  21.354  0.00  0.00     0.019 A 
ATOM     34  O   UNL d   1     -41.835  14.656  21.093  0.00  0.00    -0.265 OA
ENDBRANCH  26  27
ENDBRANCH   2  26
TORSDOF 7
ENDMDL
