MODEL 1
REMARK VINA RESULT:       8.9      0.000      0.000
REMARK  1 active torsions:
REMARK  status: ('A' for Active; 'I' for Inactive)
REMARK    1  A    between atoms: C_2  and  C_3 
ROOT
ATOM      1  C   UNL d   1     -54.727-100.551 -36.116  0.00  0.00     0.002 A 
ATOM      2  C   UNL d   1     -54.715-100.094 -36.803  0.00  0.00     0.000 A 
ATOM      3  C   UNL d   1     -54.737-100.182 -35.378  0.00  0.00     0.000 A 
ATOM      4  C   UNL d   1     -54.714 -99.270 -36.752  0.00  0.00     0.000 A 
ATOM      5  C   UNL d   1     -54.735 -99.358 -35.327  0.00  0.00     0.000 A 
ATOM      6  C   UNL d   1     -54.724 -98.902 -36.014  0.00  0.00     0.000 A 
ENDROOT
BRANCH   1   7
ATOM      7  C   UNL d   1     -54.728-101.377 -36.163  0.00  0.00     0.021 A 
ATOM      8  C   UNL d   1     -54.736-101.899 -35.526  0.00  0.00     0.099 A 
ATOM      9  N   UNL d   1     -54.735-102.665 -35.824  0.00  0.00    -0.242 NA
ATOM     10  C   UNL d   1     -54.725-102.618 -36.650  0.00  0.00     0.099 A 
ATOM     11  C   UNL d   1     -54.721-101.821 -36.860  0.00  0.00     0.022 A 
ENDBRANCH   1   7
TORSDOF 1
ENDMDL
MODEL 2
REMARK VINA RESULT:      10.3      8.507      9.213
REMARK  1 active torsions:
REMARK  status: ('A' for Active; 'I' for Inactive)
REMARK    1  A    between atoms: C_2  and  C_3 
ROOT
ATOM      1  C   UNL d   1     -58.224 -98.778 -44.232  0.00  0.00     0.002 A 
ATOM      2  C   UNL d   1     -58.773 -98.769 -44.848  0.00  0.00     0.000 A 
ATOM      3  C   UNL d   1     -58.485 -98.794 -43.450  0.00  0.00     0.000 A 
ATOM      4  C   UNL d   1     -59.582 -98.775 -44.682  0.00  0.00     0.000 A 
ATOM      5  C   UNL d   1     -59.294 -98.800 -43.283  0.00  0.00     0.000 A 
ATOM      6  C   UNL d   1     -59.843 -98.791 -43.899  0.00  0.00     0.000 A 
ENDROOT
BRANCH   1   7
ATOM      7  C   UNL d   1     -57.413 -98.772 -44.395  0.00  0.00     0.021 A 
ATOM      8  C   UNL d   1     -57.068 -98.766 -45.143  0.00  0.00     0.099 A 
ATOM      9  N   UNL d   1     -56.251 -98.760 -45.047  0.00  0.00    -0.242 NA
ATOM     10  C   UNL d   1     -56.089 -98.763 -44.236  0.00  0.00     0.099 A 
ATOM     11  C   UNL d   1     -56.807 -98.770 -43.832  0.00  0.00     0.022 A 
ENDBRANCH   1   7
TORSDOF 1
ENDMDL
