MODEL 1
REMARK VINA RESULT:      75.9      0.000      0.000
REMARK  4 active torsions:
REMARK  status: ('A' for Active; 'I' for Inactive)
REMARK    1  A    between atoms: C_13  and  C_2 
REMARK       I    between atoms: N_7  and  C_8 
REMARK    2  A    between atoms: C_8  and  C_15 
REMARK    3  A    between atoms: S_14  and  C_10 
REMARK    4  A    between atoms: C_15  and  S_14 
ROOT
ATOM      1  N   UNL d   1     -48.018  29.669  35.067  0.00  0.00    -0.191 N 
ATOM      2  C   UNL d   1     -47.745  30.423  35.236  0.00  0.00     0.187 A 
ATOM      3  N   UNL d   1     -47.466  30.422  36.008  0.00  0.00    -0.127 NA
ATOM      4  C   UNL d   1     -47.914  29.192  35.725  0.00  0.00     0.187 A 
ATOM      5  N   UNL d   1     -48.360  29.344  34.374  0.00  0.00    -0.156 NA
ATOM      6  N   UNL d   1     -47.567  29.663  36.317  0.00  0.00    -0.127 NA
ATOM      7  C   UNL d   1     -48.589  28.551  34.357  0.00  0.00     0.131 A 
ATOM      8  C   UNL d   1     -48.142  28.399  35.708  0.00  0.00     0.043 A 
ATOM      9  C   UNL d   1     -48.479  28.079  35.025  0.00  0.00     0.031 A 
ENDROOT
BRANCH   7  10
ATOM     10  S   UNL d   1     -48.926  28.231  33.674  0.00  0.00    -0.061 SA
BRANCH  10  11
ATOM     11  C   UNL d   1     -49.488  27.633  33.736  0.00  0.00     0.098 C 
BRANCH  11  12
ATOM     12  C   UNL d   1     -50.275  27.808  33.638  0.00  0.00     0.271 C 
ATOM     13  N   UNL d   1     -50.819  27.200  33.528  0.00  0.00    -0.273 N 
ATOM     14  C   UNL d   1     -50.564  26.422  33.518  0.00  0.00     0.067 A 
ATOM     15  C   UNL d   1     -51.615  27.384  33.429  0.00  0.00     0.083 A 
ATOM     16  C   UNL d   1     -51.107  25.824  33.408  0.00  0.00     0.016 A 
ATOM     17  C   UNL d   1     -49.768  26.248  33.617  0.00  0.00     0.018 A 
ATOM     18  C   UNL d   1     -50.860  25.034  33.396  0.00  0.00     0.001 A 
ATOM     19  C   UNL d   1     -51.903  25.986  33.308  0.00  0.00     0.003 A 
ATOM     20  C   UNL d   1     -50.061  24.848  33.495  0.00  0.00     0.000 A 
ATOM     21  C   UNL d   1     -49.510  25.462  33.607  0.00  0.00     0.002 A 
ATOM     22  C   UNL d   1     -52.150  26.779  33.321  0.00  0.00     0.019 A 
ATOM     23  O   UNL d   1     -50.533  28.593  33.649  0.00  0.00    -0.266 OA
ENDBRANCH  11  12
ENDBRANCH  10  11
ENDBRANCH   7  10
BRANCH   2  24
ATOM     24  C   UNL d   1     -47.746  31.069  34.732  0.00  0.00     0.038 A 
ATOM     25  C   UNL d   1     -48.393  31.219  34.252  0.00  0.00     0.003 A 
ATOM     26  C   UNL d   1     -48.397  31.870  33.742  0.00  0.00     0.000 A 
ATOM     27  C   UNL d   1     -47.738  32.370  33.720  0.00  0.00     0.000 A 
ATOM     28  C   UNL d   1     -47.084  32.223  34.200  0.00  0.00     0.000 A 
ATOM     29  C   UNL d   1     -47.087  31.569  34.709  0.00  0.00     0.003 A 
ENDBRANCH   2  24
TORSDOF 4
ENDMDL
MODEL 2
REMARK VINA RESULT:      78.6      1.154      5.665
REMARK  4 active torsions:
REMARK  status: ('A' for Active; 'I' for Inactive)
REMARK    1  A    between atoms: C_13  and  C_2 
REMARK       I    between atoms: N_7  and  C_8 
REMARK    2  A    between atoms: C_8  and  C_15 
REMARK    3  A    between atoms: S_14  and  C_10 
REMARK    4  A    between atoms: C_15  and  S_14 
ROOT
ATOM      1  N   UNL d   1     -51.111  26.363  33.405  0.00  0.00    -0.191 N 
ATOM      2  C   UNL d   1     -51.422  25.606  33.365  0.00  0.00     0.187 A 
ATOM      3  N   UNL d   1     -52.237  25.673  33.306  0.00  0.00    -0.127 NA
ATOM      4  C   UNL d   1     -51.722  26.908  33.372  0.00  0.00     0.187 A 
ATOM      5  N   UNL d   1     -50.320  26.637  33.469  0.00  0.00    -0.156 NA
ATOM      6  N   UNL d   1     -52.431  26.476  33.311  0.00  0.00    -0.127 NA
ATOM      7  C   UNL d   1     -50.163  27.447  33.499  0.00  0.00     0.131 A 
ATOM      8  C   UNL d   1     -51.565  27.717  33.403  0.00  0.00     0.043 A 
ATOM      9  C   UNL d   1     -50.786  27.987  33.466  0.00  0.00     0.031 A 
ENDROOT
BRANCH   7  10
ATOM     10  S   UNL d   1     -49.385  27.716  33.563  0.00  0.00    -0.061 SA
BRANCH  10  11
ATOM     11  C   UNL d   1     -49.150  28.139  34.229  0.00  0.00     0.098 C 
BRANCH  11  12
ATOM     12  C   UNL d   1     -48.447  27.960  34.593  0.00  0.00     0.271 C 
ATOM     13  N   UNL d   1     -47.953  28.567  34.849  0.00  0.00    -0.273 N 
ATOM     14  C   UNL d   1     -48.173  29.347  34.735  0.00  0.00     0.067 A 
ATOM     15  C   UNL d   1     -47.242  28.379  35.217  0.00  0.00     0.083 A 
ATOM     16  C   UNL d   1     -47.680  29.944  34.990  0.00  0.00     0.016 A 
ATOM     17  C   UNL d   1     -48.885  29.525  34.366  0.00  0.00     0.018 A 
ATOM     18  C   UNL d   1     -47.892  30.736  34.880  0.00  0.00     0.001 A 
ATOM     19  C   UNL d   1     -46.968  29.778  35.359  0.00  0.00     0.003 A 
ATOM     20  C   UNL d   1     -48.606  30.926  34.510  0.00  0.00     0.000 A 
ATOM     21  C   UNL d   1     -49.107  30.314  34.251  0.00  0.00     0.002 A 
ATOM     22  C   UNL d   1     -46.755  28.983  35.469  0.00  0.00     0.019 A 
ATOM     23  O   UNL d   1     -48.224  27.173  34.708  0.00  0.00    -0.266 OA
ENDBRANCH  11  12
ENDBRANCH  10  11
ENDBRANCH   7  10
BRANCH   2  24
ATOM     24  C   UNL d   1     -51.001  24.903  33.379  0.00  0.00     0.038 A 
ATOM     25  C   UNL d   1     -50.183  24.908  33.343  0.00  0.00     0.003 A 
ATOM     26  C   UNL d   1     -49.757  24.199  33.358  0.00  0.00     0.000 A 
ATOM     27  C   UNL d   1     -50.166  23.482  33.410  0.00  0.00     0.000 A 
ATOM     28  C   UNL d   1     -50.990  23.472  33.446  0.00  0.00     0.000 A 
ATOM     29  C   UNL d   1     -51.411  24.186  33.431  0.00  0.00     0.003 A 
ENDBRANCH   2  24
TORSDOF 4
ENDMDL
