MODEL 1
REMARK VINA RESULT:      72.7      0.000      0.000
REMARK  5 active torsions:
REMARK  status: ('A' for Active; 'I' for Inactive)
REMARK    1  A    between atoms: C_18  and  N_1 
REMARK    2  A    between atoms: C_13  and  C_6 
REMARK    3  A    between atoms: C_12  and  C_7 
REMARK    4  A    between atoms: C_23  and  C_14 
REMARK    5  A    between atoms: C_19  and  C_18 
ROOT
ATOM      1  C   UNL d   1     -52.738  25.468  33.307  0.00  0.00     0.121 A 
ATOM      2  C   UNL d   1     -52.136  24.898  33.311  0.00  0.00     0.058 A 
ATOM      3  N   UNL d   1     -53.459  25.068  33.306  0.00  0.00    -0.195 NA
ATOM      4  S   UNL d   1     -52.545  26.268  33.306  0.00  0.00    -0.068 SA
ATOM      5  C   UNL d   1     -51.754  26.507  33.309  0.00  0.00     0.026 A 
ATOM      6  C   UNL d   1     -51.152  25.937  33.312  0.00  0.00    -0.001 A 
ATOM      7  C   UNL d   1     -51.176  27.248  33.309  0.00  0.00    -0.011 A 
ATOM      8  C   UNL d   1     -50.588  26.532  33.313  0.00  0.00    -0.027 A 
ATOM      9  C   UNL d   1     -51.345  25.131  33.314  0.00  0.00     0.008 A 
ATOM     10  C   UNL d   1     -53.303  24.257  33.308  0.00  0.00     0.311 A 
ATOM     11  S   UNL d   1     -52.491  24.151  33.312  0.00  0.00    -0.024 SA
ATOM     12  C   UNL d   1     -51.189  28.072  33.307  0.00  0.00     0.049 A 
ATOM     13  O   UNL d   1     -53.870  23.658  33.308  0.00  0.00    -0.258 OA
ENDROOT
BRANCH   9  14
ATOM     14  C   UNL d   1     -50.750  24.567  33.318  0.00  0.00     0.001 A 
ATOM     15  C   UNL d   1     -50.934  23.764  33.332  0.00  0.00     0.000 A 
ATOM     16  C   UNL d   1     -50.336  23.197  33.336  0.00  0.00     0.000 A 
ATOM     17  C   UNL d   1     -49.544  23.424  33.325  0.00  0.00     0.000 A 
ATOM     18  C   UNL d   1     -49.355  24.233  33.311  0.00  0.00     0.000 A 
ATOM     19  C   UNL d   1     -49.953  24.799  33.307  0.00  0.00     0.000 A 
ENDBRANCH   9  14
BRANCH   8  20
ATOM     20  C   UNL d   1     -49.771  26.465  33.316  0.00  0.00     0.125 A 
ATOM     21  C   UNL d   1     -49.075  26.763  33.642  0.00  0.00     0.251 A 
ATOM     22  N   UNL d   1     -49.284  27.364  34.170  0.00  0.00    -0.239 N 
ATOM     23  O   UNL d   1     -48.301  26.509  33.473  0.00  0.00    -0.271 OA
ATOM     24  C   UNL d   1     -50.097  27.437  34.172  0.00  0.00     0.263 A 
ATOM     25  C   UNL d   1     -50.405  26.875  33.638  0.00  0.00     0.044 A 
ATOM     26  O   UNL d   1     -50.531  27.976  34.626  0.00  0.00    -0.267 OA
BRANCH  22  27
ATOM     27  C   UNL d   1     -48.748  27.828  34.633  0.00  0.00     0.134 C 
ATOM     28  C   UNL d   1     -48.430  27.522  35.352  0.00  0.00     0.026 C 
BRANCH  27  29
ATOM     29  C   UNL d   1     -48.527  28.607  34.371  0.00  0.00     0.228 C 
ATOM     30  O   UNL d   1     -48.116  29.128  34.897  0.00  0.00    -0.643 OA
ATOM     31  O   UNL d   1     -48.720  28.854  33.591  0.00  0.00    -0.643 OA
ENDBRANCH  27  29
ENDBRANCH  22  27
ENDBRANCH   8  20
TORSDOF 5
ENDMDL
