MODEL 1
REMARK VINA RESULT:      33.5      0.000      0.000
REMARK  4 active torsions:
REMARK  status: ('A' for Active; 'I' for Inactive)
REMARK    1  A    between atoms: N_2  and  S_1 
REMARK    2  A    between atoms: C_3  and  S_1 
REMARK    3  A    between atoms: C_4  and  N_2 
REMARK    4  A    between atoms: O_14  and  C_7 
ROOT
ATOM      1  S   UNL d   1     -56.695 -98.872 -44.665  0.00  0.00     0.285 S 
ATOM      2  O   UNL d   1     -56.933 -98.970 -43.879  0.00  0.00    -0.198 OA
ATOM      3  O   UNL d   1     -56.450 -98.773 -45.467  0.00  0.00    -0.198 OA
ENDROOT
BRANCH   1   4
ATOM      4  N   UNL d   1     -55.905 -98.902 -44.431  0.00  0.00    -0.156 NA
BRANCH   4   5
ATOM      5  C   UNL d   1     -55.517 -99.624 -44.373  0.00  0.00     0.116 A 
ATOM      6  C   UNL d   1     -55.228 -99.891 -43.649  0.00  0.00     0.112 A 
ATOM      7  C   UNL d   1     -54.840-100.614 -43.590  0.00  0.00     0.026 A 
ATOM      8  C   UNL d   1     -54.732-101.085 -44.255  0.00  0.00     0.002 A 
ATOM      9  C   UNL d   1     -55.020-100.823 -44.983  0.00  0.00     0.002 A 
ATOM     10  C   UNL d   1     -55.408-100.101 -45.041  0.00  0.00     0.022 A 
BRANCH   6  11
ATOM     11  O   UNL d   1     -55.341 -99.399 -42.963  0.00  0.00    -0.327 OA
ATOM     12  C   UNL d   1     -54.712 -99.210 -42.469  0.00  0.00     0.181 C 
ENDBRANCH   6  11
ENDBRANCH   4   5
ENDBRANCH   1   4
BRANCH   1  13
ATOM     13  C   UNL d   1     -57.502 -98.842 -44.907  0.00  0.00     0.105 A 
ATOM     14  C   UNL d   1     -58.101 -98.823 -44.331  0.00  0.00     0.014 A 
ATOM     15  C   UNL d   1     -58.891 -98.793 -44.577  0.00  0.00     0.012 A 
ATOM     16  C   UNL d   1     -59.085 -98.783 -45.396  0.00  0.00     0.058 A 
ATOM     17  C   UNL d   1     -58.485 -98.802 -45.952  0.00  0.00     0.012 A 
ATOM     18 CL   UNL d   1     -59.800 -98.756 -45.664  0.00  0.00    -0.082 Cl
ATOM     19  C   UNL d   1     -57.696 -98.831 -45.725  0.00  0.00     0.014 A 
ENDBRANCH   1  13
TORSDOF 4
ENDMDL
