MODEL 1
REMARK VINA RESULT:      -7.8      0.000      0.000
REMARK  5 active torsions:
REMARK  status: ('A' for Active; 'I' for Inactive)
REMARK    1  A    between atoms: N_3  and  C_1 
REMARK    2  A    between atoms: N_6  and  C_1 
REMARK       I    between atoms: C_2  and  N_4 
REMARK    3  A    between atoms: C_5  and  C_2 
REMARK    4  A    between atoms: C_7  and  N_3 
REMARK    5  A    between atoms: N_4  and  N_6 
ROOT
ATOM      1  N   UNL d   1      51.759  34.168  53.682  0.00  0.00    -0.273 N 
ATOM      2  H   UNL d   1      51.570  33.539  54.185  0.00  0.00     0.189 HD
ENDROOT
BRANCH   1   3
ATOM      3  N   UNL d   1      51.175  34.527  53.225  0.00  0.00    -0.264 N 
ATOM      4  C   UNL d   1      50.467  34.131  53.099  0.00  0.00     0.272 C 
ATOM      5  O   UNL d   1      50.342  33.380  53.425  0.00  0.00    -0.266 OA
ATOM      6  H   UNL d   1      51.298  35.266  52.904  0.00  0.00     0.190 HD
BRANCH   4   7
ATOM      7  C   UNL d   1      49.864  34.473  52.641  0.00  0.00     0.058 A 
ATOM      8  C   UNL d   1      49.327  34.984  52.981  0.00  0.00     0.011 A 
ATOM      9  C   UNL d   1      48.736  35.312  52.508  0.00  0.00     0.035 A 
ATOM     10 BR   UNL d   1      48.179  35.833  52.827  0.00  0.00    -0.049 Br
ATOM     11  C   UNL d   1      48.691  35.123  51.698  0.00  0.00     0.007 A 
ATOM     12  C   UNL d   1      49.238  34.605  51.360  0.00  0.00     0.001 A 
ATOM     13  C   UNL d   1      49.819  34.284  51.831  0.00  0.00     0.005 A 
ENDBRANCH   4   7
ENDBRANCH   1   3
BRANCH   1  14
ATOM     14  C   UNL d   1      52.525  34.443  53.629  0.00  0.00     0.191 C 
ATOM     15  S   UNL d   1      52.693  35.232  53.751  0.00  0.00    -0.039 SA
BRANCH  14  16
ATOM     16  N   UNL d   1      53.146  33.908  53.449  0.00  0.00    -0.331 N 
ATOM     17  H   UNL d   1      53.256  33.656  52.668  0.00  0.00     0.168 HD
BRANCH  16  18
ATOM     18  C   UNL d   1      53.639  33.639  54.046  0.00  0.00     0.058 A 
ATOM     19  C   UNL d   1      54.018  32.912  53.959  0.00  0.00     0.016 A 
ATOM     20  C   UNL d   1      53.901  32.459  53.275  0.00  0.00     0.002 C 
ATOM     21  C   UNL d   1      54.507  32.647  54.553  0.00  0.00     0.001 A 
ATOM     22  C   UNL d   1      54.622  33.093  55.227  0.00  0.00     0.000 A 
ATOM     23  C   UNL d   1      54.251  33.812  55.320  0.00  0.00     0.002 A 
ATOM     24  C   UNL d   1      53.755  34.085  54.720  0.00  0.00     0.017 A 
ENDBRANCH  16  18
ENDBRANCH  14  16
ENDBRANCH   1  14
TORSDOF 5
ENDMDL
MODEL 2
REMARK VINA RESULT:      -7.2      1.914      5.151
REMARK  5 active torsions:
REMARK  status: ('A' for Active; 'I' for Inactive)
REMARK    1  A    between atoms: N_3  and  C_1 
REMARK    2  A    between atoms: N_6  and  C_1 
REMARK       I    between atoms: C_2  and  N_4 
REMARK    3  A    between atoms: C_5  and  C_2 
REMARK    4  A    between atoms: C_7  and  N_3 
REMARK    5  A    between atoms: N_4  and  N_6 
ROOT
ATOM      1  N   UNL d   1      51.182  34.688  53.187  0.00  0.00    -0.273 N 
ATOM      2  H   UNL d   1      51.335  35.456  52.917  0.00  0.00     0.189 HD
ENDROOT
BRANCH   1   3
ATOM      3  N   UNL d   1      51.779  34.244  53.539  0.00  0.00    -0.264 N 
ATOM      4  C   UNL d   1      52.510  34.592  53.676  0.00  0.00     0.272 C 
ATOM      5  O   UNL d   1      52.645  35.380  53.462  0.00  0.00    -0.266 OA
ATOM      6  H   UNL d   1      51.646  33.467  53.749  0.00  0.00     0.190 HD
BRANCH   4   7
ATOM      7  C   UNL d   1      53.127  34.162  54.029  0.00  0.00     0.058 A 
ATOM      8  C   UNL d   1      53.505  33.568  53.620  0.00  0.00     0.011 A 
ATOM      9  C   UNL d   1      54.116  33.155  53.991  0.00  0.00     0.035 A 
ATOM     10 BR   UNL d   1      54.516  32.548  53.597  0.00  0.00    -0.049 Br
ATOM     11  C   UNL d   1      54.338  33.344  54.771  0.00  0.00     0.007 A 
ATOM     12  C   UNL d   1      53.952  33.946  55.181  0.00  0.00     0.001 A 
ATOM     13  C   UNL d   1      53.350  34.351  54.809  0.00  0.00     0.005 A 
ENDBRANCH   4   7
ENDBRANCH   1   3
BRANCH   1  14
ATOM     14  C   UNL d   1      50.439  34.361  53.110  0.00  0.00     0.191 C 
ATOM     15  S   UNL d   1      50.349  33.584  52.878  0.00  0.00    -0.039 SA
BRANCH  14  16
ATOM     16  N   UNL d   1      49.761  34.829  53.270  0.00  0.00    -0.331 N 
ATOM     17  H   UNL d   1      49.640  35.128  54.033  0.00  0.00     0.168 HD
BRANCH  16  18
ATOM     18  C   UNL d   1      49.223  34.986  52.672  0.00  0.00     0.058 A 
ATOM     19  C   UNL d   1      48.592  35.495  52.821  0.00  0.00     0.016 A 
ATOM     20  C   UNL d   1      48.503  35.843  53.567  0.00  0.00     0.002 C 
ATOM     21  C   UNL d   1      48.059  35.648  52.224  0.00  0.00     0.001 A 
ATOM     22  C   UNL d   1      48.146  35.305  51.489  0.00  0.00     0.000 A 
ATOM     23  C   UNL d   1      48.768  34.801  51.335  0.00  0.00     0.002 A 
ATOM     24  C   UNL d   1      49.310  34.642  51.936  0.00  0.00     0.017 A 
ENDBRANCH  16  18
ENDBRANCH  14  16
ENDBRANCH   1  14
TORSDOF 5
ENDMDL
MODEL 3
REMARK VINA RESULT:      -6.7      2.924      4.816
REMARK  5 active torsions:
REMARK  status: ('A' for Active; 'I' for Inactive)
REMARK    1  A    between atoms: N_3  and  C_1 
REMARK    2  A    between atoms: N_6  and  C_1 
REMARK       I    between atoms: C_2  and  N_4 
REMARK    3  A    between atoms: C_5  and  C_2 
REMARK    4  A    between atoms: C_7  and  N_3 
REMARK    5  A    between atoms: N_4  and  N_6 
ROOT
ATOM      1  N   UNL d   1      53.600  32.630  54.040  0.00  0.00    -0.273 N 
ATOM      2  H   UNL d   1      54.328  32.780  53.676  0.00  0.00     0.189 HD
ENDROOT
BRANCH   1   3
ATOM      3  N   UNL d   1      53.302  31.863  54.075  0.00  0.00    -0.264 N 
ATOM      4  C   UNL d   1      53.709  31.258  53.699  0.00  0.00     0.272 C 
ATOM      5  O   UNL d   1      54.410  31.416  53.288  0.00  0.00    -0.266 OA
ATOM      6  H   UNL d   1      52.611  31.708  54.480  0.00  0.00     0.190 HD
BRANCH   4   7
ATOM      7  C   UNL d   1      53.426  30.477  53.722  0.00  0.00     0.058 A 
ATOM      8  C   UNL d   1      53.594  29.995  54.357  0.00  0.00     0.011 A 
ATOM      9  C   UNL d   1      53.304  29.222  54.358  0.00  0.00     0.035 A 
ATOM     10 BR   UNL d   1      53.459  28.713  54.990  0.00  0.00    -0.049 Br
ATOM     11  C   UNL d   1      52.847  28.943  53.720  0.00  0.00     0.007 A 
ATOM     12  C   UNL d   1      52.680  29.436  53.079  0.00  0.00     0.001 A 
ATOM     13  C   UNL d   1      52.970  30.198  53.083  0.00  0.00     0.005 A 
ENDBRANCH   4   7
ENDBRANCH   1   3
BRANCH   1  14
ATOM     14  C   UNL d   1      53.167  33.238  54.368  0.00  0.00     0.191 C 
ATOM     15  S   UNL d   1      53.506  33.747  54.908  0.00  0.00    -0.039 SA
BRANCH  14  16
ATOM     16  N   UNL d   1      52.363  33.340  54.148  0.00  0.00    -0.331 N 
ATOM     17  H   UNL d   1      51.770  32.934  54.558  0.00  0.00     0.168 HD
BRANCH  16  18
ATOM     18  C   UNL d   1      52.171  33.842  53.528  0.00  0.00     0.058 A 
ATOM     19  C   UNL d   1      51.415  33.806  53.200  0.00  0.00     0.016 A 
ATOM     20  C   UNL d   1      50.857  33.270  53.495  0.00  0.00     0.002 C 
ATOM     21  C   UNL d   1      51.228  34.306  52.585  0.00  0.00     0.001 A 
ATOM     22  C   UNL d   1      51.778  34.834  52.295  0.00  0.00     0.000 A 
ATOM     23  C   UNL d   1      52.526  34.874  52.614  0.00  0.00     0.002 A 
ATOM     24  C   UNL d   1      52.721  34.371  53.237  0.00  0.00     0.017 A 
ENDBRANCH  16  18
ENDBRANCH  14  16
ENDBRANCH   1  14
TORSDOF 5
ENDMDL
MODEL 4
REMARK VINA RESULT:      -6.6      2.024      2.863
REMARK  5 active torsions:
REMARK  status: ('A' for Active; 'I' for Inactive)
REMARK    1  A    between atoms: N_3  and  C_1 
REMARK    2  A    between atoms: N_6  and  C_1 
REMARK       I    between atoms: C_2  and  N_4 
REMARK    3  A    between atoms: C_5  and  C_2 
REMARK    4  A    between atoms: C_7  and  N_3 
REMARK    5  A    between atoms: N_4  and  N_6 
ROOT
ATOM      1  N   UNL d   1      49.653  35.213  53.250  0.00  0.00    -0.273 N 
ATOM      2  H   UNL d   1      50.091  35.708  53.748  0.00  0.00     0.189 HD
ENDROOT
BRANCH   1   3
ATOM      3  N   UNL d   1      48.847  35.342  53.139  0.00  0.00    -0.264 N 
ATOM      4  C   UNL d   1      48.488  35.975  53.518  0.00  0.00     0.272 C 
ATOM      5  O   UNL d   1      48.929  36.478  54.006  0.00  0.00    -0.266 OA
ATOM      6  H   UNL d   1      48.412  34.847  52.658  0.00  0.00     0.190 HD
BRANCH   4   7
ATOM      7  C   UNL d   1      47.676  36.125  53.420  0.00  0.00     0.058 A 
ATOM      8  C   UNL d   1      47.147  35.938  54.011  0.00  0.00     0.011 A 
ATOM      9  C   UNL d   1      46.346  36.095  53.893  0.00  0.00     0.035 A 
ATOM     10 BR   UNL d   1      45.789  35.915  54.476  0.00  0.00    -0.049 Br
ATOM     11  C   UNL d   1      46.085  36.440  53.181  0.00  0.00     0.007 A 
ATOM     12  C   UNL d   1      46.626  36.627  52.586  0.00  0.00     0.001 A 
ATOM     13  C   UNL d   1      47.415  36.469  52.708  0.00  0.00     0.005 A 
ENDBRANCH   4   7
ENDBRANCH   1   3
BRANCH   1  14
ATOM     14  C   UNL d   1      50.010  34.591  52.862  0.00  0.00     0.191 C 
ATOM     15  S   UNL d   1      49.952  34.517  52.051  0.00  0.00    -0.039 SA
BRANCH  14  16
ATOM     16  N   UNL d   1      50.441  34.021  53.301  0.00  0.00    -0.331 N 
ATOM     17  H   UNL d   1      50.036  33.476  53.776  0.00  0.00     0.168 HD
BRANCH  16  18
ATOM     18  C   UNL d   1      51.260  34.007  53.258  0.00  0.00     0.058 A 
ATOM     19  C   UNL d   1      51.655  33.287  53.333  0.00  0.00     0.016 A 
ATOM     20  C   UNL d   1      51.229  32.587  53.449  0.00  0.00     0.002 C 
ATOM     21  C   UNL d   1      52.468  33.277  53.290  0.00  0.00     0.001 A 
ATOM     22  C   UNL d   1      52.888  33.967  53.175  0.00  0.00     0.000 A 
ATOM     23  C   UNL d   1      52.504  34.681  53.100  0.00  0.00     0.002 A 
ATOM     24  C   UNL d   1      51.680  34.697  53.143  0.00  0.00     0.017 A 
ENDBRANCH  16  18
ENDBRANCH  14  16
ENDBRANCH   1  14
TORSDOF 5
ENDMDL
