MODEL 1
REMARK VINA RESULT:       5.9      0.000      0.000
REMARK  2 active torsions:
REMARK  status: ('A' for Active; 'I' for Inactive)
REMARK    1  A    between atoms: C_6  and  C_3 
REMARK    2  A    between atoms: C_9  and  C_6 
ROOT
ATOM      1  C   UNL d   1      45.055 -13.526  44.892  0.00  0.00     0.011 C 
ENDROOT
BRANCH   1   2
ATOM      2  C   UNL d   1      45.262 -13.008  44.268  0.00  0.00     0.092 A 
ATOM      3  C   UNL d   1      45.812 -12.430  44.262  0.00  0.00     0.288 A 
ATOM      4  N   UNL d   1      45.813 -12.080  43.543  0.00  0.00    -0.163 NA
ATOM      5  O   UNL d   1      46.315 -12.229  44.934  0.00  0.00    -0.265 OA
ATOM      6  C   UNL d   1      45.224 -12.480  43.096  0.00  0.00     0.313 A 
ATOM      7  S   UNL d   1      44.909 -13.043  43.576  0.00  0.00    -0.021 SA
ATOM      8  O   UNL d   1      45.022 -12.304  42.295  0.00  0.00    -0.258 OA
ENDBRANCH   1   2
BRANCH   1   9
ATOM      9  C   UNL d   1      45.247 -14.330  44.907  0.00  0.00     0.001 A 
ATOM     10  C   UNL d   1      46.020 -14.616  44.909  0.00  0.00     0.001 A 
ATOM     11  C   UNL d   1      46.165 -15.406  44.924  0.00  0.00     0.007 A 
ATOM     12  C   UNL d   1      45.526 -15.963  44.939  0.00  0.00     0.035 A 
ATOM     13  C   UNL d   1      44.753 -15.677  44.937  0.00  0.00     0.007 A 
ATOM     14 BR   UNL d   1      45.658 -16.779  44.954  0.00  0.00    -0.049 Br
ATOM     15  C   UNL d   1      44.606 -14.849  44.922  0.00  0.00     0.001 A 
ENDBRANCH   1   9
TORSDOF 2
ENDMDL
