MODEL 1
REMARK VINA RESULT:      -7.0      0.000      0.000
REMARK  3 active torsions:
REMARK  status: ('A' for Active; 'I' for Inactive)
REMARK    1  A    between atoms: S_6  and  C_1 
REMARK    2  A    between atoms: C_8  and  S_6 
REMARK    3  A    between atoms: C_7  and  C_8 
ROOT
ATOM      1  C   UNL d   1     -48.446  14.422  22.828  0.00  0.00     0.194 A 
ATOM      2  N   UNL d   1     -49.173  14.033  22.757  0.00  0.00    -0.220 NA
ATOM      3  N   UNL d   1     -48.590  15.190  23.134  0.00  0.00    -0.220 NA
ATOM      4  C   UNL d   1     -49.766  14.554  23.016  0.00  0.00     0.101 A 
ATOM      5  C   UNL d   1     -49.405  15.268  23.249  0.00  0.00     0.101 A 
ATOM      6  C   UNL d   1     -50.591  14.468  23.069  0.00  0.00     0.021 A 
ATOM      7  C   UNL d   1     -49.883  15.885  23.532  0.00  0.00     0.021 A 
ATOM      8  C   UNL d   1     -50.700  15.795  23.583  0.00  0.00     0.002 A 
ATOM      9  C   UNL d   1     -51.054  15.086  23.351  0.00  0.00     0.002 A 
ENDROOT
BRANCH   1  10
ATOM     10  S   UNL d   1     -47.705  14.115  22.635  0.00  0.00    -0.048 SA
BRANCH  10  11
ATOM     11  C   UNL d   1     -47.352  13.535  23.110  0.00  0.00     0.041 C 
BRANCH  11  12
ATOM     12  C   UNL d   1     -46.617  13.227  22.899  0.00  0.00     0.034 A 
ATOM     13  C   UNL d   1     -46.385  12.492  23.196  0.00  0.00     0.141 A 
ATOM     14  F   UNL d   1     -46.890  12.079  23.697  0.00  0.00    -0.204 F 
ATOM     15  C   UNL d   1     -45.650  12.177  22.989  0.00  0.00     0.030 A 
ATOM     16  C   UNL d   1     -45.155  12.602  22.487  0.00  0.00     0.002 A 
ATOM     17  C   UNL d   1     -45.384  13.335  22.189  0.00  0.00     0.000 A 
ATOM     18  C   UNL d   1     -46.119  13.644  22.400  0.00  0.00     0.003 A 
ENDBRANCH  11  12
ENDBRANCH  10  11
ENDBRANCH   1  10
TORSDOF 3
ENDMDL
MODEL 2
REMARK VINA RESULT:      -6.7      1.296      4.427
REMARK  3 active torsions:
REMARK  status: ('A' for Active; 'I' for Inactive)
REMARK    1  A    between atoms: S_6  and  C_1 
REMARK    2  A    between atoms: C_8  and  S_6 
REMARK    3  A    between atoms: C_7  and  C_8 
ROOT
ATOM      1  C   UNL d   1     -47.613  14.020  22.992  0.00  0.00     0.194 A 
ATOM      2  N   UNL d   1     -46.945  14.225  22.547  0.00  0.00    -0.220 NA
ATOM      3  N   UNL d   1     -47.485  13.257  23.318  0.00  0.00    -0.220 NA
ATOM      4  C   UNL d   1     -46.405  13.594  22.595  0.00  0.00     0.101 A 
ATOM      5  C   UNL d   1     -46.740  12.997  23.072  0.00  0.00     0.101 A 
ATOM      6  C   UNL d   1     -45.651  13.488  22.265  0.00  0.00     0.021 A 
ATOM      7  C   UNL d   1     -46.307  12.303  23.207  0.00  0.00     0.021 A 
ATOM      8  C   UNL d   1     -45.559  12.202  22.877  0.00  0.00     0.002 A 
ATOM      9  C   UNL d   1     -45.231  12.795  22.407  0.00  0.00     0.002 A 
ENDROOT
BRANCH   1  10
ATOM     10  S   UNL d   1     -48.289  14.480  23.100  0.00  0.00    -0.048 SA
BRANCH  10  11
ATOM     11  C   UNL d   1     -48.954  14.371  22.620  0.00  0.00     0.041 C 
BRANCH  11  12
ATOM     12  C   UNL d   1     -49.658  14.762  22.801  0.00  0.00     0.034 A 
ATOM     13  C   UNL d   1     -50.347  14.569  22.389  0.00  0.00     0.141 A 
ATOM     14  F   UNL d   1     -50.322  13.990  21.805  0.00  0.00    -0.204 F 
ATOM     15  C   UNL d   1     -51.054  14.956  22.565  0.00  0.00     0.030 A 
ATOM     16  C   UNL d   1     -51.064  15.534  23.152  0.00  0.00     0.002 A 
ATOM     17  C   UNL d   1     -50.378  15.728  23.565  0.00  0.00     0.000 A 
ATOM     18  C   UNL d   1     -49.675  15.337  23.384  0.00  0.00     0.003 A 
ENDBRANCH  11  12
ENDBRANCH  10  11
ENDBRANCH   1  10
TORSDOF 3
ENDMDL
MODEL 3
REMARK VINA RESULT:      -6.0      1.980      4.814
REMARK  3 active torsions:
REMARK  status: ('A' for Active; 'I' for Inactive)
REMARK    1  A    between atoms: S_6  and  C_1 
REMARK    2  A    between atoms: C_8  and  S_6 
REMARK    3  A    between atoms: C_7  and  C_8 
ROOT
ATOM      1  C   UNL d   1     -46.348  12.248  23.199  0.00  0.00     0.194 A 
ATOM      2  N   UNL d   1     -45.568  12.369  22.948  0.00  0.00    -0.220 NA
ATOM      3  N   UNL d   1     -46.401  11.474  23.521  0.00  0.00    -0.220 NA
ATOM      4  C   UNL d   1     -45.138  11.677  23.113  0.00  0.00     0.101 A 
ATOM      5  C   UNL d   1     -45.653  11.125  23.466  0.00  0.00     0.101 A 
ATOM      6  C   UNL d   1     -44.342  11.480  22.985  0.00  0.00     0.021 A 
ATOM      7  C   UNL d   1     -45.355  10.382  23.685  0.00  0.00     0.021 A 
ATOM      8  C   UNL d   1     -44.565  10.191  23.556  0.00  0.00     0.002 A 
ATOM      9  C   UNL d   1     -44.058  10.740  23.206  0.00  0.00     0.002 A 
ENDROOT
BRANCH   1  10
ATOM     10  S   UNL d   1     -46.970  12.787  23.146  0.00  0.00    -0.048 SA
BRANCH  10  11
ATOM     11  C   UNL d   1     -47.323  12.951  22.415  0.00  0.00     0.041 C 
BRANCH  11  12
ATOM     12  C   UNL d   1     -47.958  13.477  22.377  0.00  0.00     0.034 A 
ATOM     13  C   UNL d   1     -48.481  13.436  21.739  0.00  0.00     0.141 A 
ATOM     14  F   UNL d   1     -48.362  12.872  21.151  0.00  0.00    -0.204 F 
ATOM     15  C   UNL d   1     -49.118  13.958  21.695  0.00  0.00     0.030 A 
ATOM     16  C   UNL d   1     -49.225  14.517  22.290  0.00  0.00     0.002 A 
ATOM     17  C   UNL d   1     -48.705  14.560  22.928  0.00  0.00     0.000 A 
ATOM     18  C   UNL d   1     -48.070  14.035  22.965  0.00  0.00     0.003 A 
ENDBRANCH  11  12
ENDBRANCH  10  11
ENDBRANCH   1  10
TORSDOF 3
ENDMDL
MODEL 4
REMARK VINA RESULT:      -5.9      1.605      2.031
REMARK  3 active torsions:
REMARK  status: ('A' for Active; 'I' for Inactive)
REMARK    1  A    between atoms: S_6  and  C_1 
REMARK    2  A    between atoms: C_8  and  S_6 
REMARK    3  A    between atoms: C_7  and  C_8 
ROOT
ATOM      1  C   UNL d   1     -48.346  12.495  23.356  0.00  0.00     0.194 A 
ATOM      2  N   UNL d   1     -48.874  11.858  23.313  0.00  0.00    -0.220 NA
ATOM      3  N   UNL d   1     -48.790  13.192  23.503  0.00  0.00    -0.220 NA
ATOM      4  C   UNL d   1     -49.640  12.156  23.432  0.00  0.00     0.101 A 
ATOM      5  C   UNL d   1     -49.588  12.980  23.549  0.00  0.00     0.101 A 
ATOM      6  C   UNL d   1     -50.381  11.780  23.448  0.00  0.00     0.021 A 
ATOM      7  C   UNL d   1     -50.285  13.411  23.682  0.00  0.00     0.021 A 
ATOM      8  C   UNL d   1     -51.016  13.034  23.697  0.00  0.00     0.002 A 
ATOM      9  C   UNL d   1     -51.064  12.219  23.580  0.00  0.00     0.002 A 
ENDROOT
BRANCH   1  10
ATOM     10  S   UNL d   1     -47.527  12.459  23.270  0.00  0.00    -0.048 SA
BRANCH  10  11
ATOM     11  C   UNL d   1     -47.093  13.137  23.074  0.00  0.00     0.041 C 
BRANCH  11  12
ATOM     12  C   UNL d   1     -46.325  13.060  22.783  0.00  0.00     0.034 A 
ATOM     13  C   UNL d   1     -45.953  13.715  22.444  0.00  0.00     0.141 A 
ATOM     14  F   UNL d   1     -46.353  14.434  22.403  0.00  0.00    -0.204 F 
ATOM     15  C   UNL d   1     -45.185  13.646  22.151  0.00  0.00     0.030 A 
ATOM     16  C   UNL d   1     -44.797  12.921  22.198  0.00  0.00     0.002 A 
ATOM     17  C   UNL d   1     -45.166  12.266  22.535  0.00  0.00     0.000 A 
ATOM     18  C   UNL d   1     -45.934  12.343  22.827  0.00  0.00     0.003 A 
ENDBRANCH  11  12
ENDBRANCH  10  11
ENDBRANCH   1  10
TORSDOF 3
ENDMDL
MODEL 5
REMARK VINA RESULT:      -5.4      8.896      9.701
REMARK  3 active torsions:
REMARK  status: ('A' for Active; 'I' for Inactive)
REMARK    1  A    between atoms: S_6  and  C_1 
REMARK    2  A    between atoms: C_8  and  S_6 
REMARK    3  A    between atoms: C_7  and  C_8 
ROOT
ATOM      1  C   UNL d   1     -39.504  14.502  20.378  0.00  0.00     0.194 A 
ATOM      2  N   UNL d   1     -38.730  14.217  20.453  0.00  0.00    -0.220 NA
ATOM      3  N   UNL d   1     -39.906  14.356  21.100  0.00  0.00    -0.220 NA
ATOM      4  C   UNL d   1     -38.650  13.897  21.215  0.00  0.00     0.101 A 
ATOM      5  C   UNL d   1     -39.377  13.983  21.614  0.00  0.00     0.101 A 
ATOM      6  C   UNL d   1     -38.006  13.536  21.596  0.00  0.00     0.021 A 
ATOM      7  C   UNL d   1     -39.441  13.704  22.393  0.00  0.00     0.021 A 
ATOM      8  C   UNL d   1     -38.800  13.347  22.767  0.00  0.00     0.002 A 
ATOM      9  C   UNL d   1     -38.083  13.264  22.369  0.00  0.00     0.002 A 
ENDROOT
BRANCH   1  10
ATOM     10  S   UNL d   1     -39.830  14.867  19.714  0.00  0.00    -0.048 SA
BRANCH  10  11
ATOM     11  C   UNL d   1     -40.049  14.419  19.053  0.00  0.00     0.041 C 
BRANCH  11  12
ATOM     12  C   UNL d   1     -40.338  14.799  18.380  0.00  0.00     0.034 A 
ATOM     13  C   UNL d   1     -40.285  14.422  17.647  0.00  0.00     0.141 A 
ATOM     14  F   UNL d   1     -39.944  13.674  17.598  0.00  0.00    -0.204 F 
ATOM     15  C   UNL d   1     -40.572  14.795  16.969  0.00  0.00     0.030 A 
ATOM     16  C   UNL d   1     -40.910  15.543  17.033  0.00  0.00     0.002 A 
ATOM     17  C   UNL d   1     -40.965  15.922  17.763  0.00  0.00     0.000 A 
ATOM     18  C   UNL d   1     -40.676  15.542  18.436  0.00  0.00     0.003 A 
ENDBRANCH  11  12
ENDBRANCH  10  11
ENDBRANCH   1  10
TORSDOF 3
ENDMDL
MODEL 6
REMARK VINA RESULT:      -5.3      8.244     10.347
REMARK  3 active torsions:
REMARK  status: ('A' for Active; 'I' for Inactive)
REMARK    1  A    between atoms: S_6  and  C_1 
REMARK    2  A    between atoms: C_8  and  S_6 
REMARK    3  A    between atoms: C_7  and  C_8 
ROOT
ATOM      1  C   UNL d   1     -39.575  14.343  18.242  0.00  0.00     0.194 A 
ATOM      2  N   UNL d   1     -39.166  13.634  18.116  0.00  0.00    -0.220 NA
ATOM      3  N   UNL d   1     -39.496  14.815  17.552  0.00  0.00    -0.220 NA
ATOM      4  C   UNL d   1     -38.835  13.663  17.355  0.00  0.00     0.101 A 
ATOM      5  C   UNL d   1     -39.039  14.393  17.007  0.00  0.00     0.101 A 
ATOM      6  C   UNL d   1     -38.373  13.117  16.933  0.00  0.00     0.021 A 
ATOM      7  C   UNL d   1     -38.772  14.560  16.239  0.00  0.00     0.021 A 
ATOM      8  C   UNL d   1     -38.314  14.015  15.825  0.00  0.00     0.002 A 
ATOM      9  C   UNL d   1     -38.115  13.294  16.173  0.00  0.00     0.002 A 
ENDROOT
BRANCH   1  10
ATOM     10  S   UNL d   1     -39.990  14.555  18.922  0.00  0.00    -0.048 SA
BRANCH  10  11
ATOM     11  C   UNL d   1     -39.591  14.862  19.580  0.00  0.00     0.041 C 
BRANCH  11  12
ATOM     12  C   UNL d   1     -40.020  15.215  20.190  0.00  0.00     0.034 A 
ATOM     13  C   UNL d   1     -39.620  15.516  20.846  0.00  0.00     0.141 A 
ATOM     14  F   UNL d   1     -38.799  15.459  20.883  0.00  0.00    -0.204 F 
ATOM     15  C   UNL d   1     -40.042  15.872  21.460  0.00  0.00     0.030 A 
ATOM     16  C   UNL d   1     -40.862  15.922  21.409  0.00  0.00     0.002 A 
ATOM     17  C   UNL d   1     -41.265  15.623  20.756  0.00  0.00     0.000 A 
ATOM     18  C   UNL d   1     -40.836  15.269  20.146  0.00  0.00     0.003 A 
ENDBRANCH  11  12
ENDBRANCH  10  11
ENDBRANCH   1  10
TORSDOF 3
ENDMDL
MODEL 7
REMARK VINA RESULT:      -5.3      8.249      9.963
REMARK  3 active torsions:
REMARK  status: ('A' for Active; 'I' for Inactive)
REMARK    1  A    between atoms: S_6  and  C_1 
REMARK    2  A    between atoms: C_8  and  S_6 
REMARK    3  A    between atoms: C_7  and  C_8 
ROOT
ATOM      1  C   UNL d   1     -39.576  14.515  19.171  0.00  0.00     0.194 A 
ATOM      2  N   UNL d   1     -40.391  14.592  19.295  0.00  0.00    -0.220 NA
ATOM      3  N   UNL d   1     -39.179  14.914  19.794  0.00  0.00    -0.220 NA
ATOM      4  C   UNL d   1     -40.502  15.034  19.989  0.00  0.00     0.101 A 
ATOM      5  C   UNL d   1     -39.752  15.233  20.297  0.00  0.00     0.101 A 
ATOM      6  C   UNL d   1     -41.191  15.282  20.381  0.00  0.00     0.021 A 
ATOM      7  C   UNL d   1     -39.712  15.679  20.996  0.00  0.00     0.021 A 
ATOM      8  C   UNL d   1     -40.398  15.922  21.380  0.00  0.00     0.002 A 
ATOM      9  C   UNL d   1     -41.137  15.724  21.073  0.00  0.00     0.002 A 
ENDROOT
BRANCH   1  10
ATOM     10  S   UNL d   1     -39.210  14.118  18.547  0.00  0.00    -0.048 SA
BRANCH  10  11
ATOM     11  C   UNL d   1     -39.163  14.466  17.797  0.00  0.00     0.041 C 
BRANCH  11  12
ATOM     12  C   UNL d   1     -38.753  14.080  17.193  0.00  0.00     0.034 A 
ATOM     13  C   UNL d   1     -38.706  14.431  16.447  0.00  0.00     0.141 A 
ATOM     14  F   UNL d   1     -39.067  15.159  16.317  0.00  0.00    -0.204 F 
ATOM     15  C   UNL d   1     -38.298  14.051  15.838  0.00  0.00     0.030 A 
ATOM     16  C   UNL d   1     -37.941  13.323  15.984  0.00  0.00     0.002 A 
ATOM     17  C   UNL d   1     -37.987  12.971  16.727  0.00  0.00     0.000 A 
ATOM     18  C   UNL d   1     -38.396  13.356  17.331  0.00  0.00     0.003 A 
ENDBRANCH  11  12
ENDBRANCH  10  11
ENDBRANCH   1  10
TORSDOF 3
ENDMDL
MODEL 8
REMARK VINA RESULT:      -5.2      9.071      9.503
REMARK  3 active torsions:
REMARK  status: ('A' for Active; 'I' for Inactive)
REMARK    1  A    between atoms: S_6  and  C_1 
REMARK    2  A    between atoms: C_8  and  S_6 
REMARK    3  A    between atoms: C_7  and  C_8 
ROOT
ATOM      1  C   UNL d   1     -39.509  14.463  19.111  0.00  0.00     0.194 A 
ATOM      2  N   UNL d   1     -40.168  14.180  18.697  0.00  0.00    -0.220 NA
ATOM      3  N   UNL d   1     -39.252  15.172  18.740  0.00  0.00    -0.220 NA
ATOM      4  C   UNL d   1     -40.321  14.707  18.074  0.00  0.00     0.101 A 
ATOM      5  C   UNL d   1     -39.756  15.319  18.101  0.00  0.00     0.101 A 
ATOM      6  C   UNL d   1     -40.906  14.708  17.484  0.00  0.00     0.021 A 
ATOM      7  C   UNL d   1     -39.790  15.922  17.531  0.00  0.00     0.021 A 
ATOM      8  C   UNL d   1     -40.371  15.918  16.949  0.00  0.00     0.002 A 
ATOM      9  C   UNL d   1     -40.929  15.310  16.925  0.00  0.00     0.002 A 
ENDROOT
BRANCH   1  10
ATOM     10  S   UNL d   1     -39.159  14.116  19.773  0.00  0.00    -0.048 SA
BRANCH  10  11
ATOM     11  C   UNL d   1     -39.339  14.386  20.534  0.00  0.00     0.041 C 
BRANCH  11  12
ATOM     12  C   UNL d   1     -38.997  14.018  21.189  0.00  0.00     0.034 A 
ATOM     13  C   UNL d   1     -39.320  14.143  21.939  0.00  0.00     0.141 A 
ATOM     14  F   UNL d   1     -39.977  14.633  22.022  0.00  0.00    -0.204 F 
ATOM     15  C   UNL d   1     -38.984  13.779  22.599  0.00  0.00     0.030 A 
ATOM     16  C   UNL d   1     -38.327  13.291  22.501  0.00  0.00     0.002 A 
ATOM     17  C   UNL d   1     -38.003  13.164  21.754  0.00  0.00     0.000 A 
ATOM     18  C   UNL d   1     -38.344  13.532  21.099  0.00  0.00     0.003 A 
ENDBRANCH  11  12
ENDBRANCH  10  11
ENDBRANCH   1  10
TORSDOF 3
ENDMDL
