MODEL 1
REMARK VINA RESULT:      -4.2      0.000      0.000
REMARK  3 active torsions:
REMARK  status: ('A' for Active; 'I' for Inactive)
REMARK    1  A    between atoms: S_15  and  C_4 
REMARK    2  A    between atoms: C_9  and  C_16 
REMARK    3  A    between atoms: C_16  and  S_15 
ROOT
ATOM      1  C   UNL d   1      58.871  -0.792  29.823  0.00  0.00     0.141 A 
ATOM      2  C   UNL d   1      59.340  -1.163  29.254  0.00  0.00     0.110 A 
ATOM      3  O   UNL d   1      59.198  -0.052  29.981  0.00  0.00    -0.303 OA
ATOM      4  C   UNL d   1      58.205  -1.177  30.123  0.00  0.00     0.137 A 
ATOM      5  N   UNL d   1      58.009  -1.933  29.855  0.00  0.00    -0.218 NA
ATOM      6  C   UNL d   1      59.959  -0.651  29.061  0.00  0.00     0.043 A 
ATOM      7  N   UNL d   1      59.143  -1.918  28.987  0.00  0.00    -0.225 NA
ATOM      8  C   UNL d   1      59.871   0.035  29.510  0.00  0.00     0.102 A 
ATOM      9  C   UNL d   1      58.479  -2.303  29.286  0.00  0.00     0.163 A 
ATOM     10  C   UNL d   1      60.589  -0.722  28.535  0.00  0.00     0.004 A 
ATOM     11  C   UNL d   1      60.415   0.650  29.432  0.00  0.00     0.025 A 
ATOM     12  C   UNL d   1      58.282  -3.057  29.019  0.00  0.00     0.042 C 
ATOM     13  C   UNL d   1      61.133  -0.107  28.457  0.00  0.00     0.000 A 
ATOM     14  C   UNL d   1      61.045   0.579  28.906  0.00  0.00     0.002 A 
ENDROOT
BRANCH   4  15
ATOM     15  S   UNL d   1      57.735  -0.807  30.692  0.00  0.00    -0.062 SA
BRANCH  15  16
ATOM     16  C   UNL d   1      57.147  -1.234  31.082  0.00  0.00     0.076 C 
BRANCH  16  17
ATOM     17  C   UNL d   1      56.732  -0.889  31.706  0.00  0.00     0.169 A 
ATOM     18  N   UNL d   1      56.500  -1.268  32.402  0.00  0.00    -0.225 NA
ATOM     19  C   UNL d   1      56.101  -0.718  32.869  0.00  0.00     0.101 A 
ATOM     20  C   UNL d   1      55.748  -0.777  33.613  0.00  0.00     0.021 A 
ATOM     21  C   UNL d   1      56.085   0.001  32.463  0.00  0.00     0.101 A 
ATOM     22  C   UNL d   1      55.381  -0.120  33.950  0.00  0.00     0.002 A 
ATOM     23  C   UNL d   1      55.366   0.598  33.544  0.00  0.00     0.002 A 
ATOM     24  C   UNL d   1      55.718   0.659  32.800  0.00  0.00     0.021 A 
ATOM     25  N   UNL d   1      56.476  -0.105  31.744  0.00  0.00    -0.225 NA
ENDBRANCH  16  17
ENDBRANCH  15  16
ENDBRANCH   4  15
TORSDOF 3
ENDMDL
