MODEL 1
REMARK VINA RESULT:      84.5      0.000      0.000
REMARK  3 active torsions:
REMARK  status: ('A' for Active; 'I' for Inactive)
REMARK    1  A    between atoms: N_10  and  C_3 
REMARK    2  A    between atoms: C_11  and  C_5 
REMARK    3  A    between atoms: C_13  and  N_10 
ROOT
ATOM      1  N   UNL d   1     -50.886  25.711  33.555  0.00  0.00    -0.184 N 
ATOM      2  C   UNL d   1     -51.671  25.417  33.536  0.00  0.00     0.168 A 
ATOM      3  C   UNL d   1     -50.755  26.528  33.556  0.00  0.00     0.217 A 
ATOM      4  N   UNL d   1     -50.388  24.382  33.572  0.00  0.00    -0.162 NA
ATOM      5  C   UNL d   1     -51.800  24.620  33.535  0.00  0.00     0.055 A 
ATOM      6  N   UNL d   1     -52.298  25.950  33.518  0.00  0.00    -0.227 NA
ATOM      7  C   UNL d   1     -51.383  27.041  33.539  0.00  0.00     0.066 A 
ATOM      8  C   UNL d   1     -51.161  24.092  33.553  0.00  0.00     0.104 A 
ATOM      9  C   UNL d   1     -52.172  26.755  33.519  0.00  0.00     0.087 A 
ATOM     10  C   UNL d   1     -51.429  27.851  33.535  0.00  0.00     0.006 A 
ATOM     11  C   UNL d   1     -51.301  23.286  33.551  0.00  0.00     0.023 C 
ATOM     12  C   UNL d   1     -52.683  27.395  33.505  0.00  0.00     0.019 A 
ATOM     13  C   UNL d   1     -52.214  28.080  33.515  0.00  0.00     0.002 A 
ENDROOT
BRANCH   3  14
ATOM     14  N   UNL d   1     -49.963  26.828  33.576  0.00  0.00    -0.383 NA
BRANCH  14  15
ATOM     15  C   UNL d   1     -49.175  27.130  33.598  0.00  0.00     0.134 A 
ATOM     16  C   UNL d   1     -49.036  27.936  33.389  0.00  0.00     0.032 A 
ATOM     17  C   UNL d   1     -48.256  28.243  33.409  0.00  0.00     0.003 A 
ATOM     18  C   UNL d   1     -47.602  27.747  33.640  0.00  0.00     0.000 A 
ATOM     19  C   UNL d   1     -47.756  26.945  33.846  0.00  0.00     0.003 A 
ATOM     20  C   UNL d   1     -48.541  26.635  33.826  0.00  0.00     0.032 A 
ENDBRANCH  14  15
ENDBRANCH   3  14
BRANCH   5  21
ATOM     21  C   UNL d   1     -52.568  24.332  33.516  0.00  0.00     0.004 A 
ATOM     22  C   UNL d   1     -52.716  23.538  33.666  0.00  0.00     0.000 A 
ATOM     23  C   UNL d   1     -53.480  23.247  33.648  0.00  0.00     0.000 A 
ATOM     24  C   UNL d   1     -54.108  23.755  33.478  0.00  0.00     0.000 A 
ATOM     25  C   UNL d   1     -53.971  24.540  33.329  0.00  0.00     0.000 A 
ATOM     26  C   UNL d   1     -53.193  24.832  33.348  0.00  0.00     0.000 A 
ENDBRANCH   5  21
TORSDOF 3
ENDMDL
