MODEL 1
REMARK VINA RESULT:      34.2      0.000      0.000
REMARK  2 active torsions:
REMARK  status: ('A' for Active; 'I' for Inactive)
REMARK       I    between atoms: C_3  and  N_1 
REMARK    1  A    between atoms: C_7  and  C_3 
REMARK    2  A    between atoms: O_15  and  C_11 
ROOT
ATOM      1  N   UNL d   1     -55.863 -99.982 -44.206  0.00  0.00    -0.195 N 
ATOM      2  N   UNL d   1     -56.093-100.606 -44.708  0.00  0.00    -0.163 NA
ATOM      3  C   UNL d   1     -56.287 -99.303 -44.017  0.00  0.00     0.280 C 
ATOM      4  C   UNL d   1     -55.144-100.133 -43.919  0.00  0.00     0.088 A 
ATOM      5  C   UNL d   1     -54.880-100.862 -44.223  0.00  0.00     0.040 A 
ATOM      6  C   UNL d   1     -55.470-101.147 -44.709  0.00  0.00     0.103 A 
ATOM      7  O   UNL d   1     -55.959 -98.756 -43.511  0.00  0.00    -0.265 OA
ATOM      8  C   UNL d   1     -54.711 -99.632 -43.386  0.00  0.00     0.021 C 
ATOM      9  C   UNL d   1     -55.434-101.875 -45.132  0.00  0.00     0.022 C 
ENDROOT
BRANCH   3  10
ATOM     10  C   UNL d   1     -57.045 -99.163 -44.332  0.00  0.00     0.058 A 
ATOM     11  C   UNL d   1     -57.709 -99.252 -43.852  0.00  0.00     0.007 A 
ATOM     12  C   UNL d   1     -58.462 -99.116 -44.151  0.00  0.00     0.024 A 
ATOM     13  C   UNL d   1     -58.555 -98.891 -44.934  0.00  0.00     0.094 A 
ATOM     14  C   UNL d   1     -57.895 -98.800 -45.421  0.00  0.00     0.024 A 
ATOM     15  C   UNL d   1     -57.140 -98.933 -45.132  0.00  0.00     0.007 A 
BRANCH  13  16
ATOM     16  O   UNL d   1     -59.325 -98.757 -45.224  0.00  0.00    -0.328 OA
ATOM     17  C   UNL d   1     -59.476 -98.805 -46.046  0.00  0.00     0.181 C 
ENDBRANCH  13  16
ENDBRANCH   3  10
TORSDOF 2
ENDMDL
MODEL 2
REMARK VINA RESULT:      35.1      2.946      4.650
REMARK  2 active torsions:
REMARK  status: ('A' for Active; 'I' for Inactive)
REMARK       I    between atoms: C_3  and  N_1 
REMARK    1  A    between atoms: C_7  and  C_3 
REMARK    2  A    between atoms: O_15  and  C_11 
ROOT
ATOM      1  N   UNL d   1     -54.800-101.289 -43.700  0.00  0.00    -0.195 N 
ATOM      2  N   UNL d   1     -54.834-100.529 -43.362  0.00  0.00    -0.163 NA
ATOM      3  C   UNL d   1     -54.759-102.012 -43.311  0.00  0.00     0.280 C 
ATOM      4  C   UNL d   1     -54.813-101.224 -44.486  0.00  0.00     0.088 A 
ATOM      5  C   UNL d   1     -54.856-100.417 -44.688  0.00  0.00     0.040 A 
ATOM      6  C   UNL d   1     -54.869 -99.995 -43.991  0.00  0.00     0.103 A 
ATOM      7  O   UNL d   1     -54.729-102.699 -43.748  0.00  0.00    -0.265 OA
ATOM      8  C   UNL d   1     -54.786-101.872 -45.034  0.00  0.00     0.021 C 
ATOM      9  C   UNL d   1     -54.910 -99.155 -43.938  0.00  0.00     0.022 C 
ENDROOT
BRANCH   3  10
ATOM     10  C   UNL d   1     -54.746-102.059 -42.480  0.00  0.00     0.058 A 
ATOM     11  C   UNL d   1     -54.757-102.797 -42.113  0.00  0.00     0.007 A 
ATOM     12  C   UNL d   1     -54.745-102.856 -41.293  0.00  0.00     0.024 A 
ATOM     13  C   UNL d   1     -54.723-102.175 -40.836  0.00  0.00     0.094 A 
ATOM     14  C   UNL d   1     -54.712-101.432 -41.196  0.00  0.00     0.024 A 
ATOM     15  C   UNL d   1     -54.723-101.363 -42.013  0.00  0.00     0.007 A 
BRANCH  13  16
ATOM     16  O   UNL d   1     -54.711-102.249 -40.005  0.00  0.00    -0.328 OA
ATOM     17  C   UNL d   1     -55.170-102.840 -39.631  0.00  0.00     0.181 C 
ENDBRANCH  13  16
ENDBRANCH   3  10
TORSDOF 2
ENDMDL
