MODEL 1
REMARK VINA RESULT:      -4.6      0.000      0.000
REMARK  4 active torsions:
REMARK  status: ('A' for Active; 'I' for Inactive)
REMARK    1  A    between atoms: N_2  and  C_1 
REMARK    2  A    between atoms: N_3  and  C_1 
REMARK       I    between atoms: C_4  and  N_2 
REMARK    3  A    between atoms: C_5  and  N_3 
REMARK    4  A    between atoms: C_9  and  C_4 
ROOT
ATOM      1  C   UNL d   1      57.799  -0.054  30.549  0.00  0.00     0.276 C 
ATOM      2  S   UNL d   1      57.764   0.681  30.177  0.00  0.00    -0.023 SA
ENDROOT
BRANCH   1   3
ATOM      3  N   UNL d   1      58.345  -0.615  30.289  0.00  0.00    -0.168 NA
ATOM      4  C   UNL d   1      58.500  -0.710  29.482  0.00  0.00     0.282 C 
ATOM      5  O   UNL d   1      58.102  -0.235  28.936  0.00  0.00    -0.265 OA
BRANCH   4   6
ATOM      6  C   UNL d   1      59.047  -1.273  29.225  0.00  0.00     0.058 C 
ATOM      7  C   UNL d   1      59.821  -1.055  29.102  0.00  0.00     0.005 C 
ATOM      8  C   UNL d   1      58.803  -2.049  29.096  0.00  0.00     0.005 C 
ENDBRANCH   4   6
ENDBRANCH   1   3
BRANCH   1   9
ATOM      9  N   UNL d   1      57.293  -0.231  31.179  0.00  0.00    -0.353 NA
BRANCH   9  10
ATOM     10  C   UNL d   1      56.788  -0.407  31.804  0.00  0.00     0.216 A 
ATOM     11  N   UNL d   1      56.599  -1.196  31.968  0.00  0.00    -0.215 NA
ATOM     12  C   UNL d   1      56.094  -1.369  32.594  0.00  0.00     0.102 A 
ATOM     13  C   UNL d   1      55.780  -0.759  33.053  0.00  0.00     0.021 A 
ATOM     14  C   UNL d   1      55.968   0.019  32.890  0.00  0.00     0.006 A 
ATOM     15  C   UNL d   1      56.473   0.207  32.265  0.00  0.00     0.052 A 
ENDBRANCH   9  10
ENDBRANCH   1   9
TORSDOF 4
ENDMDL
MODEL 2
REMARK VINA RESULT:      -4.3      1.506      3.909
REMARK  4 active torsions:
REMARK  status: ('A' for Active; 'I' for Inactive)
REMARK    1  A    between atoms: N_2  and  C_1 
REMARK    2  A    between atoms: N_3  and  C_1 
REMARK       I    between atoms: C_4  and  N_2 
REMARK    3  A    between atoms: C_5  and  N_3 
REMARK    4  A    between atoms: C_9  and  C_4 
ROOT
ATOM      1  C   UNL d   1      57.443   0.173  31.682  0.00  0.00     0.276 C 
ATOM      2  S   UNL d   1      57.816   0.682  32.214  0.00  0.00    -0.023 SA
ENDROOT
BRANCH   1   3
ATOM      3  N   UNL d   1      56.802  -0.280  31.935  0.00  0.00    -0.168 NA
ATOM      4  C   UNL d   1      56.543  -0.244  32.719  0.00  0.00     0.282 C 
ATOM      5  O   UNL d   1      56.933   0.254  33.251  0.00  0.00    -0.265 OA
BRANCH   4   6
ATOM      6  C   UNL d   1      55.900  -0.699  32.969  0.00  0.00     0.058 C 
ATOM      7  C   UNL d   1      55.285  -0.344  33.365  0.00  0.00     0.005 C 
ATOM      8  C   UNL d   1      55.891  -1.508  32.814  0.00  0.00     0.005 C 
ENDBRANCH   4   6
ENDBRANCH   1   3
BRANCH   1   9
ATOM      9  N   UNL d   1      57.707   0.115  30.900  0.00  0.00    -0.353 NA
BRANCH   9  10
ATOM     10  C   UNL d   1      57.971   0.058  30.124  0.00  0.00     0.216 A 
ATOM     11  N   UNL d   1      57.782   0.655  29.582  0.00  0.00    -0.215 NA
ATOM     12  C   UNL d   1      58.048   0.595  28.805  0.00  0.00     0.102 A 
ATOM     13  C   UNL d   1      58.499  -0.056  28.572  0.00  0.00     0.021 A 
ATOM     14  C   UNL d   1      58.684  -0.643  29.107  0.00  0.00     0.006 A 
ATOM     15  C   UNL d   1      58.425  -0.596  29.889  0.00  0.00     0.052 A 
ENDBRANCH   9  10
ENDBRANCH   1   9
TORSDOF 4
ENDMDL
MODEL 3
REMARK VINA RESULT:      -4.0      2.113      4.313
REMARK  4 active torsions:
REMARK  status: ('A' for Active; 'I' for Inactive)
REMARK    1  A    between atoms: N_2  and  C_1 
REMARK    2  A    between atoms: N_3  and  C_1 
REMARK       I    between atoms: C_4  and  N_2 
REMARK    3  A    between atoms: C_5  and  N_3 
REMARK    4  A    between atoms: C_9  and  C_4 
ROOT
ATOM      1  C   UNL d   1      56.497  -0.424  32.426  0.00  0.00     0.276 C 
ATOM      2  S   UNL d   1      56.348  -1.231  32.505  0.00  0.00    -0.023 SA
ENDROOT
BRANCH   1   3
ATOM      3  N   UNL d   1      56.133   0.109  32.939  0.00  0.00    -0.168 NA
ATOM      4  C   UNL d   1      55.479  -0.121  33.391  0.00  0.00     0.282 C 
ATOM      5  O   UNL d   1      55.193  -0.892  33.324  0.00  0.00    -0.265 OA
BRANCH   4   6
ATOM      6  C   UNL d   1      55.117   0.416  33.904  0.00  0.00     0.058 C 
ATOM      7  C   UNL d   1      54.364   0.678  33.747  0.00  0.00     0.005 C 
ATOM      8  C   UNL d   1      55.523   0.679  34.571  0.00  0.00     0.005 C 
ENDBRANCH   4   6
ENDBRANCH   1   3
BRANCH   1   9
ATOM      9  N   UNL d   1      57.008  -0.147  31.836  0.00  0.00    -0.353 NA
BRANCH   9  10
ATOM     10  C   UNL d   1      57.515   0.130  31.252  0.00  0.00     0.216 A 
ATOM     11  N   UNL d   1      57.254   0.164  30.467  0.00  0.00    -0.215 NA
ATOM     12  C   UNL d   1      57.764   0.442  29.883  0.00  0.00     0.102 A 
ATOM     13  C   UNL d   1      58.528   0.682  30.082  0.00  0.00     0.021 A 
ATOM     14  C   UNL d   1      58.784   0.647  30.856  0.00  0.00     0.006 A 
ATOM     15  C   UNL d   1      58.283   0.371  31.452  0.00  0.00     0.052 A 
ENDBRANCH   9  10
ENDBRANCH   1   9
TORSDOF 4
ENDMDL
