MODEL 1
REMARK VINA RESULT:      -3.6      0.000      0.000
REMARK  7 active torsions:
REMARK  status: ('A' for Active; 'I' for Inactive)
REMARK    1  A    between atoms: N_3  and  C_1 
REMARK       I    between atoms: C_7  and  N_3 
REMARK    2  A    between atoms: C_11  and  N_3 
REMARK    3  A    between atoms: S_5  and  C_10 
REMARK    4  A    between atoms: C_14  and  S_5 
REMARK    5  A    between atoms: C_9  and  C_7 
REMARK    6  A    between atoms: C_10  and  C_9 
REMARK    7  A    between atoms: C_18  and  C_11 
ROOT
ATOM      1  N   UNL d   1      57.721  -0.278  30.905  0.00  0.00    -0.253 N 
ATOM      2  C   UNL d   1      57.813  -1.005  30.498  0.00  0.00     0.267 C 
ATOM      3  O   UNL d   1      57.339  -1.645  30.701  0.00  0.00    -0.267 OA
ENDROOT
BRANCH   1   4
ATOM      4  C   UNL d   1      57.158  -0.214  31.503  0.00  0.00     0.182 A 
ATOM      5  N   UNL d   1      57.004  -0.775  32.096  0.00  0.00    -0.219 NA
ATOM      6  C   UNL d   1      56.394  -0.483  32.577  0.00  0.00     0.117 A 
ATOM      7  C   UNL d   1      56.030  -0.805  33.234  0.00  0.00     0.158 A 
ATOM      8  C   UNL d   1      56.172   0.250  32.287  0.00  0.00     0.052 A 
ATOM      9  F   UNL d   1      56.249  -1.537  33.526  0.00  0.00    -0.203 F 
ATOM     10  C   UNL d   1      55.435  -0.385  33.603  0.00  0.00     0.031 A 
ATOM     11  C   UNL d   1      55.204   0.355  33.318  0.00  0.00     0.003 A 
ATOM     12  C   UNL d   1      55.577   0.671  32.657  0.00  0.00     0.008 A 
ATOM     13  S   UNL d   1      56.639   0.423  31.624  0.00  0.00    -0.048 SA
ENDBRANCH   1   4
BRANCH   1  14
ATOM     14  C   UNL d   1      58.193   0.367  30.707  0.00  0.00     0.086 C 
BRANCH  14  15
ATOM     15  C   UNL d   1      58.924   0.472  31.074  0.00  0.00     0.037 A 
ATOM     16  C   UNL d   1      59.613   0.491  30.625  0.00  0.00     0.100 A 
ATOM     17  N   UNL d   1      60.344   0.595  30.992  0.00  0.00    -0.242 NA
ATOM     18  C   UNL d   1      60.387   0.682  31.809  0.00  0.00     0.099 A 
ATOM     19  C   UNL d   1      59.696   0.664  32.263  0.00  0.00     0.021 A 
ATOM     20  C   UNL d   1      58.965   0.559  31.896  0.00  0.00     0.005 A 
ENDBRANCH  14  15
ENDBRANCH   1  14
BRANCH   2  21
ATOM     21  C   UNL d   1      58.374  -1.067  29.903  0.00  0.00     0.073 C 
BRANCH  21  22
ATOM     22  C   UNL d   1      58.314  -1.678  29.346  0.00  0.00     0.104 C 
BRANCH  22  23
ATOM     23  S   UNL d   1      58.988  -2.102  29.123  0.00  0.00     0.211 S 
ATOM     24  O   UNL d   1      58.864  -2.639  29.755  0.00  0.00    -0.217 OA
ATOM     25  O   UNL d   1      59.113  -1.569  28.495  0.00  0.00    -0.217 OA
BRANCH  23  26
ATOM     26  C   UNL d   1      59.665  -2.529  28.901  0.00  0.00     0.088 A 
ATOM     27  C   UNL d   1      60.355  -2.125  28.697  0.00  0.00     0.011 A 
ATOM     28  C   UNL d   1      61.028  -2.544  28.477  0.00  0.00     0.001 A 
ATOM     29  C   UNL d   1      61.011  -3.368  28.461  0.00  0.00     0.000 A 
ATOM     30  C   UNL d   1      60.331  -3.770  28.662  0.00  0.00     0.001 A 
ATOM     31  C   UNL d   1      59.650  -3.355  28.884  0.00  0.00     0.011 A 
ENDBRANCH  23  26
ENDBRANCH  22  23
ENDBRANCH  21  22
ENDBRANCH   2  21
TORSDOF 7
ENDMDL
