MODEL 1
REMARK VINA RESULT:      -3.6      0.000      0.000
REMARK  4 active torsions:
REMARK  status: ('A' for Active; 'I' for Inactive)
REMARK    1  A    between atoms: N_2  and  S_1 
REMARK    2  A    between atoms: C_3  and  S_1 
REMARK    3  A    between atoms: C_6  and  N_2 
REMARK    4  A    between atoms: C_13  and  N_2 
ROOT
ATOM      1  S   UNL d   1      57.819  -0.104  30.607  0.00  0.00     0.271 S 
ATOM      2  O   UNL d   1      57.351  -0.600  30.289  0.00  0.00    -0.200 OA
ATOM      3  O   UNL d   1      58.314   0.434  30.982  0.00  0.00    -0.200 OA
ENDROOT
BRANCH   1   4
ATOM      4  N   UNL d   1      58.241   0.001  29.898  0.00  0.00    -0.231 N 
BRANCH   4   5
ATOM      5  C   UNL d   1      58.782  -0.575  29.651  0.00  0.00     0.075 A 
ATOM      6  C   UNL d   1      59.598  -0.430  29.724  0.00  0.00     0.018 A 
ATOM      7  C   UNL d   1      60.146  -1.004  29.478  0.00  0.00     0.002 A 
ATOM      8  C   UNL d   1      59.878  -1.725  29.159  0.00  0.00     0.000 A 
ATOM      9  C   UNL d   1      59.060  -1.867  29.088  0.00  0.00     0.002 A 
ATOM     10  C   UNL d   1      58.512  -1.293  29.333  0.00  0.00     0.018 A 
ENDBRANCH   4   5
BRANCH   4  11
ATOM     11  C   UNL d   1      58.118   0.682  29.440  0.00  0.00     0.092 C 
ATOM     12  C   UNL d   1      57.716   0.632  28.722  0.00  0.00     0.021 C 
ENDBRANCH   4  11
ENDBRANCH   1   4
BRANCH   1  13
ATOM     13  C   UNL d   1      57.456  -0.178  31.263  0.00  0.00     0.104 A 
ATOM     14  C   UNL d   1      57.045  -0.800  31.408  0.00  0.00     0.015 A 
ATOM     15  C   UNL d   1      56.689  -0.866  32.060  0.00  0.00     0.022 A 
ATOM     16  C   UNL d   1      56.733  -0.325  32.575  0.00  0.00     0.103 A 
ATOM     17  C   UNL d   1      57.136   0.292  32.442  0.00  0.00     0.022 A 
ATOM     18  N   UNL d   1      56.370  -0.402  33.229  0.00  0.00    -0.148 N 
ATOM     19  C   UNL d   1      57.499   0.370  31.787  0.00  0.00     0.015 A 
ENDBRANCH   1  13
TORSDOF 4
ENDMDL
MODEL 2
REMARK VINA RESULT:      -3.6      0.451      1.012
REMARK  4 active torsions:
REMARK  status: ('A' for Active; 'I' for Inactive)
REMARK    1  A    between atoms: N_2  and  S_1 
REMARK    2  A    between atoms: C_3  and  S_1 
REMARK    3  A    between atoms: C_6  and  N_2 
REMARK    4  A    between atoms: C_13  and  N_2 
ROOT
ATOM      1  S   UNL d   1      58.137   0.055  30.285  0.00  0.00     0.271 S 
ATOM      2  O   UNL d   1      57.616  -0.419  30.023  0.00  0.00    -0.200 OA
ATOM      3  O   UNL d   1      58.691   0.574  30.599  0.00  0.00    -0.200 OA
ENDROOT
BRANCH   1   4
ATOM      4  N   UNL d   1      58.550   0.050  29.562  0.00  0.00    -0.231 N 
BRANCH   4   5
ATOM      5  C   UNL d   1      59.054  -0.582  29.380  0.00  0.00     0.075 A 
ATOM      6  C   UNL d   1      58.740  -1.267  29.026  0.00  0.00     0.018 A 
ATOM      7  C   UNL d   1      59.240  -1.905  28.841  0.00  0.00     0.002 A 
ATOM      8  C   UNL d   1      60.054  -1.858  29.010  0.00  0.00     0.000 A 
ATOM      9  C   UNL d   1      60.364  -1.171  29.364  0.00  0.00     0.002 A 
ATOM     10  C   UNL d   1      59.864  -0.533  29.549  0.00  0.00     0.018 A 
ENDBRANCH   4   5
BRANCH   4  11
ATOM     11  C   UNL d   1      58.457   0.678  29.029  0.00  0.00     0.092 C 
ATOM     12  C   UNL d   1      57.850   0.661  28.470  0.00  0.00     0.021 C 
ENDBRANCH   4  11
ENDBRANCH   1   4
BRANCH   1  13
ATOM     13  C   UNL d   1      57.784   0.080  30.950  0.00  0.00     0.104 A 
ATOM     14  C   UNL d   1      57.966   0.610  31.463  0.00  0.00     0.015 A 
ATOM     15  C   UNL d   1      57.613   0.628  32.119  0.00  0.00     0.022 A 
ATOM     16  C   UNL d   1      57.080   0.128  32.279  0.00  0.00     0.103 A 
ATOM     17  C   UNL d   1      56.893  -0.399  31.780  0.00  0.00     0.022 A 
ATOM     18  N   UNL d   1      56.729   0.155  32.944  0.00  0.00    -0.148 N 
ATOM     19  C   UNL d   1      57.243  -0.427  31.114  0.00  0.00     0.015 A 
ENDBRANCH   1  13
TORSDOF 4
ENDMDL
MODEL 3
REMARK VINA RESULT:      -3.2      0.945      1.566
REMARK  4 active torsions:
REMARK  status: ('A' for Active; 'I' for Inactive)
REMARK    1  A    between atoms: N_2  and  S_1 
REMARK    2  A    between atoms: C_3  and  S_1 
REMARK    3  A    between atoms: C_6  and  N_2 
REMARK    4  A    between atoms: C_13  and  N_2 
ROOT
ATOM      1  S   UNL d   1      57.586  -0.079  31.417  0.00  0.00     0.271 S 
ATOM      2  O   UNL d   1      57.792  -0.786  31.263  0.00  0.00    -0.200 OA
ATOM      3  O   UNL d   1      57.338   0.682  31.602  0.00  0.00    -0.200 OA
ENDROOT
BRANCH   1   4
ATOM      4  N   UNL d   1      58.207   0.235  30.959  0.00  0.00    -0.231 N 
BRANCH   4   5
ATOM      5  C   UNL d   1      58.225   0.100  30.142  0.00  0.00     0.075 A 
ATOM      6  C   UNL d   1      58.659  -0.544  29.842  0.00  0.00     0.018 A 
ATOM      7  C   UNL d   1      58.682  -0.685  29.023  0.00  0.00     0.002 A 
ATOM      8  C   UNL d   1      58.270  -0.182  28.503  0.00  0.00     0.000 A 
ATOM      9  C   UNL d   1      57.836   0.462  28.807  0.00  0.00     0.002 A 
ATOM     10  C   UNL d   1      57.814   0.603  29.626  0.00  0.00     0.018 A 
ENDBRANCH   4   5
BRANCH   4  11
ATOM     11  C   UNL d   1      58.804   0.681  31.323  0.00  0.00     0.092 C 
ATOM     12  C   UNL d   1      59.561   0.366  31.412  0.00  0.00     0.021 C 
ENDBRANCH   4  11
ENDBRANCH   1   4
BRANCH   1  13
ATOM     13  C   UNL d   1      57.016  -0.333  31.838  0.00  0.00     0.104 A 
ATOM     14  C   UNL d   1      56.855  -1.075  31.861  0.00  0.00     0.015 A 
ATOM     15  C   UNL d   1      56.289  -1.319  32.280  0.00  0.00     0.022 A 
ATOM     16  C   UNL d   1      55.876  -0.840  32.679  0.00  0.00     0.103 A 
ATOM     17  C   UNL d   1      56.026  -0.106  32.663  0.00  0.00     0.022 A 
ATOM     18  N   UNL d   1      55.307  -1.097  33.098  0.00  0.00    -0.148 N 
ATOM     19  C   UNL d   1      56.595   0.152  32.243  0.00  0.00     0.015 A 
ENDBRANCH   1  13
TORSDOF 4
ENDMDL
MODEL 4
REMARK VINA RESULT:      -3.2      8.901      9.579
REMARK  4 active torsions:
REMARK  status: ('A' for Active; 'I' for Inactive)
REMARK    1  A    between atoms: N_2  and  S_1 
REMARK    2  A    between atoms: C_3  and  S_1 
REMARK    3  A    between atoms: C_6  and  N_2 
REMARK    4  A    between atoms: C_13  and  N_2 
ROOT
ATOM      1  S   UNL d   1      59.953  -8.151  35.703  0.00  0.00     0.271 S 
ATOM      2  O   UNL d   1      60.459  -8.414  36.194  0.00  0.00    -0.200 OA
ATOM      3  O   UNL d   1      59.409  -7.835  35.175  0.00  0.00    -0.200 OA
ENDROOT
BRANCH   1   4
ATOM      4  N   UNL d   1      59.697  -8.919  35.508  0.00  0.00    -0.231 N 
BRANCH   4   5
ATOM      5  C   UNL d   1      59.829  -9.215  34.745  0.00  0.00     0.075 A 
ATOM      6  C   UNL d   1      59.188  -9.301  34.222  0.00  0.00     0.018 A 
ATOM      7  C   UNL d   1      59.314  -9.598  33.456  0.00  0.00     0.002 A 
ATOM      8  C   UNL d   1      60.082  -9.809  33.212  0.00  0.00     0.000 A 
ATOM      9  C   UNL d   1      60.721  -9.721  33.739  0.00  0.00     0.002 A 
ATOM     10  C   UNL d   1      60.595  -9.424  34.506  0.00  0.00     0.018 A 
ENDBRANCH   4   5
BRANCH   4  11
ATOM     11  C   UNL d   1      59.312  -9.384  36.076  0.00  0.00     0.092 C 
ATOM     12  C   UNL d   1      58.641  -9.818  35.870  0.00  0.00     0.021 C 
ENDBRANCH   4  11
ENDBRANCH   1   4
BRANCH   1  13
ATOM     13  C   UNL d   1      60.163  -7.445  35.860  0.00  0.00     0.104 A 
ATOM     14  C   UNL d   1      60.886  -7.287  36.030  0.00  0.00     0.015 A 
ATOM     15  C   UNL d   1      61.086  -6.586  36.183  0.00  0.00     0.022 A 
ATOM     16  C   UNL d   1      60.581  -6.034  36.173  0.00  0.00     0.103 A 
ATOM     17  C   UNL d   1      59.865  -6.179  36.007  0.00  0.00     0.022 A 
ATOM     18  N   UNL d   1      60.794  -5.330  36.329  0.00  0.00    -0.148 N 
ATOM     19  C   UNL d   1      59.651  -6.884  35.850  0.00  0.00     0.015 A 
ENDBRANCH   1  13
TORSDOF 4
ENDMDL
MODEL 5
REMARK VINA RESULT:      -3.0      1.437      3.367
REMARK  4 active torsions:
REMARK  status: ('A' for Active; 'I' for Inactive)
REMARK    1  A    between atoms: N_2  and  S_1 
REMARK    2  A    between atoms: C_3  and  S_1 
REMARK    3  A    between atoms: C_6  and  N_2 
REMARK    4  A    between atoms: C_13  and  N_2 
ROOT
ATOM      1  S   UNL d   1      58.940  -0.791  29.341  0.00  0.00     0.271 S 
ATOM      2  O   UNL d   1      58.250  -1.090  29.337  0.00  0.00    -0.200 OA
ATOM      3  O   UNL d   1      59.705  -0.493  29.338  0.00  0.00    -0.200 OA
ENDROOT
BRANCH   1   4
ATOM      4  N   UNL d   1      58.646  -0.037  29.537  0.00  0.00    -0.231 N 
BRANCH   4   5
ATOM      5  C   UNL d   1      58.336   0.100  30.294  0.00  0.00     0.075 A 
ATOM      6  C   UNL d   1      58.782   0.534  30.847  0.00  0.00     0.018 A 
ATOM      7  C   UNL d   1      58.477   0.675  31.607  0.00  0.00     0.002 A 
ATOM      8  C   UNL d   1      57.725   0.382  31.814  0.00  0.00     0.000 A 
ATOM      9  C   UNL d   1      57.283  -0.052  31.258  0.00  0.00     0.002 A 
ATOM     10  C   UNL d   1      57.588  -0.193  30.498  0.00  0.00     0.018 A 
ENDBRANCH   4   5
BRANCH   4  11
ATOM     11  C   UNL d   1      58.665   0.573  28.976  0.00  0.00     0.092 C 
ATOM     12  C   UNL d   1      58.030   0.682  28.461  0.00  0.00     0.021 C 
ENDBRANCH   4  11
ENDBRANCH   1   4
BRANCH   1  13
ATOM     13  C   UNL d   1      59.234  -1.460  29.163  0.00  0.00     0.104 A 
ATOM     14  C   UNL d   1      58.783  -2.055  29.022  0.00  0.00     0.015 A 
ATOM     15  C   UNL d   1      59.082  -2.715  28.846  0.00  0.00     0.022 A 
ATOM     16  C   UNL d   1      59.825  -2.799  28.808  0.00  0.00     0.103 A 
ATOM     17  C   UNL d   1      60.279  -2.219  28.946  0.00  0.00     0.022 A 
ATOM     18  N   UNL d   1      60.116  -3.469  28.631  0.00  0.00    -0.148 N 
ATOM     19  C   UNL d   1      59.988  -1.548  29.124  0.00  0.00     0.015 A 
ENDBRANCH   1  13
TORSDOF 4
ENDMDL
