MODEL 1
REMARK VINA RESULT:      52.3      0.000      0.000
REMARK  3 active torsions:
REMARK  status: ('A' for Active; 'I' for Inactive)
REMARK       I    between atoms: C_6  and  N_7 
REMARK    1  A    between atoms: C_9  and  C_6 
REMARK    2  A    between atoms: N_7  and  C_13 
REMARK    3  A    between atoms: C_15  and  C_14 
ROOT
ATOM      1  C   UNL d   1     -55.525 -99.153 -45.514  0.00  0.00     0.279 C 
ATOM      2  N   UNL d   1     -54.859 -99.586 -45.309  0.00  0.00    -0.208 NA
ATOM      3  O   UNL d   1     -55.544 -98.755 -46.231  0.00  0.00    -0.265 OA
ENDROOT
BRANCH   2   4
ATOM      4  C   UNL d   1     -54.836 -99.987 -44.588  0.00  0.00     0.085 A 
ATOM      5  C   UNL d   1     -54.894-100.804 -44.581  0.00  0.00     0.024 A 
ATOM      6  C   UNL d   1     -54.871-101.205 -43.861  0.00  0.00     0.064 A 
ATOM      7  C   UNL d   1     -54.916-102.013 -43.679  0.00  0.00     0.282 A 
ATOM      8  C   UNL d   1     -54.789-100.800 -43.155  0.00  0.00     0.063 A 
ATOM      9  N   UNL d   1     -54.862-102.091 -42.864  0.00  0.00    -0.169 NA
ATOM     10  O   UNL d   1     -55.000-102.639 -44.206  0.00  0.00    -0.265 OA
ATOM     11  C   UNL d   1     -54.784-101.343 -42.541  0.00  0.00     0.282 A 
ATOM     12  O   UNL d   1     -54.712-101.161 -41.741  0.00  0.00    -0.265 OA
ATOM     13  C   UNL d   1     -54.730 -99.977 -43.164  0.00  0.00     0.006 A 
ATOM     14  C   UNL d   1     -54.753 -99.568 -43.878  0.00  0.00     0.019 A 
ENDBRANCH   2   4
BRANCH   1  15
ATOM     15  C   UNL d   1     -56.165 -99.114 -45.011  0.00  0.00     0.058 A 
ATOM     16  C   UNL d   1     -56.909 -99.347 -45.265  0.00  0.00     0.005 A 
ATOM     17  C   UNL d   1     -57.554 -99.305 -44.749  0.00  0.00     0.003 A 
ATOM     18  C   UNL d   1     -57.450 -99.030 -43.978  0.00  0.00     0.039 A 
ATOM     19  C   UNL d   1     -56.701 -98.796 -43.724  0.00  0.00     0.003 A 
ATOM     20  C   UNL d   1     -56.056 -98.838 -44.240  0.00  0.00     0.005 A 
BRANCH  18  21
ATOM     21  C   UNL d   1     -58.095 -98.988 -43.461  0.00  0.00     0.196 C 
ATOM     22  O   UNL d   1     -58.851 -99.178 -43.729  0.00  0.00    -0.287 OA
ATOM     23  C   UNL d   1     -57.979 -98.756 -42.678  0.00  0.00     0.045 C 
ENDBRANCH  18  21
ENDBRANCH   1  15
TORSDOF 3
ENDMDL
