MODEL 1
REMARK VINA RESULT:      33.3      0.000      0.000
REMARK  6 active torsions:
REMARK  status: ('A' for Active; 'I' for Inactive)
REMARK    1  A    between atoms: N_2  and  S_1 
REMARK    2  A    between atoms: C_3  and  S_1 
REMARK    3  A    between atoms: C_6  and  N_2 
REMARK    4  A    between atoms: C_12  and  C_6 
REMARK    5  A    between atoms: C_7  and  S_9 
REMARK    6  A    between atoms: S_9  and  C_12 
ROOT
ATOM      1  N   UNL d   1     -55.733 -98.764 -44.651  0.00  0.00    -0.188 NA
ENDROOT
BRANCH   1   2
ATOM      2  S   UNL d   1     -56.554 -98.775 -44.574  0.00  0.00     0.281 S 
ATOM      3  O   UNL d   1     -56.649 -98.787 -45.403  0.00  0.00    -0.199 OA
ATOM      4  O   UNL d   1     -56.477 -98.763 -43.753  0.00  0.00    -0.199 OA
BRANCH   2   5
ATOM      5  C   UNL d   1     -57.397 -98.786 -44.494  0.00  0.00     0.105 A 
ATOM      6  C   UNL d   1     -57.876 -98.776 -45.167  0.00  0.00     0.014 A 
ATOM      7  C   UNL d   1     -58.678 -98.787 -45.094  0.00  0.00     0.012 A 
ATOM      8  C   UNL d   1     -59.040 -98.807 -44.339  0.00  0.00     0.058 A 
ATOM      9  C   UNL d   1     -58.546 -98.816 -43.677  0.00  0.00     0.012 A 
ATOM     10 CL   UNL d   1     -59.869 -98.818 -44.246  0.00  0.00    -0.082 Cl
ATOM     11  C   UNL d   1     -57.727 -98.806 -43.758  0.00  0.00     0.014 A 
ENDBRANCH   2   5
ENDBRANCH   1   2
BRANCH   1  12
ATOM     12  C   UNL d   1     -55.311 -99.473 -44.657  0.00  0.00     0.107 C 
ATOM     13  C   UNL d   1     -55.858 -99.798 -45.179  0.00  0.00     0.026 C 
ATOM     14  C   UNL d   1     -54.755 -99.133 -44.121  0.00  0.00     0.026 C 
BRANCH  12  15
ATOM     15  C   UNL d   1     -54.886-100.176 -44.658  0.00  0.00     0.087 C 
BRANCH  15  16
ATOM     16  S   UNL d   1     -54.717-100.563 -43.952  0.00  0.00    -0.093 SA
BRANCH  16  17
ATOM     17  C   UNL d   1     -54.961-101.326 -43.817  0.00  0.00     0.107 A 
ATOM     18  N   UNL d   1     -55.052-101.605 -43.052  0.00  0.00    -0.238 NA
ATOM     19  C   UNL d   1     -55.295-102.366 -42.909  0.00  0.00     0.100 A 
ATOM     20  C   UNL d   1     -55.454-102.876 -43.563  0.00  0.00     0.021 A 
ATOM     21  C   UNL d   1     -55.363-102.598 -44.328  0.00  0.00     0.004 A 
ATOM     22  C   UNL d   1     -55.115-101.822 -44.458  0.00  0.00     0.025 A 
ENDBRANCH  16  17
ENDBRANCH  15  16
ENDBRANCH  12  15
ENDBRANCH   1  12
TORSDOF 6
ENDMDL
