MODEL 1
REMARK VINA RESULT:      84.3      0.000      0.000
REMARK  5 active torsions:
REMARK  status: ('A' for Active; 'I' for Inactive)
REMARK    1  A    between atoms: C_11  and  N_3 
REMARK    2  A    between atoms: C_10  and  C_4 
REMARK    3  A    between atoms: C_15  and  C_11 
REMARK    4  A    between atoms: N_13  and  C_16 
REMARK    5  A    between atoms: C_16  and  C_15 
ROOT
ATOM      1  C   UNL d   1     -57.442 -98.765 -44.205  0.00  0.00     0.137 A 
ATOM      2  N   UNL d   1     -58.072 -98.767 -43.656  0.00  0.00    -0.259 N 
ATOM      3  N   UNL d   1     -56.742 -98.763 -43.769  0.00  0.00    -0.287 N 
ATOM      4  C   UNL d   1     -57.599 -98.764 -45.011  0.00  0.00     0.054 A 
ATOM      5  C   UNL d   1     -58.855 -98.770 -43.930  0.00  0.00     0.266 A 
ATOM      6  C   UNL d   1     -57.756 -98.767 -42.894  0.00  0.00     0.084 A 
ATOM      7  C   UNL d   1     -56.922 -98.764 -42.965  0.00  0.00     0.082 A 
ATOM      8  C   UNL d   1     -58.378 -98.767 -45.284  0.00  0.00     0.009 A 
ATOM      9  C   UNL d   1     -59.013 -98.769 -44.747  0.00  0.00     0.061 A 
ATOM     10  O   UNL d   1     -59.485 -98.772 -43.389  0.00  0.00    -0.267 OA
ATOM     11  C   UNL d   1     -58.100 -98.769 -42.147  0.00  0.00     0.019 A 
ATOM     12  C   UNL d   1     -58.535 -98.767 -46.098  0.00  0.00     0.000 C 
ATOM     13  C   UNL d   1     -56.465 -98.763 -42.286  0.00  0.00     0.019 A 
ATOM     14  C   UNL d   1     -57.627 -98.768 -41.478  0.00  0.00     0.002 A 
ATOM     15  C   UNL d   1     -56.801 -98.765 -41.548  0.00  0.00     0.002 A 
ENDROOT
BRANCH   3  16
ATOM     16  C   UNL d   1     -55.921 -98.760 -43.830  0.00  0.00     0.125 C 
BRANCH  16  17
ATOM     17  C   UNL d   1     -55.495 -99.452 -43.688  0.00  0.00     0.231 C 
ATOM     18  O   UNL d   1     -55.646 -99.903 -43.014  0.00  0.00    -0.283 OA
BRANCH  17  19
ATOM     19  C   UNL d   1     -54.915 -99.695 -44.221  0.00  0.00     0.124 C 
BRANCH  19  20
ATOM     20  N   UNL d   1     -54.878-100.482 -44.459  0.00  0.00    -0.300 N 
ATOM     21  C   UNL d   1     -54.815-101.076 -43.892  0.00  0.00     0.080 A 
ATOM     22  C   UNL d   1     -54.777-101.868 -44.124  0.00  0.00     0.019 A 
ATOM     23  C   UNL d   1     -54.802-102.063 -44.926  0.00  0.00     0.003 A 
ATOM     24  C   UNL d   1     -54.865-101.469 -45.494  0.00  0.00     0.019 A 
ATOM     25  C   UNL d   1     -54.765-102.849 -45.165  0.00  0.00     0.000 C 
ATOM     26  C   UNL d   1     -54.903-100.677 -45.262  0.00  0.00     0.080 A 
ENDBRANCH  19  20
ENDBRANCH  17  19
ENDBRANCH  16  17
ENDBRANCH   3  16
BRANCH   4  27
ATOM     27  C   UNL d   1     -56.981 -98.762 -45.550  0.00  0.00     0.125 C 
ATOM     28  N   UNL d   1     -57.094 -99.000 -46.330  0.00  0.00    -0.146 N 
ENDBRANCH   4  27
TORSDOF 5
ENDMDL
