MODEL 1
REMARK VINA RESULT:      38.8      0.000      0.000
REMARK  5 active torsions:
REMARK  status: ('A' for Active; 'I' for Inactive)
REMARK    1  A    between atoms: C_7  and  C_1 
REMARK    2  A    between atoms: C_6  and  C_3 
REMARK       I    between atoms: N_8  and  C_6 
REMARK    3  A    between atoms: O_14  and  C_7 
REMARK    4  A    between atoms: C_13  and  N_8 
REMARK    5  A    between atoms: C_15  and  O_14 
ROOT
ATOM      1  C   UNL d   1     -51.636  25.002  33.639  0.00  0.00     0.090 A 
ATOM      2  C   UNL d   1     -51.625  25.830  33.591  0.00  0.00     0.138 A 
ATOM      3  C   UNL d   1     -50.394  25.404  33.511  0.00  0.00     0.089 A 
ATOM      4  C   UNL d   1     -50.854  24.745  33.587  0.00  0.00     0.018 A 
ATOM      5  S   UNL d   1     -50.839  26.029  33.513  0.00  0.00    -0.061 SA
ATOM      6  N   UNL d   1     -52.308  26.325  33.621  0.00  0.00    -0.141 N 
ATOM      7  C   UNL d   1     -50.624  23.919  33.615  0.00  0.00     0.001 C 
ENDROOT
BRANCH   3   8
ATOM      8  C   UNL d   1     -49.588  25.314  33.447  0.00  0.00     0.285 C 
ATOM      9  N   UNL d   1     -49.116  25.967  33.516  0.00  0.00    -0.208 NA
ATOM     10  O   UNL d   1     -49.273  24.553  33.313  0.00  0.00    -0.265 OA
BRANCH   9  11
ATOM     11  C   UNL d   1     -49.446  26.708  33.648  0.00  0.00     0.085 A 
ATOM     12  C   UNL d   1     -50.102  26.939  33.306  0.00  0.00     0.019 A 
ATOM     13  C   UNL d   1     -50.376  27.671  33.472  0.00  0.00     0.002 A 
ATOM     14  C   UNL d   1     -50.034  28.186  33.958  0.00  0.00     0.000 A 
ATOM     15  C   UNL d   1     -49.329  27.991  34.352  0.00  0.00     0.002 A 
ATOM     16  C   UNL d   1     -49.044  27.216  34.172  0.00  0.00     0.019 A 
ENDBRANCH   9  11
ENDBRANCH   3   8
BRANCH   1  17
ATOM     17  C   UNL d   1     -52.300  24.543  33.722  0.00  0.00     0.302 C 
ATOM     18  O   UNL d   1     -52.921  24.780  34.230  0.00  0.00    -0.259 OA
BRANCH  17  19
ATOM     19  O   UNL d   1     -52.383  23.833  33.311  0.00  0.00    -0.271 OA
BRANCH  19  20
ATOM     20  C   UNL d   1     -52.800  23.222  33.667  0.00  0.00     0.126 C 
ATOM     21  C   UNL d   1     -53.545  23.380  33.984  0.00  0.00     0.029 C 
ENDBRANCH  19  20
ENDBRANCH  17  19
ENDBRANCH   1  17
TORSDOF 5
ENDMDL
