MODEL 1
REMARK VINA RESULT:      -7.4      0.000      0.000
REMARK  4 active torsions:
REMARK  status: ('A' for Active; 'I' for Inactive)
REMARK    1  A    between atoms: C_7  and  C_5 
REMARK    2  A    between atoms: C_8  and  C_7 
REMARK    3  A    between atoms: C_10  and  C_8 
REMARK    4  A    between atoms: O_18  and  C_11 
ROOT
ATOM      1  C   UNL d   1     -49.001  14.753  22.504  0.00  0.00     0.303 A 
ATOM      2  N   UNL d   1     -48.992  13.150  22.104  0.00  0.00    -0.222 NA
ATOM      3  O   UNL d   1     -48.315  14.305  22.606  0.00  0.00    -0.255 OA
ATOM      4  C   UNL d   1     -49.684  14.398  22.202  0.00  0.00     0.081 A 
ATOM      5  C   UNL d   1     -48.310  13.509  22.407  0.00  0.00     0.186 A 
ATOM      6  C   UNL d   1     -49.680  13.602  22.003  0.00  0.00     0.089 A 
ATOM      7  O   UNL d   1     -49.006  15.558  22.705  0.00  0.00    -0.259 OA
ATOM      8  C   UNL d   1     -50.364  14.846  22.102  0.00  0.00     0.007 A 
ATOM      9  C   UNL d   1     -50.356  13.242  21.702  0.00  0.00     0.019 A 
ATOM     10  C   UNL d   1     -51.047  14.491  21.801  0.00  0.00     0.000 A 
ATOM     11  C   UNL d   1     -51.042  13.694  21.602  0.00  0.00     0.002 A 
ENDROOT
BRANCH   5  12
ATOM     12  C   UNL d   1     -47.611  13.040  22.507  0.00  0.00     0.045 C 
BRANCH  12  13
ATOM     13  C   UNL d   1     -47.418  12.758  23.257  0.00  0.00     0.004 C 
BRANCH  13  14
ATOM     14  C   UNL d   1     -46.827  12.189  23.349  0.00  0.00     0.000 A 
ATOM     15  C   UNL d   1     -47.017  11.433  23.605  0.00  0.00     0.002 A 
ATOM     16  C   UNL d   1     -46.427  10.865  23.697  0.00  0.00     0.024 A 
ATOM     17  C   UNL d   1     -45.638  11.059  23.530  0.00  0.00     0.094 A 
ATOM     18  C   UNL d   1     -45.448  11.820  23.273  0.00  0.00     0.024 A 
ATOM     19  C   UNL d   1     -46.039  12.384  23.182  0.00  0.00     0.002 A 
BRANCH  17  20
ATOM     20  O   UNL d   1     -45.042  10.477  23.626  0.00  0.00    -0.328 OA
ATOM     21  C   UNL d   1     -44.273  10.620  23.375  0.00  0.00     0.181 C 
ENDBRANCH  17  20
ENDBRANCH  13  14
ENDBRANCH  12  13
ENDBRANCH   5  12
TORSDOF 4
ENDMDL
MODEL 2
REMARK VINA RESULT:      -5.6      8.811      9.872
REMARK  4 active torsions:
REMARK  status: ('A' for Active; 'I' for Inactive)
REMARK    1  A    between atoms: C_7  and  C_5 
REMARK    2  A    between atoms: C_8  and  C_7 
REMARK    3  A    between atoms: C_10  and  C_8 
REMARK    4  A    between atoms: O_18  and  C_11 
ROOT
ATOM      1  C   UNL d   1     -39.504  15.245  21.773  0.00  0.00     0.303 A 
ATOM      2  N   UNL d   1     -39.463  13.940  20.759  0.00  0.00    -0.222 NA
ATOM      3  O   UNL d   1     -39.842  15.294  21.021  0.00  0.00    -0.255 OA
ATOM      4  C   UNL d   1     -39.145  14.541  22.018  0.00  0.00     0.081 A 
ATOM      5  C   UNL d   1     -39.822  14.646  20.517  0.00  0.00     0.186 A 
ATOM      6  C   UNL d   1     -39.124  13.893  21.514  0.00  0.00     0.089 A 
ATOM      7  O   UNL d   1     -39.525  15.899  22.282  0.00  0.00    -0.259 OA
ATOM      8  C   UNL d   1     -38.810  14.496  22.765  0.00  0.00     0.007 A 
ATOM      9  C   UNL d   1     -38.769  13.191  21.751  0.00  0.00     0.019 A 
ATOM     10  C   UNL d   1     -38.451  13.793  23.010  0.00  0.00     0.000 A 
ATOM     11  C   UNL d   1     -38.430  13.144  22.506  0.00  0.00     0.002 A 
ENDROOT
BRANCH   5  12
ATOM     12  C   UNL d   1     -40.166  14.686  19.744  0.00  0.00     0.045 C 
BRANCH  12  13
ATOM     13  C   UNL d   1     -39.864  15.221  19.194  0.00  0.00     0.004 C 
BRANCH  13  14
ATOM     14  C   UNL d   1     -40.223  15.310  18.457  0.00  0.00     0.000 A 
ATOM     15  C   UNL d   1     -40.881  15.794  18.374  0.00  0.00     0.002 A 
ATOM     16  C   UNL d   1     -41.240  15.883  17.636  0.00  0.00     0.024 A 
ATOM     17  C   UNL d   1     -40.936  15.481  16.978  0.00  0.00     0.094 A 
ATOM     18  C   UNL d   1     -40.274  14.995  17.064  0.00  0.00     0.024 A 
ATOM     19  C   UNL d   1     -39.919  14.908  17.799  0.00  0.00     0.002 A 
BRANCH  17  20
ATOM     20  O   UNL d   1     -41.306  15.576  16.232  0.00  0.00    -0.328 OA
ATOM     21  C   UNL d   1     -42.050  15.920  16.173  0.00  0.00     0.181 C 
ENDBRANCH  17  20
ENDBRANCH  13  14
ENDBRANCH  12  13
ENDBRANCH   5  12
TORSDOF 4
ENDMDL
MODEL 3
REMARK VINA RESULT:      -5.6      8.958      9.474
REMARK  4 active torsions:
REMARK  status: ('A' for Active; 'I' for Inactive)
REMARK    1  A    between atoms: C_7  and  C_5 
REMARK    2  A    between atoms: C_8  and  C_7 
REMARK    3  A    between atoms: C_10  and  C_8 
REMARK    4  A    between atoms: O_18  and  C_11 
ROOT
ATOM      1  C   UNL d   1     -39.550  14.200  17.580  0.00  0.00     0.303 A 
ATOM      2  N   UNL d   1     -40.360  14.899  18.840  0.00  0.00    -0.222 NA
ATOM      3  O   UNL d   1     -39.380  13.975  18.356  0.00  0.00    -0.255 OA
ATOM      4  C   UNL d   1     -40.125  14.776  17.434  0.00  0.00     0.081 A 
ATOM      5  C   UNL d   1     -39.783  14.322  18.982  0.00  0.00     0.186 A 
ATOM      6  C   UNL d   1     -40.527  15.123  18.060  0.00  0.00     0.089 A 
ATOM      7  O   UNL d   1     -39.143  13.850  16.948  0.00  0.00    -0.259 OA
ATOM      8  C   UNL d   1     -40.291  14.998  16.662  0.00  0.00     0.007 A 
ATOM      9  C   UNL d   1     -41.101  15.696  17.922  0.00  0.00     0.019 A 
ATOM     10  C   UNL d   1     -40.866  15.573  16.516  0.00  0.00     0.000 A 
ATOM     11  C   UNL d   1     -41.268  15.920  17.142  0.00  0.00     0.002 A 
ENDROOT
BRANCH   5  12
ATOM     12  C   UNL d   1     -39.616  14.098  19.783  0.00  0.00     0.045 C 
BRANCH  12  13
ATOM     13  C   UNL d   1     -38.891  14.300  20.117  0.00  0.00     0.004 C 
BRANCH  13  14
ATOM     14  C   UNL d   1     -38.728  14.116  20.904  0.00  0.00     0.000 A 
ATOM     15  C   UNL d   1     -39.018  14.591  21.508  0.00  0.00     0.002 A 
ATOM     16  C   UNL d   1     -38.856  14.407  22.296  0.00  0.00     0.024 A 
ATOM     17  C   UNL d   1     -38.398  13.740  22.477  0.00  0.00     0.094 A 
ATOM     18  C   UNL d   1     -38.107  13.264  21.869  0.00  0.00     0.024 A 
ATOM     19  C   UNL d   1     -38.270  13.449  21.086  0.00  0.00     0.002 A 
BRANCH  17  20
ATOM     20  O   UNL d   1     -38.236  13.558  23.280  0.00  0.00    -0.328 OA
ATOM     21  C   UNL d   1     -38.712  13.031  23.694  0.00  0.00     0.181 C 
ENDBRANCH  17  20
ENDBRANCH  13  14
ENDBRANCH  12  13
ENDBRANCH   5  12
TORSDOF 4
ENDMDL
MODEL 4
REMARK VINA RESULT:      -5.4      9.045      9.854
REMARK  4 active torsions:
REMARK  status: ('A' for Active; 'I' for Inactive)
REMARK    1  A    between atoms: C_7  and  C_5 
REMARK    2  A    between atoms: C_8  and  C_7 
REMARK    3  A    between atoms: C_10  and  C_8 
REMARK    4  A    between atoms: O_18  and  C_11 
ROOT
ATOM      1  C   UNL d   1     -40.466  14.882  17.749  0.00  0.00     0.303 A 
ATOM      2  N   UNL d   1     -39.040  15.052  18.566  0.00  0.00    -0.222 NA
ATOM      3  O   UNL d   1     -40.468  15.125  18.538  0.00  0.00    -0.255 OA
ATOM      4  C   UNL d   1     -39.749  14.723  17.368  0.00  0.00     0.081 A 
ATOM      5  C   UNL d   1     -39.759  15.209  18.944  0.00  0.00     0.186 A 
ATOM      6  C   UNL d   1     -39.041  14.808  17.774  0.00  0.00     0.089 A 
ATOM      7  O   UNL d   1     -41.182  14.796  17.338  0.00  0.00    -0.259 OA
ATOM      8  C   UNL d   1     -39.751  14.482  16.584  0.00  0.00     0.007 A 
ATOM      9  C   UNL d   1     -38.324  14.652  17.401  0.00  0.00     0.019 A 
ATOM     10  C   UNL d   1     -39.035  14.324  16.204  0.00  0.00     0.000 A 
ATOM     11  C   UNL d   1     -38.326  14.409  16.610  0.00  0.00     0.002 A 
ENDROOT
BRANCH   5  12
ATOM     12  C   UNL d   1     -39.750  15.458  19.754  0.00  0.00     0.045 C 
BRANCH  12  13
ATOM     13  C   UNL d   1     -39.933  14.914  20.346  0.00  0.00     0.004 C 
BRANCH  13  14
ATOM     14  C   UNL d   1     -39.686  15.044  21.123  0.00  0.00     0.000 A 
ATOM     15  C   UNL d   1     -39.754  15.789  21.459  0.00  0.00     0.002 A 
ATOM     16  C   UNL d   1     -39.507  15.919  22.236  0.00  0.00     0.024 A 
ATOM     17  C   UNL d   1     -39.188  15.293  22.676  0.00  0.00     0.094 A 
ATOM     18  C   UNL d   1     -39.120  14.544  22.336  0.00  0.00     0.024 A 
ATOM     19  C   UNL d   1     -39.367  14.418  21.563  0.00  0.00     0.002 A 
BRANCH  17  20
ATOM     20  O   UNL d   1     -38.938  15.431  23.465  0.00  0.00    -0.328 OA
ATOM     21  C   UNL d   1     -38.192  15.739  23.621  0.00  0.00     0.181 C 
ENDBRANCH  17  20
ENDBRANCH  13  14
ENDBRANCH  12  13
ENDBRANCH   5  12
TORSDOF 4
ENDMDL
MODEL 5
REMARK VINA RESULT:      -5.2      8.708     10.604
REMARK  4 active torsions:
REMARK  status: ('A' for Active; 'I' for Inactive)
REMARK    1  A    between atoms: C_7  and  C_5 
REMARK    2  A    between atoms: C_8  and  C_7 
REMARK    3  A    between atoms: C_10  and  C_8 
REMARK    4  A    between atoms: O_18  and  C_11 
ROOT
ATOM      1  C   UNL d   1     -39.944  14.397  20.677  0.00  0.00     0.303 A 
ATOM      2  N   UNL d   1     -38.428  13.978  20.170  0.00  0.00    -0.222 NA
ATOM      3  O   UNL d   1     -39.728  14.503  19.887  0.00  0.00    -0.255 OA
ATOM      4  C   UNL d   1     -39.400  14.081  21.214  0.00  0.00     0.081 A 
ATOM      5  C   UNL d   1     -38.975  14.294  19.635  0.00  0.00     0.186 A 
ATOM      6  C   UNL d   1     -38.647  13.873  20.963  0.00  0.00     0.089 A 
ATOM      7  O   UNL d   1     -40.704  14.607  20.931  0.00  0.00    -0.259 OA
ATOM      8  C   UNL d   1     -39.618  13.978  21.998  0.00  0.00     0.007 A 
ATOM      9  C   UNL d   1     -38.102  13.558  21.491  0.00  0.00     0.019 A 
ATOM     10  C   UNL d   1     -39.075  13.662  22.535  0.00  0.00     0.000 A 
ATOM     11  C   UNL d   1     -38.322  13.454  22.283  0.00  0.00     0.002 A 
ENDROOT
BRANCH   5  12
ATOM     12  C   UNL d   1     -38.743  14.399  18.826  0.00  0.00     0.045 C 
BRANCH  12  13
ATOM     13  C   UNL d   1     -39.201  14.063  18.228  0.00  0.00     0.004 C 
BRANCH  13  14
ATOM     14  C   UNL d   1     -38.887  13.957  17.473  0.00  0.00     0.000 A 
ATOM     15  C   UNL d   1     -38.500  13.260  17.280  0.00  0.00     0.002 A 
ATOM     16  C   UNL d   1     -38.186  13.154  16.524  0.00  0.00     0.024 A 
ATOM     17  C   UNL d   1     -38.263  13.755  15.958  0.00  0.00     0.094 A 
ATOM     18  C   UNL d   1     -38.652  14.456  16.154  0.00  0.00     0.024 A 
ATOM     19  C   UNL d   1     -38.963  14.558  16.907  0.00  0.00     0.002 A 
BRANCH  17  20
ATOM     20  O   UNL d   1     -37.941  13.641  15.192  0.00  0.00    -0.328 OA
ATOM     21  C   UNL d   1     -38.007  14.227  14.619  0.00  0.00     0.181 C 
ENDBRANCH  17  20
ENDBRANCH  13  14
ENDBRANCH  12  13
ENDBRANCH   5  12
TORSDOF 4
ENDMDL
MODEL 6
REMARK VINA RESULT:      -4.6      1.344      1.915
REMARK  4 active torsions:
REMARK  status: ('A' for Active; 'I' for Inactive)
REMARK    1  A    between atoms: C_7  and  C_5 
REMARK    2  A    between atoms: C_8  and  C_7 
REMARK    3  A    between atoms: C_10  and  C_8 
REMARK    4  A    between atoms: O_18  and  C_11 
ROOT
ATOM      1  C   UNL d   1     -48.684  13.294  23.103  0.00  0.00     0.303 A 
ATOM      2  N   UNL d   1     -47.121  13.775  22.862  0.00  0.00    -0.222 NA
ATOM      3  O   UNL d   1     -48.060  12.786  23.293  0.00  0.00    -0.255 OA
ATOM      4  C   UNL d   1     -48.525  14.044  22.792  0.00  0.00     0.081 A 
ATOM      5  C   UNL d   1     -47.284  13.025  23.173  0.00  0.00     0.186 A 
ATOM      6  C   UNL d   1     -47.748  14.283  22.672  0.00  0.00     0.089 A 
ATOM      7  O   UNL d   1     -49.468  13.053  23.224  0.00  0.00    -0.259 OA
ATOM      8  C   UNL d   1     -49.146  14.545  22.604  0.00  0.00     0.007 A 
ATOM      9  C   UNL d   1     -47.583  15.027  22.364  0.00  0.00     0.019 A 
ATOM     10  C   UNL d   1     -48.986  15.294  22.294  0.00  0.00     0.000 A 
ATOM     11  C   UNL d   1     -48.210  15.533  22.174  0.00  0.00     0.002 A 
ENDROOT
BRANCH   5  12
ATOM     12  C   UNL d   1     -46.638  12.512  23.365  0.00  0.00     0.045 C 
BRANCH  12  13
ATOM     13  C   UNL d   1     -46.039  12.392  22.811  0.00  0.00     0.004 C 
BRANCH  13  14
ATOM     14  C   UNL d   1     -45.410  11.885  22.980  0.00  0.00     0.000 A 
ATOM     15  C   UNL d   1     -45.521  11.238  23.473  0.00  0.00     0.002 A 
ATOM     16  C   UNL d   1     -44.892  10.732  23.642  0.00  0.00     0.024 A 
ATOM     17  C   UNL d   1     -44.146  10.878  23.312  0.00  0.00     0.094 A 
ATOM     18  C   UNL d   1     -44.036  11.528  22.816  0.00  0.00     0.024 A 
ATOM     19  C   UNL d   1     -44.664  12.031  22.650  0.00  0.00     0.002 A 
BRANCH  17  20
ATOM     20  O   UNL d   1     -43.510  10.359  23.488  0.00  0.00    -0.328 OA
ATOM     21  C   UNL d   1     -43.557   9.560  23.301  0.00  0.00     0.181 C 
ENDBRANCH  17  20
ENDBRANCH  13  14
ENDBRANCH  12  13
ENDBRANCH   5  12
TORSDOF 4
ENDMDL
