MODEL 1
REMARK VINA RESULT:      -6.7      0.000      0.000
REMARK  2 active torsions:
REMARK  status: ('A' for Active; 'I' for Inactive)
REMARK    1  A    between atoms: C_4  and  C_1 
REMARK    2  A    between atoms: C_2  and  C_7 
ROOT
ATOM      1  C   UNL d   1      56.563  -0.370  32.372  0.00  0.00     0.003 A 
ATOM      2  C   UNL d   1      55.509  -0.238  33.327  0.00  0.00     0.071 A 
ATOM      3  C   UNL d   1      56.085   0.108  32.852  0.00  0.00     0.004 A 
ATOM      4  C   UNL d   1      56.466  -1.184  32.367  0.00  0.00     0.000 A 
ATOM      5  C   UNL d   1      55.405  -1.059  33.327  0.00  0.00     0.004 A 
ATOM      6  C   UNL d   1      55.889  -1.534  32.842  0.00  0.00    -0.000 A 
ENDROOT
BRANCH   1   7
ATOM      7  C   UNL d   1      57.140  -0.020  31.897  0.00  0.00     0.042 A 
ATOM      8  C   UNL d   1      57.056  -0.023  31.074  0.00  0.00     0.045 A 
ATOM      9  C   UNL d   1      57.633   0.327  30.600  0.00  0.00     0.196 A 
ATOM     10  O   UNL d   1      57.549   0.325  29.777  0.00  0.00    -0.287 OA
ATOM     11  C   UNL d   1      58.293   0.680  30.946  0.00  0.00     0.045 A 
ATOM     12  C   UNL d   1      58.376   0.682  31.769  0.00  0.00     0.045 A 
ATOM     13  C   UNL d   1      57.800   0.332  32.244  0.00  0.00     0.196 A 
ATOM     14  O   UNL d   1      57.884   0.334  33.067  0.00  0.00    -0.287 OA
ENDBRANCH   1   7
BRANCH   2  15
ATOM     15  C   UNL d   1      55.031   0.233  33.806  0.00  0.00     0.419 C 
ATOM     16  F   UNL d   1      54.594   0.661  34.242  0.00  0.00    -0.166 F 
ATOM     17  F   UNL d   1      55.226   0.640  34.541  0.00  0.00    -0.166 F 
ATOM     18  F   UNL d   1      54.195   0.451  33.707  0.00  0.00    -0.166 F 
ENDBRANCH   2  15
TORSDOF 2
ENDMDL
MODEL 2
REMARK VINA RESULT:      -6.1      1.357      1.702
REMARK  2 active torsions:
REMARK  status: ('A' for Active; 'I' for Inactive)
REMARK    1  A    between atoms: C_4  and  C_1 
REMARK    2  A    between atoms: C_2  and  C_7 
ROOT
ATOM      1  C   UNL d   1      56.798   0.052  31.993  0.00  0.00     0.003 A 
ATOM      2  C   UNL d   1      56.030  -0.855  32.784  0.00  0.00     0.071 A 
ATOM      3  C   UNL d   1      56.638  -0.720  32.247  0.00  0.00     0.004 A 
ATOM      4  C   UNL d   1      56.354   0.682  32.272  0.00  0.00     0.000 A 
ATOM      5  C   UNL d   1      55.578  -0.224  33.071  0.00  0.00     0.004 A 
ATOM      6  C   UNL d   1      55.744   0.550  32.811  0.00  0.00    -0.000 A 
ENDROOT
BRANCH   1   7
ATOM      7  C   UNL d   1      57.408   0.184  31.454  0.00  0.00     0.042 A 
ATOM      8  C   UNL d   1      57.301   0.001  30.654  0.00  0.00     0.045 A 
ATOM      9  C   UNL d   1      57.912   0.133  30.116  0.00  0.00     0.196 A 
ATOM     10  O   UNL d   1      57.805  -0.050  29.316  0.00  0.00    -0.287 OA
ATOM     11  C   UNL d   1      58.629   0.447  30.375  0.00  0.00     0.045 A 
ATOM     12  C   UNL d   1      58.736   0.630  31.175  0.00  0.00     0.045 A 
ATOM     13  C   UNL d   1      58.125   0.498  31.713  0.00  0.00     0.196 A 
ATOM     14  O   UNL d   1      58.232   0.681  32.513  0.00  0.00    -0.287 OA
ENDBRANCH   1   7
BRANCH   2  15
ATOM     15  C   UNL d   1      55.867  -1.622  33.041  0.00  0.00     0.419 C 
ATOM     16  F   UNL d   1      55.720  -2.320  33.276  0.00  0.00    -0.166 F 
ATOM     17  F   UNL d   1      55.352  -2.218  32.690  0.00  0.00    -0.166 F 
ATOM     18  F   UNL d   1      56.168  -2.046  33.738  0.00  0.00    -0.166 F 
ENDBRANCH   2  15
TORSDOF 2
ENDMDL
MODEL 3
REMARK VINA RESULT:      -5.7      2.260      3.399
REMARK  2 active torsions:
REMARK  status: ('A' for Active; 'I' for Inactive)
REMARK    1  A    between atoms: C_4  and  C_1 
REMARK    2  A    between atoms: C_2  and  C_7 
ROOT
ATOM      1  C   UNL d   1      56.300  -0.358  32.689  0.00  0.00     0.003 A 
ATOM      2  C   UNL d   1      57.065  -0.221  31.491  0.00  0.00     0.071 A 
ATOM      3  C   UNL d   1      56.702   0.121  32.146  0.00  0.00     0.004 A 
ATOM      4  C   UNL d   1      56.261  -1.169  32.580  0.00  0.00     0.000 A 
ATOM      5  C   UNL d   1      57.030  -1.039  31.374  0.00  0.00     0.004 A 
ATOM      6  C   UNL d   1      56.624  -1.515  31.925  0.00  0.00    -0.000 A 
ENDROOT
BRANCH   1   7
ATOM      7  C   UNL d   1      55.937  -0.012  33.344  0.00  0.00     0.042 A 
ATOM      8  C   UNL d   1      55.112   0.033  33.385  0.00  0.00     0.045 A 
ATOM      9  C   UNL d   1      54.749   0.379  34.039  0.00  0.00     0.196 A 
ATOM     10  O   UNL d   1      53.925   0.425  34.080  0.00  0.00    -0.287 OA
ATOM     11  C   UNL d   1      55.210   0.680  34.654  0.00  0.00     0.045 A 
ATOM     12  C   UNL d   1      56.035   0.635  34.613  0.00  0.00     0.045 A 
ATOM     13  C   UNL d   1      56.398   0.289  33.958  0.00  0.00     0.196 A 
ATOM     14  O   UNL d   1      57.223   0.244  33.917  0.00  0.00    -0.287 OA
ENDBRANCH   1   7
BRANCH   2  15
ATOM     15  C   UNL d   1      57.467   0.251  30.947  0.00  0.00     0.419 C 
ATOM     16  F   UNL d   1      57.835   0.681  30.452  0.00  0.00    -0.166 F 
ATOM     17  F   UNL d   1      57.167   0.654  30.246  0.00  0.00    -0.166 F 
ATOM     18  F   UNL d   1      58.307   0.477  30.927  0.00  0.00    -0.166 F 
ENDBRANCH   2  15
TORSDOF 2
ENDMDL
MODEL 4
REMARK VINA RESULT:      -5.5      1.344      2.086
REMARK  2 active torsions:
REMARK  status: ('A' for Active; 'I' for Inactive)
REMARK    1  A    between atoms: C_4  and  C_1 
REMARK    2  A    between atoms: C_2  and  C_7 
ROOT
ATOM      1  C   UNL d   1      55.657   0.117  33.393  0.00  0.00     0.003 A 
ATOM      2  C   UNL d   1      55.528   0.468  34.771  0.00  0.00     0.071 A 
ATOM      3  C   UNL d   1      55.990   0.193  34.148  0.00  0.00     0.004 A 
ATOM      4  C   UNL d   1      54.873   0.315  33.262  0.00  0.00     0.000 A 
ATOM      5  C   UNL d   1      54.736   0.670  34.647  0.00  0.00     0.004 A 
ATOM      6  C   UNL d   1      54.407   0.591  33.884  0.00  0.00    -0.000 A 
ENDROOT
BRANCH   1   7
ATOM      7  C   UNL d   1      56.122  -0.159  32.770  0.00  0.00     0.042 A 
ATOM      8  C   UNL d   1      56.590   0.368  32.338  0.00  0.00     0.045 A 
ATOM      9  C   UNL d   1      57.056   0.091  31.715  0.00  0.00     0.196 A 
ATOM     10  O   UNL d   1      57.524   0.618  31.283  0.00  0.00    -0.287 OA
ATOM     11  C   UNL d   1      57.054  -0.712  31.525  0.00  0.00     0.045 A 
ATOM     12  C   UNL d   1      56.585  -1.238  31.958  0.00  0.00     0.045 A 
ATOM     13  C   UNL d   1      56.120  -0.962  32.580  0.00  0.00     0.196 A 
ATOM     14  O   UNL d   1      55.652  -1.489  33.013  0.00  0.00    -0.287 OA
ENDBRANCH   1   7
BRANCH   2  15
ATOM     15  C   UNL d   1      55.854   0.545  35.525  0.00  0.00     0.419 C 
ATOM     16  F   UNL d   1      56.149   0.615  36.213  0.00  0.00    -0.166 F 
ATOM     17  F   UNL d   1      56.674   0.682  35.754  0.00  0.00    -0.166 F 
ATOM     18  F   UNL d   1      55.464   0.511  36.301  0.00  0.00    -0.166 F 
ENDBRANCH   2  15
TORSDOF 2
ENDMDL
MODEL 5
REMARK VINA RESULT:      -5.3      8.909      9.734
REMARK  2 active torsions:
REMARK  status: ('A' for Active; 'I' for Inactive)
REMARK    1  A    between atoms: C_4  and  C_1 
REMARK    2  A    between atoms: C_2  and  C_7 
ROOT
ATOM      1  C   UNL d   1      59.533  -9.163  34.749  0.00  0.00     0.003 A 
ATOM      2  C   UNL d   1      59.486  -8.140  35.744  0.00  0.00     0.071 A 
ATOM      3  C   UNL d   1      59.565  -8.361  34.955  0.00  0.00     0.004 A 
ATOM      4  C   UNL d   1      59.425  -9.736  35.324  0.00  0.00     0.000 A 
ATOM      5  C   UNL d   1      59.377  -8.713  36.330  0.00  0.00     0.004 A 
ATOM      6  C   UNL d   1      59.347  -9.518  36.115  0.00  0.00    -0.000 A 
ENDROOT
BRANCH   1   7
ATOM      7  C   UNL d   1      59.612  -9.381  33.958  0.00  0.00     0.042 A 
ATOM      8  C   UNL d   1      58.939  -9.482  33.487  0.00  0.00     0.045 A 
ATOM      9  C   UNL d   1      59.018  -9.701  32.696  0.00  0.00     0.196 A 
ATOM     10  O   UNL d   1      58.346  -9.802  32.225  0.00  0.00    -0.287 OA
ATOM     11  C   UNL d   1      59.769  -9.818  32.374  0.00  0.00     0.045 A 
ATOM     12  C   UNL d   1      60.441  -9.717  32.844  0.00  0.00     0.045 A 
ATOM     13  C   UNL d   1      60.362  -9.499  33.636  0.00  0.00     0.196 A 
ATOM     14  O   UNL d   1      61.035  -9.397  34.106  0.00  0.00    -0.287 OA
ENDBRANCH   1   7
BRANCH   2  15
ATOM     15  C   UNL d   1      59.517  -7.342  35.955  0.00  0.00     0.419 C 
ATOM     16  F   UNL d   1      59.546  -6.617  36.148  0.00  0.00    -0.166 F 
ATOM     17  F   UNL d   1      58.894  -6.747  35.931  0.00  0.00    -0.166 F 
ATOM     18  F   UNL d   1      60.185  -6.878  36.261  0.00  0.00    -0.166 F 
ENDBRANCH   2  15
TORSDOF 2
ENDMDL
MODEL 6
REMARK VINA RESULT:      -4.9      2.288      3.648
REMARK  2 active torsions:
REMARK  status: ('A' for Active; 'I' for Inactive)
REMARK    1  A    between atoms: C_4  and  C_1 
REMARK    2  A    between atoms: C_2  and  C_7 
ROOT
ATOM      1  C   UNL d   1      57.041   0.116  31.970  0.00  0.00     0.003 A 
ATOM      2  C   UNL d   1      58.404   0.495  31.772  0.00  0.00     0.071 A 
ATOM      3  C   UNL d   1      57.809   0.213  32.266  0.00  0.00     0.004 A 
ATOM      4  C   UNL d   1      56.870   0.300  31.190  0.00  0.00     0.000 A 
ATOM      5  C   UNL d   1      58.239   0.682  30.984  0.00  0.00     0.004 A 
ATOM      6  C   UNL d   1      57.464   0.582  30.692  0.00  0.00    -0.000 A 
ENDROOT
BRANCH   1   7
ATOM      7  C   UNL d   1      56.447  -0.166  32.467  0.00  0.00     0.042 A 
ATOM      8  C   UNL d   1      56.050   0.352  32.975  0.00  0.00     0.045 A 
ATOM      9  C   UNL d   1      55.456   0.070  33.473  0.00  0.00     0.196 A 
ATOM     10  O   UNL d   1      55.060   0.588  33.980  0.00  0.00    -0.287 OA
ATOM     11  C   UNL d   1      55.258  -0.731  33.463  0.00  0.00     0.045 A 
ATOM     12  C   UNL d   1      55.655  -1.250  32.956  0.00  0.00     0.045 A 
ATOM     13  C   UNL d   1      56.249  -0.967  32.458  0.00  0.00     0.196 A 
ATOM     14  O   UNL d   1      56.645  -1.486  31.950  0.00  0.00    -0.287 OA
ENDBRANCH   1   7
BRANCH   2  15
ATOM     15  C   UNL d   1      59.170   0.593  32.062  0.00  0.00     0.419 C 
ATOM     16  F   UNL d   1      59.869   0.682  32.324  0.00  0.00    -0.166 F 
ATOM     17  F   UNL d   1      59.442   0.652  32.878  0.00  0.00    -0.166 F 
ATOM     18  F   UNL d   1      59.919   0.664  31.627  0.00  0.00    -0.166 F 
ENDBRANCH   2  15
TORSDOF 2
ENDMDL
MODEL 7
REMARK VINA RESULT:      -4.9      2.823      3.864
REMARK  2 active torsions:
REMARK  status: ('A' for Active; 'I' for Inactive)
REMARK    1  A    between atoms: C_4  and  C_1 
REMARK    2  A    between atoms: C_2  and  C_7 
ROOT
ATOM      1  C   UNL d   1      57.359  -0.035  31.323  0.00  0.00     0.003 A 
ATOM      2  C   UNL d   1      58.050  -0.708  30.270  0.00  0.00     0.071 A 
ATOM      3  C   UNL d   1      57.699  -0.725  31.014  0.00  0.00     0.004 A 
ATOM      4  C   UNL d   1      57.369   0.662  30.893  0.00  0.00     0.000 A 
ATOM      5  C   UNL d   1      58.063  -0.008  29.830  0.00  0.00     0.004 A 
ATOM      6  C   UNL d   1      57.719   0.682  30.146  0.00  0.00    -0.000 A 
ENDROOT
BRANCH   1   7
ATOM      7  C   UNL d   1      57.008  -0.054  32.069  0.00  0.00     0.042 A 
ATOM      8  C   UNL d   1      56.280  -0.433  32.175  0.00  0.00     0.045 A 
ATOM      9  C   UNL d   1      55.930  -0.452  32.922  0.00  0.00     0.196 A 
ATOM     10  O   UNL d   1      55.202  -0.831  33.028  0.00  0.00    -0.287 OA
ATOM     11  C   UNL d   1      56.306  -0.094  33.562  0.00  0.00     0.045 A 
ATOM     12  C   UNL d   1      57.034   0.284  33.456  0.00  0.00     0.045 A 
ATOM     13  C   UNL d   1      57.385   0.304  32.710  0.00  0.00     0.196 A 
ATOM     14  O   UNL d   1      58.112   0.682  32.604  0.00  0.00    -0.287 OA
ENDBRANCH   1   7
BRANCH   2  15
ATOM     15  C   UNL d   1      58.390  -1.392  29.958  0.00  0.00     0.419 C 
ATOM     16  F   UNL d   1      58.702  -2.014  29.673  0.00  0.00    -0.166 F 
ATOM     17  F   UNL d   1      58.092  -2.201  29.961  0.00  0.00    -0.166 F 
ATOM     18  F   UNL d   1      59.145  -1.490  29.538  0.00  0.00    -0.166 F 
ENDBRANCH   2  15
TORSDOF 2
ENDMDL
MODEL 8
REMARK VINA RESULT:      -4.4      1.660      2.410
REMARK  2 active torsions:
REMARK  status: ('A' for Active; 'I' for Inactive)
REMARK    1  A    between atoms: C_4  and  C_1 
REMARK    2  A    between atoms: C_2  and  C_7 
ROOT
ATOM      1  C   UNL d   1      57.565  -0.296  31.114  0.00  0.00     0.003 A 
ATOM      2  C   UNL d   1      56.664  -0.579  32.185  0.00  0.00     0.071 A 
ATOM      3  C   UNL d   1      57.000  -0.791  31.465  0.00  0.00     0.004 A 
ATOM      4  C   UNL d   1      57.790   0.402  31.478  0.00  0.00     0.000 A 
ATOM      5  C   UNL d   1      56.886   0.125  32.559  0.00  0.00     0.004 A 
ATOM      6  C   UNL d   1      57.454   0.618  32.200  0.00  0.00    -0.000 A 
ENDROOT
BRANCH   1   7
ATOM      7  C   UNL d   1      57.900  -0.512  30.392  0.00  0.00     0.042 A 
ATOM      8  C   UNL d   1      58.327  -1.217  30.328  0.00  0.00     0.045 A 
ATOM      9  C   UNL d   1      58.662  -1.433  29.606  0.00  0.00     0.196 A 
ATOM     10  O   UNL d   1      59.089  -2.139  29.542  0.00  0.00    -0.287 OA
ATOM     11  C   UNL d   1      58.571  -0.945  28.948  0.00  0.00     0.045 A 
ATOM     12  C   UNL d   1      58.144  -0.239  29.012  0.00  0.00     0.045 A 
ATOM     13  C   UNL d   1      57.809  -0.023  29.734  0.00  0.00     0.196 A 
ATOM     14  O   UNL d   1      57.382   0.682  29.798  0.00  0.00    -0.287 OA
ENDBRANCH   1   7
BRANCH   2  15
ATOM     15  C   UNL d   1      56.101  -1.068  32.540  0.00  0.00     0.419 C 
ATOM     16  F   UNL d   1      55.588  -1.512  32.861  0.00  0.00    -0.166 F 
ATOM     17  F   UNL d   1      56.212  -1.811  32.963  0.00  0.00    -0.166 F 
ATOM     18  F   UNL d   1      55.239  -0.972  32.586  0.00  0.00    -0.166 F 
ENDBRANCH   2  15
TORSDOF 2
ENDMDL
MODEL 9
REMARK VINA RESULT:      -4.3      3.351      4.457
REMARK  2 active torsions:
REMARK  status: ('A' for Active; 'I' for Inactive)
REMARK    1  A    between atoms: C_4  and  C_1 
REMARK    2  A    between atoms: C_2  and  C_7 
ROOT
ATOM      1  C   UNL d   1      58.829  -1.163  29.121  0.00  0.00     0.003 A 
ATOM      2  C   UNL d   1      58.213  -0.161  29.931  0.00  0.00     0.071 A 
ATOM      3  C   UNL d   1      58.505  -0.926  29.846  0.00  0.00     0.004 A 
ATOM      4  C   UNL d   1      58.860  -0.643  28.489  0.00  0.00     0.000 A 
ATOM      5  C   UNL d   1      58.241   0.370  29.297  0.00  0.00     0.004 A 
ATOM      6  C   UNL d   1      58.568   0.124  28.571  0.00  0.00    -0.000 A 
ENDROOT
BRANCH   1   7
ATOM      7  C   UNL d   1      59.121  -1.930  29.040  0.00  0.00     0.042 A 
ATOM      8  C   UNL d   1      58.601  -2.559  28.905  0.00  0.00     0.045 A 
ATOM      9  C   UNL d   1      58.893  -3.326  28.824  0.00  0.00     0.196 A 
ATOM     10  O   UNL d   1      58.374  -3.955  28.690  0.00  0.00    -0.287 OA
ATOM     11  C   UNL d   1      59.705  -3.465  28.877  0.00  0.00     0.045 A 
ATOM     12  C   UNL d   1      60.225  -2.837  29.011  0.00  0.00     0.045 A 
ATOM     13  C   UNL d   1      59.933  -2.069  29.093  0.00  0.00     0.196 A 
ATOM     14  O   UNL d   1      60.453  -1.440  29.227  0.00  0.00    -0.287 OA
ENDBRANCH   1   7
BRANCH   2  15
ATOM     15  C   UNL d   1      57.890   0.081  30.650  0.00  0.00     0.419 C 
ATOM     16  F   UNL d   1      57.593   0.301  31.305  0.00  0.00    -0.166 F 
ATOM     17  F   UNL d   1      58.276   0.456  31.324  0.00  0.00    -0.166 F 
ATOM     18  F   UNL d   1      57.069   0.027  30.932  0.00  0.00    -0.166 F 
ENDBRANCH   2  15
TORSDOF 2
ENDMDL
