MODEL 1
REMARK VINA RESULT:      -2.9      0.000      0.000
REMARK  5 active torsions:
REMARK  status: ('A' for Active; 'I' for Inactive)
REMARK    1  A    between atoms: C_10  and  C_3 
REMARK    2  A    between atoms: N_13  and  C_4 
REMARK    3  A    between atoms: N_12  and  C_17 
REMARK    4  A    between atoms: C_16  and  N_13 
REMARK    5  A    between atoms: C_17  and  C_16 
ROOT
ATOM      1  C   UNL d   1      59.663  -1.366  29.461  0.00  0.00     0.150 A 
ATOM      2  N   UNL d   1      58.876  -1.432  29.716  0.00  0.00    -0.275 N 
ATOM      3  C   UNL d   1      60.078  -0.665  29.585  0.00  0.00     0.056 A 
ATOM      4  C   UNL d   1      58.501  -0.797  30.096  0.00  0.00     0.149 A 
ATOM      5  N   UNL d   1      60.028  -2.006  29.083  0.00  0.00    -0.227 NA
ATOM      6  C   UNL d   1      59.713  -0.028  29.962  0.00  0.00     0.007 A 
ATOM      7  C   UNL d   1      58.927  -0.094  30.216  0.00  0.00     0.038 A 
ATOM      8  C   UNL d   1      58.826  -2.782  29.210  0.00  0.00     0.084 A 
ATOM      9  C   UNL d   1      59.612  -2.716  28.956  0.00  0.00     0.099 A 
ATOM     10  C   UNL d   1      60.129   0.682  30.089  0.00  0.00     0.000 C 
ATOM     11  C   UNL d   1      58.400  -3.485  29.090  0.00  0.00     0.019 A 
ATOM     12  C   UNL d   1      59.977  -3.353  28.579  0.00  0.00     0.021 A 
ATOM     13  C   UNL d   1      58.775  -4.120  28.710  0.00  0.00     0.002 A 
ATOM     14  C   UNL d   1      59.561  -4.054  28.455  0.00  0.00     0.002 A 
ENDROOT
BRANCH   4  15
ATOM     15  N   UNL d   1      57.720  -0.862  30.349  0.00  0.00    -0.225 NA
BRANCH  15  16
ATOM     16  C   UNL d   1      57.491  -0.534  31.070  0.00  0.00     0.120 C 
BRANCH  16  17
ATOM     17  C   UNL d   1      56.706  -0.538  31.289  0.00  0.00     0.101 C 
BRANCH  17  18
ATOM     18  N   UNL d   1      56.490  -0.339  32.052  0.00  0.00    -0.298 N 
ATOM     19  C   UNL d   1      56.350  -0.934  32.605  0.00  0.00     0.107 A 
ATOM     20  C   UNL d   1      56.132  -0.738  33.377  0.00  0.00     0.142 A 
ATOM     21  O   UNL d   1      56.052   0.051  33.602  0.00  0.00    -0.300 OA
ATOM     22  C   UNL d   1      56.194   0.649  33.040  0.00  0.00     0.142 A 
ATOM     23  C   UNL d   1      56.412   0.453  32.269  0.00  0.00     0.107 A 
ENDBRANCH  17  18
ENDBRANCH  16  17
ENDBRANCH  15  16
ENDBRANCH   4  15
BRANCH   3  24
ATOM     24  C   UNL d   1      60.861  -0.599  29.331  0.00  0.00     0.125 C 
ATOM     25  N   UNL d   1      61.133   0.079  29.052  0.00  0.00    -0.146 N 
ENDBRANCH   3  24
TORSDOF 5
ENDMDL
MODEL 2
REMARK VINA RESULT:      -2.0      8.793      9.146
REMARK  5 active torsions:
REMARK  status: ('A' for Active; 'I' for Inactive)
REMARK    1  A    between atoms: C_10  and  C_3 
REMARK    2  A    between atoms: N_13  and  C_4 
REMARK    3  A    between atoms: N_12  and  C_17 
REMARK    4  A    between atoms: C_16  and  N_13 
REMARK    5  A    between atoms: C_17  and  C_16 
ROOT
ATOM      1  C   UNL d   1      58.703  -9.803  30.814  0.00  0.00     0.150 A 
ATOM      2  N   UNL d   1      59.354  -9.801  31.327  0.00  0.00    -0.275 N 
ATOM      3  C   UNL d   1      57.937  -9.808  31.119  0.00  0.00     0.056 A 
ATOM      4  C   UNL d   1      59.243  -9.803  32.149  0.00  0.00     0.149 A 
ATOM      5  N   UNL d   1      58.825  -9.801  29.994  0.00  0.00    -0.227 NA
ATOM      6  C   UNL d   1      57.818  -9.811  31.936  0.00  0.00     0.007 A 
ATOM      7  C   UNL d   1      58.469  -9.808  32.449  0.00  0.00     0.038 A 
ATOM      8  C   UNL d   1      60.247  -9.793  30.194  0.00  0.00     0.084 A 
ATOM      9  C   UNL d   1      59.597  -9.796  29.681  0.00  0.00     0.099 A 
ATOM     10  C   UNL d   1      57.046  -9.816  32.249  0.00  0.00     0.000 C 
ATOM     11  C   UNL d   1      61.022  -9.788  29.894  0.00  0.00     0.019 A 
ATOM     12  C   UNL d   1      59.716  -9.793  28.864  0.00  0.00     0.021 A 
ATOM     13  C   UNL d   1      61.132  -9.786  29.073  0.00  0.00     0.002 A 
ATOM     14  C   UNL d   1      60.482  -9.788  28.559  0.00  0.00     0.002 A 
ENDROOT
BRANCH   4  15
ATOM     15  N   UNL d   1      59.890  -9.800  32.660  0.00  0.00    -0.225 NA
BRANCH  15  16
ATOM     16  C   UNL d   1      59.791  -9.584  33.450  0.00  0.00     0.120 C 
BRANCH  16  17
ATOM     17  C   UNL d   1      60.420  -9.629  33.966  0.00  0.00     0.101 C 
BRANCH  17  18
ATOM     18  N   UNL d   1      60.369  -9.291  34.708  0.00  0.00    -0.298 N 
ATOM     19  C   UNL d   1      59.752  -9.503  35.213  0.00  0.00     0.107 A 
ATOM     20  C   UNL d   1      59.697  -9.164  35.963  0.00  0.00     0.142 A 
ATOM     21  O   UNL d   1      60.254  -8.611  36.216  0.00  0.00    -0.300 OA
ATOM     22  C   UNL d   1      60.875  -8.400  35.703  0.00  0.00     0.142 A 
ATOM     23  C   UNL d   1      60.931  -8.739  34.954  0.00  0.00     0.107 A 
ENDBRANCH  17  18
ENDBRANCH  16  17
ENDBRANCH  15  16
ENDBRANCH   4  15
BRANCH   3  24
ATOM     24  C   UNL d   1      57.289  -9.811  30.608  0.00  0.00     0.125 C 
ATOM     25  N   UNL d   1      56.560  -9.805  30.891  0.00  0.00    -0.146 N 
ENDBRANCH   3  24
TORSDOF 5
ENDMDL
