MODEL 1
REMARK VINA RESULT:      78.4      0.000      0.000
REMARK  8 active torsions:
REMARK  status: ('A' for Active; 'I' for Inactive)
REMARK    1  A    between atoms: C_3  and  C_1 
REMARK    2  A    between atoms: N_5  and  C_2 
REMARK    3  A    between atoms: N_4  and  C_3 
REMARK    4  A    between atoms: C_10  and  C_3 
REMARK    5  A    between atoms: C_13  and  N_4 
REMARK       I    between atoms: C_6  and  N_5 
REMARK    6  A    between atoms: C_8  and  C_13 
REMARK    7  A    between atoms: O_16  and  C_8 
REMARK    8  A    between atoms: C_21  and  O_16 
ROOT
ATOM      1  C   UNL d   1      60.008  48.837  50.920  0.00  0.00     0.083 C 
ENDROOT
BRANCH   1   2
ATOM      2  C   UNL d   1      60.484  48.652  51.567  0.00  0.00     0.036 A 
ATOM      3  C   UNL d   1      60.585  47.882  51.808  0.00  0.00     0.086 A 
ATOM      4  C   UNL d   1      61.061  47.697  52.456  0.00  0.00     0.020 A 
ATOM      5  C   UNL d   1      61.436  48.281  52.863  0.00  0.00     0.008 A 
ATOM      6  C   UNL d   1      61.340  49.088  52.625  0.00  0.00     0.035 A 
ATOM      7  C   UNL d   1      60.861  49.255  51.974  0.00  0.00     0.010 A 
ATOM      8 BR   UNL d   1      61.725  49.708  53.040  0.00  0.00    -0.049 Br
BRANCH   3   9
ATOM      9  N   UNL d   1      60.194  47.265  51.384  0.00  0.00    -0.208 NA
ATOM     10  C   UNL d   1      60.583  46.545  51.255  0.00  0.00     0.279 C 
ATOM     11  O   UNL d   1      60.210  45.956  50.851  0.00  0.00    -0.265 OA
ATOM     12  C   UNL d   1      61.341  46.417  51.532  0.00  0.00     0.068 C 
ENDBRANCH   3   9
ENDBRANCH   1   2
BRANCH   1  13
ATOM     13  N   UNL d   1      59.200  48.740  50.946  0.00  0.00    -0.238 NA
BRANCH  13  14
ATOM     14  C   UNL d   1      58.724  49.363  50.672  0.00  0.00     0.167 C 
BRANCH  14  15
ATOM     15  C   UNL d   1      57.889  49.272  50.725  0.00  0.00     0.320 C 
ATOM     16  O   UNL d   1      57.574  48.772  51.331  0.00  0.00    -0.257 OA
BRANCH  15  17
ATOM     17  O   UNL d   1      57.380  49.658  50.202  0.00  0.00    -0.270 OA
BRANCH  17  18
ATOM     18  C   UNL d   1      56.597  49.693  50.357  0.00  0.00     0.126 C 
ATOM     19  C   UNL d   1      56.113  49.023  50.346  0.00  0.00     0.029 C 
ENDBRANCH  17  18
ENDBRANCH  15  17
ENDBRANCH  14  15
ENDBRANCH  13  14
ENDBRANCH   1  13
BRANCH   1  20
ATOM     20  C   UNL d   1      60.353  49.126  50.233  0.00  0.00     0.018 A 
ATOM     21  C   UNL d   1      61.133  49.397  50.232  0.00  0.00     0.002 A 
ATOM     22  C   UNL d   1      61.493  49.687  49.560  0.00  0.00     0.000 A 
ATOM     23  C   UNL d   1      61.035  49.706  48.837  0.00  0.00     0.000 A 
ATOM     24  C   UNL d   1      60.255  49.437  48.831  0.00  0.00     0.000 A 
ATOM     25  C   UNL d   1      59.914  49.148  49.525  0.00  0.00     0.002 A 
ENDBRANCH   1  20
TORSDOF 8
ENDMDL
MODEL 2
REMARK VINA RESULT:      80.6      1.865      3.513
REMARK  8 active torsions:
REMARK  status: ('A' for Active; 'I' for Inactive)
REMARK    1  A    between atoms: C_3  and  C_1 
REMARK    2  A    between atoms: N_5  and  C_2 
REMARK    3  A    between atoms: N_4  and  C_3 
REMARK    4  A    between atoms: C_10  and  C_3 
REMARK    5  A    between atoms: C_13  and  N_4 
REMARK       I    between atoms: C_6  and  N_5 
REMARK    6  A    between atoms: C_8  and  C_13 
REMARK    7  A    between atoms: O_16  and  C_8 
REMARK    8  A    between atoms: C_21  and  O_16 
ROOT
ATOM      1  C   UNL d   1      60.073  48.581  50.806  0.00  0.00     0.083 C 
ENDROOT
BRANCH   1   2
ATOM      2  C   UNL d   1      59.346  48.954  50.923  0.00  0.00     0.036 A 
ATOM      3  C   UNL d   1      59.130  49.234  51.655  0.00  0.00     0.086 A 
ATOM      4  C   UNL d   1      58.404  49.606  51.772  0.00  0.00     0.020 A 
ATOM      5  C   UNL d   1      57.892  49.699  51.156  0.00  0.00     0.008 A 
ATOM      6  C   UNL d   1      58.103  49.412  50.388  0.00  0.00     0.035 A 
ATOM      7  C   UNL d   1      58.834  49.042  50.290  0.00  0.00     0.010 A 
ATOM      8 BR   UNL d   1      57.581  49.502  49.737  0.00  0.00    -0.049 Br
BRANCH   3   9
ATOM      9  N   UNL d   1      59.663  49.139  52.304  0.00  0.00    -0.208 NA
ATOM     10  C   UNL d   1      59.431  49.375  53.063  0.00  0.00     0.279 C 
ATOM     11  O   UNL d   1      59.939  49.284  53.682  0.00  0.00    -0.265 OA
ATOM     12  C   UNL d   1      58.693  49.700  53.199  0.00  0.00     0.068 C 
ENDBRANCH   3   9
ENDBRANCH   1   2
BRANCH   1  13
ATOM     13  N   UNL d   1      60.230  47.849  51.128  0.00  0.00    -0.238 NA
BRANCH  13  14
ATOM     14  C   UNL d   1      60.718  47.332  50.698  0.00  0.00     0.167 C 
BRANCH  14  15
ATOM     15  C   UNL d   1      60.823  46.552  50.996  0.00  0.00     0.320 C 
ATOM     16  O   UNL d   1      61.069  46.457  51.801  0.00  0.00    -0.257 OA
BRANCH  15  17
ATOM     17  O   UNL d   1      60.693  45.889  50.523  0.00  0.00    -0.270 OA
BRANCH  17  18
ATOM     18  C   UNL d   1      60.932  45.167  50.770  0.00  0.00     0.126 C 
ATOM     19  C   UNL d   1      61.414  44.679  50.309  0.00  0.00     0.029 C 
ENDBRANCH  17  18
ENDBRANCH  15  17
ENDBRANCH  14  15
ENDBRANCH  13  14
ENDBRANCH   1  13
BRANCH   1  20
ATOM     20  C   UNL d   1      60.651  48.952  50.357  0.00  0.00     0.018 A 
ATOM     21  C   UNL d   1      60.608  48.960  49.533  0.00  0.00     0.002 A 
ATOM     22  C   UNL d   1      61.172  49.324  49.071  0.00  0.00     0.000 A 
ATOM     23  C   UNL d   1      61.828  49.708  49.467  0.00  0.00     0.000 A 
ATOM     24  C   UNL d   1      61.877  49.703  50.290  0.00  0.00     0.000 A 
ATOM     25  C   UNL d   1      61.292  49.328  50.735  0.00  0.00     0.002 A 
ENDBRANCH   1  20
TORSDOF 8
ENDMDL
