MODEL 1
REMARK VINA RESULT:      22.2      0.000      0.000
REMARK  4 active torsions:
REMARK  status: ('A' for Active; 'I' for Inactive)
REMARK    1  A    between atoms: C_2  and  S_1 
REMARK    2  A    between atoms: N_4  and  S_1 
REMARK    3  A    between atoms: O_12  and  C_5 
REMARK    4  A    between atoms: O_13  and  C_7 
ROOT
ATOM      1  C   UNL d   1      46.188 -18.154  43.273  0.00  0.00     0.128 A 
ATOM      2  C   UNL d   1      46.091 -18.197  42.455  0.00  0.00     0.040 A 
ATOM      3  C   UNL d   1      46.435 -18.813  43.696  0.00  0.00     0.107 A 
ATOM      4  C   UNL d   1      46.587 -19.520  43.303  0.00  0.00     0.034 A 
ATOM      5  C   UNL d   1      46.243 -18.904  42.062  0.00  0.00     0.101 A 
ATOM      6  C   UNL d   1      46.493 -19.572  42.485  0.00  0.00     0.059 A 
ATOM      7 BR   UNL d   1      46.644 -20.276  42.093  0.00  0.00    -0.047 Br
ENDROOT
BRANCH   1   8
ATOM      8  S   UNL d   1      46.036 -17.442  43.669  0.00  0.00     0.273 S 
ATOM      9  O   UNL d   1      45.453 -17.259  43.115  0.00  0.00    -0.200 OA
ATOM     10  O   UNL d   1      46.621 -17.626  44.225  0.00  0.00    -0.200 OA
BRANCH   8  11
ATOM     11  N   UNL d   1      45.884 -16.734  44.062  0.00  0.00    -0.229 N 
ATOM     12  C   UNL d   1      45.095 -16.588  44.249  0.00  0.00     0.092 A 
ATOM     13  C   UNL d   1      44.765 -15.939  44.636  0.00  0.00     0.020 A 
ATOM     14  C   UNL d   1      45.142 -15.269  44.936  0.00  0.00     0.002 A 
ATOM     15  C   UNL d   1      45.949 -15.090  44.919  0.00  0.00     0.002 A 
ATOM     16  C   UNL d   1      46.569 -15.529  44.602  0.00  0.00     0.020 A 
ATOM     17  C   UNL d   1      46.548 -16.260  44.220  0.00  0.00     0.092 A 
ENDBRANCH   8  11
ENDBRANCH   1   8
BRANCH   3  18
ATOM     18  O   UNL d   1      46.530 -18.766  44.508  0.00  0.00    -0.327 OA
ATOM     19  C   UNL d   1      46.619 -19.454  44.954  0.00  0.00     0.181 C 
ENDBRANCH   3  18
BRANCH   5  20
ATOM     20  O   UNL d   1      46.148 -18.950  41.251  0.00  0.00    -0.328 OA
ATOM     21  C   UNL d   1      46.646 -18.530  40.754  0.00  0.00     0.181 C 
ENDBRANCH   5  20
TORSDOF 4
ENDMDL
MODEL 2
REMARK VINA RESULT:      24.7      2.316      4.343
REMARK  4 active torsions:
REMARK  status: ('A' for Active; 'I' for Inactive)
REMARK    1  A    between atoms: C_2  and  S_1 
REMARK    2  A    between atoms: N_4  and  S_1 
REMARK    3  A    between atoms: O_12  and  C_5 
REMARK    4  A    between atoms: O_13  and  C_7 
ROOT
ATOM      1  C   UNL d   1      45.640 -15.354  44.413  0.00  0.00     0.128 A 
ATOM      2  C   UNL d   1      46.204 -14.778  44.238  0.00  0.00     0.040 A 
ATOM      3  C   UNL d   1      44.925 -15.142  44.757  0.00  0.00     0.107 A 
ATOM      4  C   UNL d   1      44.770 -14.353  44.929  0.00  0.00     0.034 A 
ATOM      5  C   UNL d   1      46.049 -13.988  44.409  0.00  0.00     0.101 A 
ATOM      6  C   UNL d   1      45.328 -13.770  44.757  0.00  0.00     0.059 A 
ATOM      7 BR   UNL d   1      45.174 -12.983  44.929  0.00  0.00    -0.047 Br
ENDROOT
BRANCH   1   8
ATOM      8  S   UNL d   1      45.796 -16.148  44.240  0.00  0.00     0.273 S 
ATOM      9  O   UNL d   1      46.198 -16.225  44.955  0.00  0.00    -0.200 OA
ATOM     10  O   UNL d   1      45.392 -16.071  43.521  0.00  0.00    -0.200 OA
BRANCH   8  11
ATOM     11  N   UNL d   1      45.952 -16.939  44.068  0.00  0.00    -0.229 N 
ATOM     12  C   UNL d   1      46.126 -17.420  44.713  0.00  0.00     0.092 A 
ATOM     13  C   UNL d   1      46.304 -18.225  44.726  0.00  0.00     0.020 A 
ATOM     14  C   UNL d   1      46.354 -18.755  44.095  0.00  0.00     0.002 A 
ATOM     15  C   UNL d   1      46.235 -18.600  43.292  0.00  0.00     0.002 A 
ATOM     16  C   UNL d   1      46.040 -17.889  42.926  0.00  0.00     0.020 A 
ATOM     17  C   UNL d   1      45.913 -17.147  43.264  0.00  0.00     0.092 A 
ENDBRANCH   8  11
ENDBRANCH   1   8
BRANCH   3  18
ATOM     18  O   UNL d   1      44.368 -15.716  44.930  0.00  0.00    -0.327 OA
ATOM     19  C   UNL d   1      43.567 -15.522  44.955  0.00  0.00     0.181 C 
ENDBRANCH   3  18
BRANCH   5  20
ATOM     20  O   UNL d   1      46.605 -13.414  44.237  0.00  0.00    -0.328 OA
ATOM     21  C   UNL d   1      46.556 -12.676  44.589  0.00  0.00     0.181 C 
ENDBRANCH   5  20
TORSDOF 4
ENDMDL
