MODEL 1
REMARK VINA RESULT:      21.4      0.000      0.000
REMARK  4 active torsions:
REMARK  status: ('A' for Active; 'I' for Inactive)
REMARK    1  A    between atoms: C_18  and  C_5 
REMARK    2  A    between atoms: C_7  and  C_8 
REMARK       I    between atoms: C_8  and  N_17 
REMARK    3  A    between atoms: N_17  and  C_19 
REMARK    4  A    between atoms: C_19  and  C_18 
ROOT
ATOM      1  C   UNL d   1      14.001  11.981  -1.319  0.00  0.00     0.148 A 
ATOM      2  N   UNL d   1      14.686  12.139  -1.754  0.00  0.00    -0.288 N 
ATOM      3  N   UNL d   1      13.395  11.831  -1.846  0.00  0.00    -0.227 NA
ATOM      4  C   UNL d   1      14.488  12.082  -2.557  0.00  0.00     0.101 A 
ATOM      5  C   UNL d   1      13.689  11.892  -2.608  0.00  0.00     0.102 A 
ATOM      6  C   UNL d   1      14.035  11.999  -0.495  0.00  0.00     0.035 A 
ATOM      7  C   UNL d   1      15.394  12.312  -1.373  0.00  0.00     0.082 A 
ATOM      8  C   UNL d   1      15.422  12.328  -0.554  0.00  0.00     0.019 A 
ATOM      9  C   UNL d   1      14.738  12.171  -0.107  0.00  0.00     0.004 A 
ATOM     10  C   UNL d   1      13.349  11.841  -0.045  0.00  0.00     0.003 C 
ENDROOT
BRANCH   5  11
ATOM     11  C   UNL d   1      13.252  11.780  -3.305  0.00  0.00     0.042 C 
BRANCH  11  12
ATOM     12  C   UNL d   1      13.347  12.302  -3.941  0.00  0.00     0.104 C 
BRANCH  12  13
ATOM     13  N   UNL d   1      13.236  12.039  -4.709  0.00  0.00    -0.205 NA
ATOM     14  C   UNL d   1      13.163  12.583  -5.329  0.00  0.00     0.302 C 
ATOM     15  O   UNL d   1      13.053  12.316  -6.089  0.00  0.00    -0.263 OA
BRANCH  14  16
ATOM     16  C   UNL d   1      13.203  13.393  -5.166  0.00  0.00     0.158 A 
ATOM     17  O   UNL d   1      12.920  13.682  -4.454  0.00  0.00    -0.300 OA
ATOM     18  C   UNL d   1      13.032  14.501  -4.446  0.00  0.00     0.123 A 
ATOM     19  C   UNL d   1      13.381  14.716  -5.149  0.00  0.00     0.029 A 
ATOM     20  C   UNL d   1      13.490  14.026  -5.604  0.00  0.00     0.032 A 
ENDBRANCH  14  16
ENDBRANCH  12  13
ENDBRANCH  11  12
ENDBRANCH   5  11
TORSDOF 4
ENDMDL
