MODEL 1
REMARK VINA RESULT:      31.7      0.000      0.000
REMARK  7 active torsions:
REMARK  status: ('A' for Active; 'I' for Inactive)
REMARK    1  A    between atoms: C_2  and  S_1 
REMARK    2  A    between atoms: N_4  and  S_1 
REMARK    3  A    between atoms: C_13  and  N_4 
REMARK    4  A    between atoms: C_14  and  N_4 
REMARK    5  A    between atoms: O_12  and  C_7 
REMARK    6  A    between atoms: C_16  and  C_13 
REMARK    7  A    between atoms: C_17  and  C_14 
ROOT
ATOM      1  S   UNL d   1     -56.540 -99.593 -44.182  0.00  0.00     0.271 S 
ATOM      2  O   UNL d   1     -56.445 -99.483 -43.370  0.00  0.00    -0.200 OA
ATOM      3  O   UNL d   1     -56.635 -99.704 -44.994  0.00  0.00    -0.200 OA
ENDROOT
BRANCH   1   4
ATOM      4  C   UNL d   1     -57.332 -99.403 -44.115  0.00  0.00     0.106 A 
ATOM      5  C   UNL d   1     -57.760 -99.177 -44.781  0.00  0.00     0.038 A 
ATOM      6  C   UNL d   1     -58.558 -98.986 -44.714  0.00  0.00     0.105 A 
ATOM      7  C   UNL d   1     -58.927 -99.020 -43.981  0.00  0.00     0.080 A 
ATOM      8  C   UNL d   1     -58.503 -99.245 -43.314  0.00  0.00     0.014 A 
ATOM      9 CL   UNL d   1     -59.726 -98.828 -43.914  0.00  0.00    -0.080 Cl
ATOM     10  C   UNL d   1     -57.704 -99.437 -43.381  0.00  0.00     0.014 A 
BRANCH   6  11
ATOM     11  O   UNL d   1     -58.983 -98.761 -45.381  0.00  0.00    -0.327 OA
ATOM     12  C   UNL d   1     -59.487 -99.300 -45.748  0.00  0.00     0.181 C 
ENDBRANCH   6  11
ENDBRANCH   1   4
BRANCH   1  13
ATOM     13  N   UNL d   1     -55.740 -99.785 -44.250  0.00  0.00    -0.229 N 
BRANCH  13  14
ATOM     14  C   UNL d   1     -55.166 -99.215 -44.098  0.00  0.00     0.092 C 
BRANCH  14  15
ATOM     15  C   UNL d   1     -54.867 -98.756 -44.715  0.00  0.00     0.020 C 
ATOM     16  C   UNL d   1     -55.083 -98.918 -45.492  0.00  0.00     0.002 C 
ENDBRANCH  14  15
ENDBRANCH  13  14
BRANCH  13  17
ATOM     17  C   UNL d   1     -55.516-100.546 -44.468  0.00  0.00     0.092 C 
BRANCH  17  18
ATOM     18  C   UNL d   1     -54.987-100.971 -44.000  0.00  0.00     0.020 C 
ATOM     19  C   UNL d   1     -54.894-101.785 -44.117  0.00  0.00     0.002 C 
ENDBRANCH  17  18
ENDBRANCH  13  17
ENDBRANCH   1  13
TORSDOF 7
ENDMDL
