MODEL 1
REMARK VINA RESULT:      82.6      0.000      0.000
REMARK  9 active torsions:
REMARK  status: ('A' for Active; 'I' for Inactive)
REMARK    1  A    between atoms: N_2  and  S_1 
REMARK    2  A    between atoms: C_12  and  S_1 
REMARK    3  A    between atoms: C_4  and  N_2 
REMARK    4  A    between atoms: N_6  and  C_8 
REMARK       I    between atoms: C_9  and  N_6 
REMARK    5  A    between atoms: O_22  and  C_7 
REMARK    6  A    between atoms: C_8  and  N_15 
REMARK    7  A    between atoms: C_16  and  C_9 
REMARK    8  A    between atoms: O_23  and  C_10 
REMARK    9  A    between atoms: N_15  and  C_21 
ROOT
ATOM      1  C   UNL d   1      60.561  48.271  50.350  0.00  0.00     0.105 A 
ATOM      2  C   UNL d   1      61.043  48.131  49.716  0.00  0.00     0.015 A 
ATOM      3  C   UNL d   1      60.482  47.709  50.943  0.00  0.00     0.015 A 
ATOM      4  C   UNL d   1      61.382  46.855  50.259  0.00  0.00     0.084 A 
ATOM      5  C   UNL d   1      61.461  47.438  49.649  0.00  0.00     0.020 A 
ATOM      6  C   UNL d   1      60.891  47.010  50.893  0.00  0.00     0.020 A 
ENDROOT
BRANCH   1   7
ATOM      7  S   UNL d   1      60.134  48.987  50.413  0.00  0.00     0.287 S 
ATOM      8  O   UNL d   1      59.665  48.638  51.015  0.00  0.00    -0.198 OA
ATOM      9  O   UNL d   1      60.599  49.320  49.823  0.00  0.00    -0.198 OA
BRANCH   7  10
ATOM     10  N   UNL d   1      59.695  49.690  50.494  0.00  0.00    -0.139 NA
BRANCH  10  11
ATOM     11  C   UNL d   1      58.868  49.695  50.438  0.00  0.00     0.182 A 
ATOM     12  N   UNL d   1      58.515  49.698  49.723  0.00  0.00    -0.185 NA
ATOM     13  C   UNL d   1      57.691  49.703  49.654  0.00  0.00     0.274 A 
ATOM     14  N   UNL d   1      57.235  49.706  50.312  0.00  0.00    -0.181 NA
ATOM     15  C   UNL d   1      57.569  49.704  51.058  0.00  0.00     0.185 A 
ATOM     16  C   UNL d   1      58.434  49.698  51.116  0.00  0.00     0.084 A 
BRANCH  13  17
ATOM     17  O   UNL d   1      57.316  49.706  48.899  0.00  0.00    -0.297 OA
ATOM     18  C   UNL d   1      56.510  49.575  48.828  0.00  0.00     0.185 C 
ENDBRANCH  13  17
BRANCH  15  19
ATOM     19  O   UNL d   1      57.069  49.707  51.716  0.00  0.00    -0.312 OA
ATOM     20  C   UNL d   1      56.412  49.209  51.738  0.00  0.00     0.183 C 
ENDBRANCH  15  19
ENDBRANCH  10  11
ENDBRANCH   7  10
ENDBRANCH   1   7
BRANCH   4  21
ATOM     21  N   UNL d   1      61.791  46.135  50.226  0.00  0.00    -0.217 NA
BRANCH  21  22
ATOM     22  C   UNL d   1      61.405  45.449  50.400  0.00  0.00     0.223 C 
ATOM     23  S   UNL d   1      60.572  45.411  50.352  0.00  0.00    -0.037 SA
BRANCH  22  24
ATOM     24  N   UNL d   1      61.832  44.792  50.623  0.00  0.00    -0.183 NA
ATOM     25  C   UNL d   1      61.456  44.104  50.860  0.00  0.00     0.257 C 
ATOM     26  O   UNL d   1      60.611  44.083  50.870  0.00  0.00    -0.270 OA
BRANCH  25  27
ATOM     27  C   UNL d   1      61.888  43.439  51.085  0.00  0.00     0.073 C 
ATOM     28  C   UNL d   1      61.566  43.490  51.854  0.00  0.00     0.009 C 
ATOM     29  C   UNL d   1      62.209  43.388  50.320  0.00  0.00     0.009 C 
ATOM     30  C   UNL d   1      62.324  42.768  51.313  0.00  0.00     0.009 C 
ENDBRANCH  25  27
ENDBRANCH  22  24
ENDBRANCH  21  22
ENDBRANCH   4  21
TORSDOF 9
ENDMDL
MODEL 2
REMARK VINA RESULT:      84.4      1.251      5.617
REMARK  9 active torsions:
REMARK  status: ('A' for Active; 'I' for Inactive)
REMARK    1  A    between atoms: N_2  and  S_1 
REMARK    2  A    between atoms: C_12  and  S_1 
REMARK    3  A    between atoms: C_4  and  N_2 
REMARK    4  A    between atoms: N_6  and  C_8 
REMARK       I    between atoms: C_9  and  N_6 
REMARK    5  A    between atoms: O_22  and  C_7 
REMARK    6  A    between atoms: C_8  and  N_15 
REMARK    7  A    between atoms: C_16  and  C_9 
REMARK    8  A    between atoms: O_23  and  C_10 
REMARK    9  A    between atoms: N_15  and  C_21 
ROOT
ATOM      1  C   UNL d   1      60.918  47.727  50.437  0.00  0.00     0.105 A 
ATOM      2  C   UNL d   1      61.208  48.478  50.358  0.00  0.00     0.015 A 
ATOM      3  C   UNL d   1      60.131  47.605  50.638  0.00  0.00     0.015 A 
ATOM      4  C   UNL d   1      59.921  49.007  50.682  0.00  0.00     0.084 A 
ATOM      5  C   UNL d   1      60.734  49.128  50.475  0.00  0.00     0.020 A 
ATOM      6  C   UNL d   1      59.643  48.242  50.758  0.00  0.00     0.020 A 
ENDROOT
BRANCH   1   7
ATOM      7  S   UNL d   1      61.411  47.064  50.316  0.00  0.00     0.287 S 
ATOM      8  O   UNL d   1      61.305  46.856  51.122  0.00  0.00    -0.198 OA
ATOM      9  O   UNL d   1      61.508  47.275  49.528  0.00  0.00    -0.198 OA
BRANCH   7  10
ATOM     10  N   UNL d   1      61.899  46.396  50.219  0.00  0.00    -0.139 NA
BRANCH  10  11
ATOM     11  C   UNL d   1      61.592  45.626  50.240  0.00  0.00     0.182 A 
ATOM     12  N   UNL d   1      61.488  45.255  50.938  0.00  0.00    -0.185 NA
ATOM     13  C   UNL d   1      61.183  44.488  50.973  0.00  0.00     0.274 A 
ATOM     14  N   UNL d   1      60.987  44.105  50.297  0.00  0.00    -0.181 NA
ATOM     15  C   UNL d   1      61.083  44.460  49.567  0.00  0.00     0.185 A 
ATOM     16  C   UNL d   1      61.404  45.265  49.545  0.00  0.00     0.084 A 
BRANCH  13  17
ATOM     17  O   UNL d   1      61.072  44.095  51.710  0.00  0.00    -0.297 OA
ATOM     18  C   UNL d   1      61.702  43.744  52.100  0.00  0.00     0.185 C 
ENDBRANCH  13  17
BRANCH  15  19
ATOM     19  O   UNL d   1      60.871  44.037  48.890  0.00  0.00    -0.312 OA
ATOM     20  C   UNL d   1      60.121  43.698  48.833  0.00  0.00     0.183 C 
ENDBRANCH  15  19
ENDBRANCH  10  11
ENDBRANCH   7  10
ENDBRANCH   1   7
BRANCH   4  21
ATOM     21  N   UNL d   1      59.407  49.643  50.809  0.00  0.00    -0.217 NA
BRANCH  21  22
ATOM     22  C   UNL d   1      58.647  49.501  51.041  0.00  0.00     0.223 C 
ATOM     23  S   UNL d   1      58.492  49.147  51.781  0.00  0.00    -0.037 SA
BRANCH  22  24
ATOM     24  N   UNL d   1      58.031  49.706  50.548  0.00  0.00    -0.183 NA
ATOM     25  C   UNL d   1      57.436  49.172  50.372  0.00  0.00     0.257 C 
ATOM     26  O   UNL d   1      57.468  48.398  50.709  0.00  0.00    -0.270 OA
BRANCH  25  27
ATOM     27  C   UNL d   1      56.812  49.379  49.873  0.00  0.00     0.073 C 
ATOM     28  C   UNL d   1      57.270  49.160  49.210  0.00  0.00     0.009 C 
ATOM     29  C   UNL d   1      56.357  49.597  50.535  0.00  0.00     0.009 C 
ATOM     30  C   UNL d   1      56.183  49.588  49.371  0.00  0.00     0.009 C 
ENDBRANCH  25  27
ENDBRANCH  22  24
ENDBRANCH  21  22
ENDBRANCH   4  21
TORSDOF 9
ENDMDL
