MODEL 1
REMARK VINA RESULT:      -1.8      0.000      0.000
REMARK  4 active torsions:
REMARK  status: ('A' for Active; 'I' for Inactive)
REMARK    1  A    between atoms: N_5  and  C_1 
REMARK    2  A    between atoms: C_9  and  C_4 
REMARK    3  A    between atoms: C_8  and  N_5 
REMARK    4  A    between atoms: O_12  and  C_9 
ROOT
ATOM      1  N   UNL d   1      32.958  21.289 -22.139  0.00  0.00    -0.222 NA
ENDROOT
BRANCH   1   2
ATOM      2  C   UNL d   1      33.041  20.777 -22.793  0.00  0.00     0.186 A 
ATOM      3  O   UNL d   1      33.082  20.995 -23.582  0.00  0.00    -0.255 OA
ATOM      4  C   UNL d   1      33.161  20.346 -24.055  0.00  0.00     0.301 A 
ATOM      5  O   UNL d   1      33.221  20.347 -24.896  0.00  0.00    -0.259 OA
ATOM      6  C   UNL d   1      33.173  19.685 -23.562  0.00  0.00     0.067 A 
ATOM      7  C   UNL d   1      33.099  19.952 -22.781  0.00  0.00     0.046 A 
ATOM      8  C   UNL d   1      33.241  18.877 -23.713  0.00  0.00     0.005 A 
ATOM      9  C   UNL d   1      33.093  19.408 -22.159  0.00  0.00     0.004 A 
ATOM     10  C   UNL d   1      33.161  18.601 -22.314  0.00  0.00     0.000 A 
ATOM     11  C   UNL d   1      33.235  18.335 -23.095  0.00  0.00     0.000 A 
ENDBRANCH   1   2
BRANCH   1  12
ATOM     12  C   UNL d   1      32.804  22.122 -22.231  0.00  0.00     0.089 A 
ATOM     13  C   UNL d   1      32.533  22.551 -21.638  0.00  0.00     0.081 A 
ATOM     14  C   UNL d   1      32.387  23.355 -21.738  0.00  0.00     0.007 A 
ATOM     15  C   UNL d   1      32.536  23.702 -22.483  0.00  0.00     0.000 A 
ATOM     16  C   UNL d   1      32.822  23.236 -23.096  0.00  0.00     0.002 A 
ATOM     17  C   UNL d   1      32.961  22.441 -22.981  0.00  0.00     0.019 A 
BRANCH  13  18
ATOM     18  C   UNL d   1      32.400  22.167 -20.919  0.00  0.00     0.297 C 
ATOM     19  O   UNL d   1      31.688  21.786 -20.781  0.00  0.00    -0.259 OA
BRANCH  18  20
ATOM     20  O   UNL d   1      32.992  22.171 -20.343  0.00  0.00    -0.296 OA
ATOM     21  C   UNL d   1      32.770  22.115 -19.541  0.00  0.00     0.185 C 
ENDBRANCH  18  20
ENDBRANCH  13  18
ENDBRANCH   1  12
TORSDOF 4
ENDMDL
MODEL 2
REMARK VINA RESULT:      -0.5      2.677      4.297
REMARK  4 active torsions:
REMARK  status: ('A' for Active; 'I' for Inactive)
REMARK    1  A    between atoms: N_5  and  C_1 
REMARK    2  A    between atoms: C_9  and  C_4 
REMARK    3  A    between atoms: C_8  and  N_5 
REMARK    4  A    between atoms: O_12  and  C_9 
ROOT
ATOM      1  N   UNL d   1      32.090  18.325 -24.193  0.00  0.00    -0.222 NA
ENDROOT
BRANCH   1   2
ATOM      2  C   UNL d   1      31.720  17.594 -24.036  0.00  0.00     0.186 A 
ATOM      3  O   UNL d   1      32.069  16.930 -23.705  0.00  0.00    -0.255 OA
ATOM      4  C   UNL d   1      31.534  16.328 -23.639  0.00  0.00     0.301 A 
ATOM      5  O   UNL d   1      31.686  15.561 -23.326  0.00  0.00    -0.259 OA
ATOM      6  C   UNL d   1      30.816  16.606 -23.935  0.00  0.00     0.067 A 
ATOM      7  C   UNL d   1      30.931  17.390 -24.181  0.00  0.00     0.046 A 
ATOM      8  C   UNL d   1      30.074  16.258 -24.016  0.00  0.00     0.005 A 
ATOM      9  C   UNL d   1      30.302  17.816 -24.505  0.00  0.00     0.004 A 
ATOM     10  C   UNL d   1      29.561  17.464 -24.584  0.00  0.00     0.000 A 
ATOM     11  C   UNL d   1      29.446  16.680 -24.339  0.00  0.00     0.000 A 
ENDBRANCH   1   2
BRANCH   1  12
ATOM     12  C   UNL d   1      32.468  18.783 -23.581  0.00  0.00     0.089 A 
ATOM     13  C   UNL d   1      32.861  19.437 -23.749  0.00  0.00     0.081 A 
ATOM     14  C   UNL d   1      33.221  19.871 -23.150  0.00  0.00     0.007 A 
ATOM     15  C   UNL d   1      33.159  19.601 -22.362  0.00  0.00     0.000 A 
ATOM     16  C   UNL d   1      32.741  18.912 -22.203  0.00  0.00     0.002 A 
ATOM     17  C   UNL d   1      32.390  18.492 -22.807  0.00  0.00     0.019 A 
BRANCH  13  18
ATOM     18  C   UNL d   1      32.897  19.666 -24.541  0.00  0.00     0.297 C 
ATOM     19  O   UNL d   1      33.241  19.173 -25.097  0.00  0.00    -0.259 OA
BRANCH  18  20
ATOM     20  O   UNL d   1      32.584  20.396 -24.765  0.00  0.00    -0.296 OA
ATOM     21  C   UNL d   1      33.099  20.978 -25.068  0.00  0.00     0.185 C 
ENDBRANCH  18  20
ENDBRANCH  13  18
ENDBRANCH   1  12
TORSDOF 4
ENDMDL
MODEL 3
REMARK VINA RESULT:      -0.4      3.963      5.750
REMARK  4 active torsions:
REMARK  status: ('A' for Active; 'I' for Inactive)
REMARK    1  A    between atoms: N_5  and  C_1 
REMARK    2  A    between atoms: C_9  and  C_4 
REMARK    3  A    between atoms: C_8  and  N_5 
REMARK    4  A    between atoms: O_12  and  C_9 
ROOT
ATOM      1  N   UNL d   1      30.328  17.308 -23.965  0.00  0.00    -0.222 NA
ENDROOT
BRANCH   1   2
ATOM      2  C   UNL d   1      31.122  17.168 -24.183  0.00  0.00     0.186 A 
ATOM      3  O   UNL d   1      31.416  16.502 -24.559  0.00  0.00    -0.255 OA
ATOM      4  C   UNL d   1      32.212  16.568 -24.677  0.00  0.00     0.301 A 
ATOM      5  O   UNL d   1      32.709  15.996 -25.046  0.00  0.00    -0.259 OA
ATOM      6  C   UNL d   1      32.445  17.297 -24.370  0.00  0.00     0.067 A 
ATOM      7  C   UNL d   1      31.770  17.669 -24.064  0.00  0.00     0.046 A 
ATOM      8  C   UNL d   1      33.175  17.676 -24.326  0.00  0.00     0.005 A 
ATOM      9  C   UNL d   1      31.834  18.416 -23.716  0.00  0.00     0.004 A 
ATOM     10  C   UNL d   1      32.566  18.791 -23.674  0.00  0.00     0.000 A 
ATOM     11  C   UNL d   1      33.241  18.420 -23.980  0.00  0.00     0.000 A 
ENDBRANCH   1   2
BRANCH   1  12
ATOM     12  C   UNL d   1      29.811  16.681 -23.708  0.00  0.00     0.089 A 
ATOM     13  C   UNL d   1      29.050  16.689 -23.880  0.00  0.00     0.081 A 
ATOM     14  C   UNL d   1      28.559  16.079 -23.627  0.00  0.00     0.007 A 
ATOM     15  C   UNL d   1      28.891  15.452 -23.183  0.00  0.00     0.000 A 
ATOM     16  C   UNL d   1      29.694  15.460 -23.011  0.00  0.00     0.002 A 
ATOM     17  C   UNL d   1      30.167  16.072 -23.270  0.00  0.00     0.019 A 
BRANCH  13  18
ATOM     18  C   UNL d   1      28.765  17.327 -24.320  0.00  0.00     0.297 C 
ATOM     19  O   UNL d   1      28.526  17.217 -25.096  0.00  0.00    -0.259 OA
BRANCH  18  20
ATOM     20  O   UNL d   1      28.724  18.074 -23.970  0.00  0.00    -0.296 OA
ATOM     21  C   UNL d   1      28.139  18.607 -24.232  0.00  0.00     0.185 C 
ENDBRANCH  18  20
ENDBRANCH  13  18
ENDBRANCH   1  12
TORSDOF 4
ENDMDL
