MODEL 1
REMARK VINA RESULT:      55.0      0.000      0.000
REMARK  5 active torsions:
REMARK  status: ('A' for Active; 'I' for Inactive)
REMARK    1  A    between atoms: S_9  and  C_2 
REMARK    2  A    between atoms: C_19  and  S_9 
REMARK    3  A    between atoms: C_11  and  C_19 
REMARK       I    between atoms: N_16  and  C_11 
REMARK    4  A    between atoms: C_22  and  N_16 
REMARK    5  A    between atoms: C_21  and  C_22 
ROOT
ATOM      1  C   UNL d   1     -50.823  24.930  33.317  0.00  0.00     0.092 A 
ATOM      2  C   UNL d   1     -50.761  25.759  33.313  0.00  0.00     0.120 A 
ATOM      3  N   UNL d   1     -51.440  26.216  33.309  0.00  0.00    -0.238 NA
ATOM      4  C   UNL d   1     -51.564  24.559  33.317  0.00  0.00     0.013 A 
ATOM      5  C   UNL d   1     -52.246  25.037  33.313  0.00  0.00     0.018 A 
ATOM      6  C   UNL d   1     -52.185  25.859  33.309  0.00  0.00     0.082 A 
ATOM      7  C   UNL d   1     -50.132  24.464  33.320  0.00  0.00     0.103 C 
ATOM      8  N   UNL d   1     -49.454  23.995  33.324  0.00  0.00    -0.191 NA
ATOM      9  C   UNL d   1     -51.626  23.738  33.321  0.00  0.00     0.001 A 
ATOM     10  C   UNL d   1     -52.996  24.676  33.314  0.00  0.00     0.002 A 
ATOM     11  C   UNL d   1     -52.864  26.323  33.306  0.00  0.00     0.021 C 
ATOM     12  C   UNL d   1     -52.367  23.380  33.322  0.00  0.00     0.000 A 
ATOM     13  C   UNL d   1     -53.058  23.846  33.318  0.00  0.00     0.000 A 
ENDROOT
BRANCH   2  14
ATOM     14  S   UNL d   1     -50.012  26.116  33.312  0.00  0.00    -0.062 SA
BRANCH  14  15
ATOM     15  C   UNL d   1     -49.865  26.759  33.810  0.00  0.00     0.099 C 
BRANCH  15  16
ATOM     16  C   UNL d   1     -49.099  27.053  33.882  0.00  0.00     0.286 C 
ATOM     17  N   UNL d   1     -48.958  27.720  34.351  0.00  0.00    -0.206 NA
ATOM     18  O   UNL d   1     -48.471  26.685  33.487  0.00  0.00    -0.265 OA
BRANCH  17  19
ATOM     19  C   UNL d   1     -48.193  28.024  34.429  0.00  0.00     0.102 C 
BRANCH  19  20
ATOM     20  C   UNL d   1     -48.046  28.644  34.955  0.00  0.00     0.021 A 
ATOM     21  C   UNL d   1     -47.819  29.377  34.666  0.00  0.00     0.028 A 
ATOM     22  C   UNL d   1     -47.672  29.997  35.191  0.00  0.00     0.119 A 
ATOM     23  O   UNL d   1     -47.441  30.777  35.065  0.00  0.00    -0.300 OA
ATOM     24  C   UNL d   1     -47.752  29.880  35.994  0.00  0.00     0.119 A 
ATOM     25  C   UNL d   1     -47.378  31.143  35.802  0.00  0.00     0.304 A 
ATOM     26  O   UNL d   1     -47.571  30.587  36.377  0.00  0.00    -0.300 OA
ATOM     27  C   UNL d   1     -47.983  29.130  36.288  0.00  0.00     0.026 A 
ATOM     28  C   UNL d   1     -48.128  28.519  35.756  0.00  0.00     0.004 A 
ENDBRANCH  19  20
ENDBRANCH  17  19
ENDBRANCH  15  16
ENDBRANCH  14  15
ENDBRANCH   2  14
TORSDOF 5
ENDMDL
