MODEL 1
REMARK VINA RESULT:      22.6      0.000      0.000
REMARK  3 active torsions:
REMARK  status: ('A' for Active; 'I' for Inactive)
REMARK    1  A    between atoms: C_6  and  N_1 
REMARK    2  A    between atoms: C_8  and  C_6 
REMARK    3  A    between atoms: O_15  and  C_9 
ROOT
ATOM      1  N   UNL d   1      13.141  12.447  -3.560  0.00  0.00    -0.268 N 
ATOM      2  C   UNL d   1      13.106  13.241  -3.337  0.00  0.00     0.296 A 
ATOM      3  S   UNL d   1      13.200  13.702  -4.027  0.00  0.00    -0.025 SA
ATOM      4  C   UNL d   1      13.256  12.416  -4.381  0.00  0.00     0.073 A 
ATOM      5  C   UNL d   1      13.292  13.180  -4.665  0.00  0.00     0.050 A 
ATOM      6  O   UNL d   1      12.998  13.520  -2.573  0.00  0.00    -0.259 OA
ATOM      7  C   UNL d   1      13.332  11.779  -4.900  0.00  0.00     0.018 A 
ATOM      8  C   UNL d   1      13.404  13.326  -5.474  0.00  0.00     0.008 A 
ATOM      9  C   UNL d   1      13.444  11.915  -5.706  0.00  0.00     0.002 A 
ATOM     10  C   UNL d   1      13.480  12.693  -5.995  0.00  0.00     0.001 A 
ENDROOT
BRANCH   1  11
ATOM     11  C   UNL d   1      13.074  11.796  -3.058  0.00  0.00     0.084 C 
BRANCH  11  12
ATOM     12  C   UNL d   1      13.447  11.801  -2.325  0.00  0.00     0.018 A 
ATOM     13  C   UNL d   1      12.992  11.779  -1.637  0.00  0.00     0.004 A 
ATOM     14  C   UNL d   1      13.360  11.784  -0.903  0.00  0.00     0.024 A 
ATOM     15  C   UNL d   1      14.186  11.811  -0.849  0.00  0.00     0.094 A 
ATOM     16  C   UNL d   1      14.639  11.834  -1.546  0.00  0.00     0.024 A 
ATOM     17  C   UNL d   1      14.266  11.828  -2.279  0.00  0.00     0.004 A 
BRANCH  15  18
ATOM     18  O   UNL d   1      14.589  11.818  -0.135  0.00  0.00    -0.328 OA
ATOM     19  C   UNL d   1      15.268  12.271  -0.049  0.00  0.00     0.181 C 
ENDBRANCH  15  18
ENDBRANCH  11  12
ENDBRANCH   1  11
TORSDOF 3
ENDMDL
MODEL 2
REMARK VINA RESULT:      24.9      1.387      3.855
REMARK  3 active torsions:
REMARK  status: ('A' for Active; 'I' for Inactive)
REMARK    1  A    between atoms: C_6  and  N_1 
REMARK    2  A    between atoms: C_8  and  C_6 
REMARK    3  A    between atoms: O_15  and  C_9 
ROOT
ATOM      1  N   UNL d   1      13.983  12.892  -2.113  0.00  0.00    -0.268 N 
ATOM      2  C   UNL d   1      14.565  13.412  -2.380  0.00  0.00     0.296 A 
ATOM      3  S   UNL d   1      15.189  13.402  -1.826  0.00  0.00    -0.025 SA
ATOM      4  C   UNL d   1      14.244  12.561  -1.398  0.00  0.00     0.073 A 
ATOM      5  C   UNL d   1      14.978  12.872  -1.223  0.00  0.00     0.050 A 
ATOM      6  O   UNL d   1      14.531  13.858  -3.070  0.00  0.00    -0.259 OA
ATOM      7  C   UNL d   1      13.895  12.014  -0.889  0.00  0.00     0.018 A 
ATOM      8  C   UNL d   1      15.382  12.643  -0.535  0.00  0.00     0.008 A 
ATOM      9  C   UNL d   1      14.290  11.780  -0.202  0.00  0.00     0.002 A 
ATOM     10  C   UNL d   1      15.037  12.097  -0.024  0.00  0.00     0.001 A 
ENDROOT
BRANCH   1  11
ATOM     11  C   UNL d   1      13.267  12.727  -2.488  0.00  0.00     0.084 C 
BRANCH  11  12
ATOM     12  C   UNL d   1      13.251  12.567  -3.294  0.00  0.00     0.018 A 
ATOM     13  C   UNL d   1      12.796  13.041  -3.793  0.00  0.00     0.004 A 
ATOM     14  C   UNL d   1      12.777  12.885  -4.599  0.00  0.00     0.024 A 
ATOM     15  C   UNL d   1      13.213  12.255  -4.914  0.00  0.00     0.094 A 
ATOM     16  C   UNL d   1      13.669  11.781  -4.405  0.00  0.00     0.024 A 
ATOM     17  C   UNL d   1      13.685  11.941  -3.599  0.00  0.00     0.004 A 
BRANCH  15  18
ATOM     18  O   UNL d   1      13.219  12.068  -5.713  0.00  0.00    -0.328 OA
ATOM     19  C   UNL d   1      13.903  12.172  -6.155  0.00  0.00     0.181 C 
ENDBRANCH  15  18
ENDBRANCH  11  12
ENDBRANCH   1  11
TORSDOF 3
ENDMDL
