MODEL 1
REMARK VINA RESULT:      -2.0      0.000      0.000
REMARK  8 active torsions:
REMARK  status: ('A' for Active; 'I' for Inactive)
REMARK    1  A    between atoms: C_2  and  C_1 
REMARK    2  A    between atoms: C_12  and  C_5 
REMARK    3  A    between atoms: C_14  and  C_6 
REMARK    4  A    between atoms: O_20  and  C_13 
REMARK    5  A    between atoms: O_21  and  C_14 
REMARK    6  A    between atoms: O_23  and  C_15 
REMARK    7  A    between atoms: O_22  and  C_16 
REMARK    8  A    between atoms: C_26  and  O_21 
ROOT
ATOM      1  C   UNL d   1      32.287  18.236 -23.915  0.00  0.00     0.206 A 
ATOM      2  O   UNL d   1      32.193  18.830 -23.298  0.00  0.00    -0.268 OA
ATOM      3  N   UNL d   1      32.932  18.492 -24.431  0.00  0.00    -0.121 NA
ATOM      4  C   UNL d   1      32.778  19.454 -23.428  0.00  0.00     0.205 A 
ATOM      5  N   UNL d   1      33.241  19.243 -24.138  0.00  0.00    -0.121 NA
ENDROOT
BRANCH   1   6
ATOM      6  C   UNL d   1      31.840  17.554 -23.991  0.00  0.00     0.061 A 
ATOM      7  C   UNL d   1      31.039  17.614 -24.125  0.00  0.00     0.012 A 
ATOM      8  C   UNL d   1      30.584  16.949 -24.201  0.00  0.00     0.081 A 
ATOM      9  C   UNL d   1      30.931  16.209 -24.144  0.00  0.00     0.086 A 
ATOM     10  N   UNL d   1      31.727  16.146 -24.010  0.00  0.00    -0.245 NA
ATOM     11  C   UNL d   1      30.477  15.543 -24.220  0.00  0.00     0.021 C 
ATOM     12  C   UNL d   1      32.187  16.814 -23.933  0.00  0.00     0.085 A 
ATOM     13  C   UNL d   1      32.986  16.745 -23.799  0.00  0.00     0.021 C 
BRANCH   8  14
ATOM     14  C   UNL d   1      29.794  17.014 -24.334  0.00  0.00     0.302 C 
ATOM     15  O   UNL d   1      29.514  17.108 -25.092  0.00  0.00    -0.259 OA
BRANCH  14  16
ATOM     16  O   UNL d   1      29.267  16.987 -23.717  0.00  0.00    -0.271 OA
BRANCH  16  17
ATOM     17  C   UNL d   1      28.475  16.899 -23.865  0.00  0.00     0.126 C 
ATOM     18  C   UNL d   1      27.921  17.181 -23.322  0.00  0.00     0.029 C 
ENDBRANCH  16  17
ENDBRANCH  14  16
ENDBRANCH   8  14
ENDBRANCH   1   6
BRANCH   4  19
ATOM     19  C   UNL d   1      32.888  20.171 -22.938  0.00  0.00     0.047 A 
ATOM     20  C   UNL d   1      32.875  20.106 -22.080  0.00  0.00     0.030 A 
ATOM     21  C   UNL d   1      32.983  20.811 -21.593  0.00  0.00     0.118 A 
ATOM     22  C   UNL d   1      33.106  21.589 -21.973  0.00  0.00     0.138 A 
ATOM     23  C   UNL d   1      33.119  21.646 -22.838  0.00  0.00     0.118 A 
ATOM     24  C   UNL d   1      33.009  20.937 -23.321  0.00  0.00     0.030 A 
BRANCH  21  25
ATOM     25  O   UNL d   1      33.027  21.108 -20.774  0.00  0.00    -0.326 OA
ATOM     26  C   UNL d   1      33.087  20.555 -20.109  0.00  0.00     0.181 C 
ENDBRANCH  21  25
BRANCH  22  27
ATOM     27  O   UNL d   1      33.215  22.295 -21.486  0.00  0.00    -0.324 OA
ATOM     28  C   UNL d   1      32.524  22.732 -21.203  0.00  0.00     0.182 C 
ENDBRANCH  22  27
BRANCH  23  29
ATOM     29  O   UNL d   1      33.241  22.416 -23.218  0.00  0.00    -0.326 OA
ATOM     30  C   UNL d   1      32.923  22.565 -24.007  0.00  0.00     0.181 C 
ENDBRANCH  23  29
ENDBRANCH   4  19
TORSDOF 8
ENDMDL
MODEL 2
REMARK VINA RESULT:      -0.7      1.065      1.948
REMARK  8 active torsions:
REMARK  status: ('A' for Active; 'I' for Inactive)
REMARK    1  A    between atoms: C_2  and  C_1 
REMARK    2  A    between atoms: C_12  and  C_5 
REMARK    3  A    between atoms: C_14  and  C_6 
REMARK    4  A    between atoms: O_20  and  C_13 
REMARK    5  A    between atoms: O_21  and  C_14 
REMARK    6  A    between atoms: O_23  and  C_15 
REMARK    7  A    between atoms: O_22  and  C_16 
REMARK    8  A    between atoms: C_26  and  O_21 
ROOT
ATOM      1  C   UNL d   1      32.675  18.447 -23.043  0.00  0.00     0.206 A 
ATOM      2  O   UNL d   1      32.602  19.297 -23.167  0.00  0.00    -0.268 OA
ATOM      3  N   UNL d   1      33.068  18.324 -22.282  0.00  0.00    -0.121 NA
ATOM      4  C   UNL d   1      32.949  19.703 -22.486  0.00  0.00     0.205 A 
ATOM      5  N   UNL d   1      33.241  19.095 -21.931  0.00  0.00    -0.121 NA
ENDROOT
BRANCH   1   6
ATOM      6  C   UNL d   1      32.415  17.868 -23.559  0.00  0.00     0.061 A 
ATOM      7  C   UNL d   1      31.869  17.320 -23.304  0.00  0.00     0.012 A 
ATOM      8  C   UNL d   1      31.603  16.741 -23.804  0.00  0.00     0.081 A 
ATOM      9  C   UNL d   1      31.884  16.706 -24.572  0.00  0.00     0.086 A 
ATOM     10  N   UNL d   1      32.427  17.249 -24.830  0.00  0.00    -0.245 NA
ATOM     11  C   UNL d   1      31.619  16.127 -25.073  0.00  0.00     0.021 C 
ATOM     12  C   UNL d   1      32.696  17.832 -24.328  0.00  0.00     0.085 A 
ATOM     13  C   UNL d   1      33.241  18.375 -24.591  0.00  0.00     0.021 C 
BRANCH   8  14
ATOM     14  C   UNL d   1      31.064  16.203 -23.546  0.00  0.00     0.302 C 
ATOM     15  O   UNL d   1      31.285  15.628 -23.013  0.00  0.00    -0.259 OA
BRANCH  14  16
ATOM     16  O   UNL d   1      30.298  16.224 -23.813  0.00  0.00    -0.271 OA
BRANCH  16  17
ATOM     17  C   UNL d   1      29.771  15.656 -23.575  0.00  0.00     0.126 C 
ATOM     18  C   UNL d   1      29.051  15.878 -23.238  0.00  0.00     0.029 C 
ENDBRANCH  16  17
ENDBRANCH  14  16
ENDBRANCH   8  14
ENDBRANCH   1   6
BRANCH   4  19
ATOM     19  C   UNL d   1      32.999  20.569 -22.370  0.00  0.00     0.047 A 
ATOM     20  C   UNL d   1      33.098  21.084 -23.051  0.00  0.00     0.030 A 
ATOM     21  C   UNL d   1      33.148  21.939 -22.941  0.00  0.00     0.118 A 
ATOM     22  C   UNL d   1      33.099  22.280 -22.136  0.00  0.00     0.138 A 
ATOM     23  C   UNL d   1      32.999  21.753 -21.455  0.00  0.00     0.118 A 
ATOM     24  C   UNL d   1      32.949  20.898 -21.571  0.00  0.00     0.030 A 
BRANCH  21  25
ATOM     25  O   UNL d   1      33.240  22.704 -23.351  0.00  0.00    -0.326 OA
ATOM     26  C   UNL d   1      32.795  22.869 -24.077  0.00  0.00     0.181 C 
ENDBRANCH  21  25
BRANCH  22  27
ATOM     27  O   UNL d   1      33.149  23.135 -22.025  0.00  0.00    -0.324 OA
ATOM     28  C   UNL d   1      32.663  23.520 -21.420  0.00  0.00     0.182 C 
ENDBRANCH  22  27
BRANCH  23  29
ATOM     29  O   UNL d   1      32.950  22.087 -20.656  0.00  0.00    -0.326 OA
ATOM     30  C   UNL d   1      32.899  21.564 -19.970  0.00  0.00     0.181 C 
ENDBRANCH  23  29
ENDBRANCH   4  19
TORSDOF 8
ENDMDL
MODEL 3
REMARK VINA RESULT:      -0.2      1.666      5.693
REMARK  8 active torsions:
REMARK  status: ('A' for Active; 'I' for Inactive)
REMARK    1  A    between atoms: C_2  and  C_1 
REMARK    2  A    between atoms: C_12  and  C_5 
REMARK    3  A    between atoms: C_14  and  C_6 
REMARK    4  A    between atoms: O_20  and  C_13 
REMARK    5  A    between atoms: O_21  and  C_14 
REMARK    6  A    between atoms: O_23  and  C_15 
REMARK    7  A    between atoms: O_22  and  C_16 
REMARK    8  A    between atoms: C_26  and  O_21 
ROOT
ATOM      1  C   UNL d   1      33.074  20.322 -22.336  0.00  0.00     0.206 A 
ATOM      2  O   UNL d   1      32.856  19.801 -22.988  0.00  0.00    -0.268 OA
ATOM      3  N   UNL d   1      33.241  19.827 -21.648  0.00  0.00    -0.121 NA
ATOM      4  C   UNL d   1      32.888  18.984 -22.706  0.00  0.00     0.205 A 
ATOM      5  N   UNL d   1      33.129  18.999 -21.867  0.00  0.00    -0.121 NA
ENDROOT
BRANCH   1   6
ATOM      6  C   UNL d   1      33.112  21.139 -22.374  0.00  0.00     0.061 A 
ATOM      7  C   UNL d   1      33.067  21.574 -21.686  0.00  0.00     0.012 A 
ATOM      8  C   UNL d   1      33.103  22.382 -21.708  0.00  0.00     0.081 A 
ATOM      9  C   UNL d   1      33.186  22.767 -22.426  0.00  0.00     0.086 A 
ATOM     10  N   UNL d   1      33.231  22.339 -23.112  0.00  0.00    -0.245 NA
ATOM     11  C   UNL d   1      33.222  23.576 -22.449  0.00  0.00     0.021 C 
ATOM     12  C   UNL d   1      33.195  21.524 -23.092  0.00  0.00     0.085 A 
ATOM     13  C   UNL d   1      33.241  21.098 -23.783  0.00  0.00     0.021 C 
BRANCH   8  14
ATOM     14  C   UNL d   1      33.058  22.806 -21.026  0.00  0.00     0.302 C 
ATOM     15  O   UNL d   1      32.906  23.605 -21.052  0.00  0.00    -0.259 OA
BRANCH  14  16
ATOM     16  O   UNL d   1      33.162  22.445 -20.307  0.00  0.00    -0.271 OA
BRANCH  16  17
ATOM     17  C   UNL d   1      33.014  22.855 -19.624  0.00  0.00     0.126 C 
ATOM     18  C   UNL d   1      33.056  22.469 -18.895  0.00  0.00     0.029 C 
ENDBRANCH  16  17
ENDBRANCH  14  16
ENDBRANCH   8  14
ENDBRANCH   1   6
BRANCH   4  19
ATOM     19  C   UNL d   1      32.710  18.267 -23.176  0.00  0.00     0.047 A 
ATOM     20  C   UNL d   1      33.115  17.530 -22.995  0.00  0.00     0.030 A 
ATOM     21  C   UNL d   1      32.942  16.820 -23.456  0.00  0.00     0.118 A 
ATOM     22  C   UNL d   1      32.357  16.853 -24.106  0.00  0.00     0.138 A 
ATOM     23  C   UNL d   1      31.954  17.600 -24.281  0.00  0.00     0.118 A 
ATOM     24  C   UNL d   1      32.131  18.307 -23.816  0.00  0.00     0.030 A 
BRANCH  21  25
ATOM     25  O   UNL d   1      33.134  15.974 -23.557  0.00  0.00    -0.326 OA
ATOM     26  C   UNL d   1      33.239  15.463 -22.864  0.00  0.00     0.181 C 
ENDBRANCH  21  25
BRANCH  22  27
ATOM     27  O   UNL d   1      32.185  16.143 -24.567  0.00  0.00    -0.324 OA
ATOM     28  C   UNL d   1      32.803  15.789 -25.060  0.00  0.00     0.182 C 
ENDBRANCH  22  27
BRANCH  23  29
ATOM     29  O   UNL d   1      31.374  17.635 -24.924  0.00  0.00    -0.326 OA
ATOM     30  C   UNL d   1      30.559  17.875 -24.760  0.00  0.00     0.181 C 
ENDBRANCH  23  29
ENDBRANCH   4  19
TORSDOF 8
ENDMDL
MODEL 4
REMARK VINA RESULT:       0.2      2.321      5.475
REMARK  8 active torsions:
REMARK  status: ('A' for Active; 'I' for Inactive)
REMARK    1  A    between atoms: C_2  and  C_1 
REMARK    2  A    between atoms: C_12  and  C_5 
REMARK    3  A    between atoms: C_14  and  C_6 
REMARK    4  A    between atoms: O_20  and  C_13 
REMARK    5  A    between atoms: O_21  and  C_14 
REMARK    6  A    between atoms: O_23  and  C_15 
REMARK    7  A    between atoms: O_22  and  C_16 
REMARK    8  A    between atoms: C_26  and  O_21 
ROOT
ATOM      1  C   UNL d   1      32.672  20.527 -21.312  0.00  0.00     0.206 A 
ATOM      2  O   UNL d   1      32.721  20.154 -22.087  0.00  0.00    -0.268 OA
ATOM      3  N   UNL d   1      32.794  19.913 -20.716  0.00  0.00    -0.121 NA
ATOM      4  C   UNL d   1      32.874  19.310 -21.975  0.00  0.00     0.205 A 
ATOM      5  N   UNL d   1      32.920  19.158 -21.116  0.00  0.00    -0.121 NA
ENDROOT
BRANCH   1   6
ATOM      6  C   UNL d   1      32.534  21.322 -21.175  0.00  0.00     0.061 A 
ATOM      7  C   UNL d   1      32.646  21.857 -21.779  0.00  0.00     0.012 A 
ATOM      8  C   UNL d   1      32.513  22.647 -21.659  0.00  0.00     0.081 A 
ATOM      9  C   UNL d   1      32.264  22.911 -20.925  0.00  0.00     0.086 A 
ATOM     10  N   UNL d   1      32.151  22.382 -20.322  0.00  0.00    -0.245 NA
ATOM     11  C   UNL d   1      32.130  23.700 -20.803  0.00  0.00     0.021 C 
ATOM     12  C   UNL d   1      32.284  21.586 -20.441  0.00  0.00     0.085 A 
ATOM     13  C   UNL d   1      32.170  21.059 -19.833  0.00  0.00     0.021 C 
BRANCH   8  14
ATOM     14  C   UNL d   1      32.625  23.170 -22.259  0.00  0.00     0.302 C 
ATOM     15  O   UNL d   1      33.241  23.702 -22.226  0.00  0.00    -0.259 OA
BRANCH  14  16
ATOM     16  O   UNL d   1      32.129  23.176 -22.901  0.00  0.00    -0.271 OA
BRANCH  16  17
ATOM     17  C   UNL d   1      32.436  23.244 -23.648  0.00  0.00     0.126 C 
ATOM     18  C   UNL d   1      31.931  23.356 -24.292  0.00  0.00     0.029 C 
ENDBRANCH  16  17
ENDBRANCH  14  16
ENDBRANCH   8  14
ENDBRANCH   1   6
BRANCH   4  19
ATOM     19  C   UNL d   1      32.966  18.712 -22.607  0.00  0.00     0.047 A 
ATOM     20  C   UNL d   1      33.045  17.881 -22.398  0.00  0.00     0.030 A 
ATOM     21  C   UNL d   1      33.136  17.288 -23.019  0.00  0.00     0.118 A 
ATOM     22  C   UNL d   1      33.149  17.533 -23.859  0.00  0.00     0.138 A 
ATOM     23  C   UNL d   1      33.069  18.372 -24.061  0.00  0.00     0.118 A 
ATOM     24  C   UNL d   1      32.977  18.962 -23.435  0.00  0.00     0.030 A 
BRANCH  21  25
ATOM     25  O   UNL d   1      33.234  16.435 -23.178  0.00  0.00    -0.326 OA
ATOM     26  C   UNL d   1      33.177  15.859 -22.532  0.00  0.00     0.181 C 
ENDBRANCH  21  25
BRANCH  22  27
ATOM     27  O   UNL d   1      33.240  16.940 -24.480  0.00  0.00    -0.324 OA
ATOM     28  C   UNL d   1      32.538  16.590 -24.849  0.00  0.00     0.182 C 
ENDBRANCH  22  27
BRANCH  23  29
ATOM     29  O   UNL d   1      33.080  18.618 -24.892  0.00  0.00    -0.326 OA
ATOM     30  C   UNL d   1      33.045  19.457 -25.096  0.00  0.00     0.181 C 
ENDBRANCH  23  29
ENDBRANCH   4  19
TORSDOF 8
ENDMDL
