MODEL 1
REMARK VINA RESULT:      -6.9      0.000      0.000
REMARK  6 active torsions:
REMARK  status: ('A' for Active; 'I' for Inactive)
REMARK    1  A    between atoms: C_3  and  N_1 
REMARK       I    between atoms: C_2  and  N_6 
REMARK       I    between atoms: N_7  and  C_2 
REMARK    2  A    between atoms: C_5  and  C_3 
REMARK    3  A    between atoms: C_8  and  C_3 
REMARK    4  A    between atoms: N_6  and  C_5 
REMARK    5  A    between atoms: C_20  and  N_7 
REMARK    6  A    between atoms: N_12  and  C_9 
ROOT
ATOM      1  C   UNL d   1      53.323  32.548  53.599  0.00  0.00     0.084 C 
ENDROOT
BRANCH   1   2
ATOM      2  N   UNL d   1      53.923  32.943  54.005  0.00  0.00    -0.300 N 
ATOM      3  C   UNL d   1      53.799  33.223  54.774  0.00  0.00     0.100 A 
ATOM      4  C   UNL d   1      54.402  33.617  55.177  0.00  0.00     0.100 A 
ATOM      5  N   UNL d   1      55.131  33.731  54.807  0.00  0.00    -0.299 N 
ATOM      6  C   UNL d   1      55.261  33.455  54.041  0.00  0.00     0.100 A 
ATOM      7  C   UNL d   1      55.735  34.133  55.225  0.00  0.00     0.100 C 
ATOM      8  C   UNL d   1      54.661  33.060  53.635  0.00  0.00     0.100 A 
ENDBRANCH   1   2
BRANCH   1   9
ATOM      9  C   UNL d   1      52.791  32.987  53.150  0.00  0.00     0.121 C 
BRANCH   9  10
ATOM     10  N   UNL d   1      52.020  33.115  53.429  0.00  0.00    -0.188 NA
ATOM     11  C   UNL d   1      51.486  33.551  52.980  0.00  0.00     0.369 C 
ATOM     12  N   UNL d   1      50.716  33.679  53.259  0.00  0.00    -0.191 NA
ATOM     13  O   UNL d   1      51.711  33.862  52.257  0.00  0.00    -0.242 OA
BRANCH  12  14
ATOM     14  C   UNL d   1      50.182  34.115  52.809  0.00  0.00     0.086 A 
ATOM     15  C   UNL d   1      49.805  34.774  53.138  0.00  0.00     0.022 A 
ATOM     16  C   UNL d   1      49.272  35.210  52.689  0.00  0.00     0.031 A 
ATOM     17  C   UNL d   1      49.110  34.989  51.902  0.00  0.00     0.140 A 
ATOM     18  C   UNL d   1      49.480  34.342  51.580  0.00  0.00     0.031 A 
ATOM     19  F   UNL d   1      48.572  35.427  51.448  0.00  0.00    -0.204 F 
ATOM     20  C   UNL d   1      50.022  33.896  52.030  0.00  0.00     0.022 A 
ENDBRANCH  12  14
ENDBRANCH   9  10
ENDBRANCH   1   9
BRANCH   1  21
ATOM     21  C   UNL d   1      53.264  31.723  53.645  0.00  0.00     0.018 A 
ATOM     22  C   UNL d   1      53.347  31.268  52.962  0.00  0.00     0.003 A 
ATOM     23  C   UNL d   1      53.287  30.451  53.014  0.00  0.00     0.018 A 
ATOM     24  C   UNL d   1      53.146  30.078  53.736  0.00  0.00     0.064 A 
ATOM     25  C   UNL d   1      53.065  30.541  54.415  0.00  0.00     0.018 A 
ATOM     26  C   UNL d   1      53.123  31.358  54.373  0.00  0.00     0.003 A 
BRANCH  24  27
ATOM     27  N   UNL d   1      53.087  29.256  53.786  0.00  0.00    -0.301 N 
ATOM     28  C   UNL d   1      52.634  28.854  53.227  0.00  0.00     0.100 C 
ATOM     29  C   UNL d   1      53.465  28.844  54.374  0.00  0.00     0.100 C 
ENDBRANCH  24  27
ENDBRANCH   1  21
TORSDOF 6
ENDMDL
MODEL 2
REMARK VINA RESULT:      -6.3      0.741      2.975
REMARK  6 active torsions:
REMARK  status: ('A' for Active; 'I' for Inactive)
REMARK    1  A    between atoms: C_3  and  N_1 
REMARK       I    between atoms: C_2  and  N_6 
REMARK       I    between atoms: N_7  and  C_2 
REMARK    2  A    between atoms: C_5  and  C_3 
REMARK    3  A    between atoms: C_8  and  C_3 
REMARK    4  A    between atoms: N_6  and  C_5 
REMARK    5  A    between atoms: C_20  and  N_7 
REMARK    6  A    between atoms: N_12  and  C_9 
ROOT
ATOM      1  C   UNL d   1      52.864  32.460  53.246  0.00  0.00     0.084 C 
ENDROOT
BRANCH   1   2
ATOM      2  N   UNL d   1      52.790  31.641  53.186  0.00  0.00    -0.300 N 
ATOM      3  C   UNL d   1      52.385  31.209  53.766  0.00  0.00     0.100 A 
ATOM      4  C   UNL d   1      52.314  30.390  53.702  0.00  0.00     0.100 A 
ATOM      5  N   UNL d   1      52.648  30.002  53.054  0.00  0.00    -0.299 N 
ATOM      6  C   UNL d   1      53.052  30.426  52.474  0.00  0.00     0.100 A 
ATOM      7  C   UNL d   1      52.569  29.170  53.000  0.00  0.00     0.100 C 
ATOM      8  C   UNL d   1      53.126  31.245  52.534  0.00  0.00     0.100 A 
ENDBRANCH   1   2
BRANCH   1   9
ATOM      9  C   UNL d   1      52.334  32.938  52.836  0.00  0.00     0.121 C 
BRANCH   9  10
ATOM     10  N   UNL d   1      51.596  33.120  53.168  0.00  0.00    -0.188 NA
ATOM     11  C   UNL d   1      51.072  33.612  52.766  0.00  0.00     0.369 C 
ATOM     12  N   UNL d   1      50.335  33.794  53.098  0.00  0.00    -0.191 NA
ATOM     13  O   UNL d   1      51.275  33.925  52.037  0.00  0.00    -0.242 OA
BRANCH  12  14
ATOM     14  C   UNL d   1      49.812  34.285  52.696  0.00  0.00     0.086 A 
ATOM     15  C   UNL d   1      49.520  34.967  53.061  0.00  0.00     0.022 A 
ATOM     16  C   UNL d   1      48.997  35.459  52.659  0.00  0.00     0.031 A 
ATOM     17  C   UNL d   1      48.761  35.271  51.883  0.00  0.00     0.140 A 
ATOM     18  C   UNL d   1      49.048  34.601  51.524  0.00  0.00     0.031 A 
ATOM     19  F   UNL d   1      48.234  35.765  51.476  0.00  0.00    -0.204 F 
ATOM     20  C   UNL d   1      49.578  34.099  51.927  0.00  0.00     0.022 A 
ENDBRANCH  12  14
ENDBRANCH   9  10
ENDBRANCH   1   9
BRANCH   1  21
ATOM     21  C   UNL d   1      53.463  32.790  53.713  0.00  0.00     0.018 A 
ATOM     22  C   UNL d   1      54.196  32.963  53.376  0.00  0.00     0.003 A 
ATOM     23  C   UNL d   1      54.785  33.289  53.844  0.00  0.00     0.018 A 
ATOM     24  C   UNL d   1      54.660  33.446  54.643  0.00  0.00     0.064 A 
ATOM     25  C   UNL d   1      53.924  33.269  54.973  0.00  0.00     0.018 A 
ATOM     26  C   UNL d   1      53.328  32.943  54.513  0.00  0.00     0.003 A 
BRANCH  24  27
ATOM     27  N   UNL d   1      55.255  33.775  55.112  0.00  0.00    -0.301 N 
ATOM     28  C   UNL d   1      55.146  33.811  55.928  0.00  0.00     0.100 C 
ATOM     29  C   UNL d   1      55.939  34.058  54.782  0.00  0.00     0.100 C 
ENDBRANCH  24  27
ENDBRANCH   1  21
TORSDOF 6
ENDMDL
MODEL 3
REMARK VINA RESULT:      -6.2      2.332      5.033
REMARK  6 active torsions:
REMARK  status: ('A' for Active; 'I' for Inactive)
REMARK    1  A    between atoms: C_3  and  N_1 
REMARK       I    between atoms: C_2  and  N_6 
REMARK       I    between atoms: N_7  and  C_2 
REMARK    2  A    between atoms: C_5  and  C_3 
REMARK    3  A    between atoms: C_8  and  C_3 
REMARK    4  A    between atoms: N_6  and  C_5 
REMARK    5  A    between atoms: C_20  and  N_7 
REMARK    6  A    between atoms: N_12  and  C_9 
ROOT
ATOM      1  C   UNL d   1      51.442  33.867  53.184  0.00  0.00     0.084 C 
ENDROOT
BRANCH   1   2
ATOM      2  N   UNL d   1      52.006  34.416  53.431  0.00  0.00    -0.300 N 
ATOM      3  C   UNL d   1      52.611  34.660  52.920  0.00  0.00     0.100 A 
ATOM      4  C   UNL d   1      53.173  35.210  53.171  0.00  0.00     0.100 A 
ATOM      5  N   UNL d   1      53.129  35.515  53.937  0.00  0.00    -0.299 N 
ATOM      6  C   UNL d   1      52.530  35.276  54.450  0.00  0.00     0.100 A 
ATOM      7  C   UNL d   1      53.705  36.071  54.180  0.00  0.00     0.100 C 
ATOM      8  C   UNL d   1      51.966  34.727  54.203  0.00  0.00     0.100 A 
ENDBRANCH   1   2
BRANCH   1   9
ATOM      9  C   UNL d   1      51.536  33.077  53.398  0.00  0.00     0.121 C 
BRANCH   9  10
ATOM     10  N   UNL d   1      52.094  32.605  53.007  0.00  0.00    -0.188 NA
ATOM     11  C   UNL d   1      52.281  31.859  53.300  0.00  0.00     0.369 C 
ATOM     12  N   UNL d   1      52.839  31.387  52.909  0.00  0.00    -0.191 NA
ATOM     13  O   UNL d   1      51.918  31.578  53.978  0.00  0.00    -0.242 OA
BRANCH  12  14
ATOM     14  C   UNL d   1      53.025  30.641  53.202  0.00  0.00     0.086 A 
ATOM     15  C   UNL d   1      53.680  30.543  53.697  0.00  0.00     0.022 A 
ATOM     16  C   UNL d   1      53.867  29.797  53.990  0.00  0.00     0.031 A 
ATOM     17  C   UNL d   1      53.396  29.140  53.790  0.00  0.00     0.140 A 
ATOM     18  C   UNL d   1      52.753  29.237  53.304  0.00  0.00     0.031 A 
ATOM     19  F   UNL d   1      53.583  28.387  54.084  0.00  0.00    -0.204 F 
ATOM     20  C   UNL d   1      52.559  29.990  53.003  0.00  0.00     0.022 A 
ENDBRANCH  12  14
ENDBRANCH   9  10
ENDBRANCH   1   9
BRANCH   1  21
ATOM     21  C   UNL d   1      50.795  34.113  52.729  0.00  0.00     0.018 A 
ATOM     22  C   UNL d   1      50.094  34.335  53.102  0.00  0.00     0.003 A 
ATOM     23  C   UNL d   1      49.457  34.578  52.646  0.00  0.00     0.018 A 
ATOM     24  C   UNL d   1      49.504  34.604  51.824  0.00  0.00     0.064 A 
ATOM     25  C   UNL d   1      50.210  34.379  51.459  0.00  0.00     0.018 A 
ATOM     26  C   UNL d   1      50.852  34.135  51.906  0.00  0.00     0.003 A 
BRANCH  24  27
ATOM     27  N   UNL d   1      48.861  34.848  51.367  0.00  0.00    -0.301 N 
ATOM     28  C   UNL d   1      48.412  35.491  51.622  0.00  0.00     0.100 C 
ATOM     29  C   UNL d   1      48.668  34.467  50.677  0.00  0.00     0.100 C 
ENDBRANCH  24  27
ENDBRANCH   1  21
TORSDOF 6
ENDMDL
MODEL 4
REMARK VINA RESULT:      -4.6      2.257      5.362
REMARK  6 active torsions:
REMARK  status: ('A' for Active; 'I' for Inactive)
REMARK    1  A    between atoms: C_3  and  N_1 
REMARK       I    between atoms: C_2  and  N_6 
REMARK       I    between atoms: N_7  and  C_2 
REMARK    2  A    between atoms: C_5  and  C_3 
REMARK    3  A    between atoms: C_8  and  C_3 
REMARK    4  A    between atoms: N_6  and  C_5 
REMARK    5  A    between atoms: C_20  and  N_7 
REMARK    6  A    between atoms: N_12  and  C_9 
ROOT
ATOM      1  C   UNL d   1      51.261  33.697  52.949  0.00  0.00     0.084 C 
ENDROOT
BRANCH   1   2
ATOM      2  N   UNL d   1      50.656  34.002  52.478  0.00  0.00    -0.300 N 
ATOM      3  C   UNL d   1      50.743  34.048  51.655  0.00  0.00     0.100 A 
ATOM      4  C   UNL d   1      50.135  34.353  51.189  0.00  0.00     0.100 A 
ATOM      5  N   UNL d   1      49.439  34.614  51.547  0.00  0.00    -0.299 N 
ATOM      6  C   UNL d   1      49.346  34.571  52.365  0.00  0.00     0.100 A 
ATOM      7  C   UNL d   1      48.830  34.922  51.062  0.00  0.00     0.100 C 
ATOM      8  C   UNL d   1      49.951  34.266  52.836  0.00  0.00     0.100 A 
ENDBRANCH   1   2
BRANCH   1   9
ATOM      9  C   UNL d   1      51.317  32.881  53.045  0.00  0.00     0.121 C 
BRANCH   9  10
ATOM     10  N   UNL d   1      52.025  32.490  52.863  0.00  0.00    -0.188 NA
ATOM     11  C   UNL d   1      52.171  31.738  53.164  0.00  0.00     0.369 C 
ATOM     12  N   UNL d   1      52.878  31.347  52.982  0.00  0.00    -0.191 NA
ATOM     13  O   UNL d   1      51.618  31.371  53.644  0.00  0.00    -0.242 OA
BRANCH  12  14
ATOM     14  C   UNL d   1      53.023  30.595  53.283  0.00  0.00     0.086 A 
ATOM     15  C   UNL d   1      52.710  29.930  52.904  0.00  0.00     0.022 A 
ATOM     16  C   UNL d   1      52.854  29.178  53.205  0.00  0.00     0.031 A 
ATOM     17  C   UNL d   1      53.316  29.085  53.892  0.00  0.00     0.140 A 
ATOM     18  C   UNL d   1      53.623  29.738  54.264  0.00  0.00     0.031 A 
ATOM     19  F   UNL d   1      53.463  28.328  54.197  0.00  0.00    -0.204 F 
ATOM     20  C   UNL d   1      53.480  30.503  53.963  0.00  0.00     0.022 A 
ENDBRANCH  12  14
ENDBRANCH   9  10
ENDBRANCH   1   9
BRANCH   1  21
ATOM     21  C   UNL d   1      51.799  34.209  53.316  0.00  0.00     0.018 A 
ATOM     22  C   UNL d   1      52.403  34.555  52.873  0.00  0.00     0.003 A 
ATOM     23  C   UNL d   1      52.933  35.061  53.241  0.00  0.00     0.018 A 
ATOM     24  C   UNL d   1      52.873  35.230  54.046  0.00  0.00     0.064 A 
ATOM     25  C   UNL d   1      52.266  34.880  54.483  0.00  0.00     0.018 A 
ATOM     26  C   UNL d   1      51.731  34.372  54.123  0.00  0.00     0.003 A 
BRANCH  24  27
ATOM     27  N   UNL d   1      53.408  35.740  54.416  0.00  0.00    -0.301 N 
ATOM     28  C   UNL d   1      54.120  35.435  54.697  0.00  0.00     0.100 C 
ATOM     29  C   UNL d   1      53.241  36.528  54.503  0.00  0.00     0.100 C 
ENDBRANCH  24  27
ENDBRANCH   1  21
TORSDOF 6
ENDMDL
