MODEL 1
REMARK VINA RESULT:      -3.2      0.000      0.000
REMARK  2 active torsions:
REMARK  status: ('A' for Active; 'I' for Inactive)
REMARK       I    between atoms: C_6  and  N_8 
REMARK    1  A    between atoms: C_7  and  C_6 
REMARK    2  A    between atoms: N_8  and  C_11 
ROOT
ATOM      1  N   UNL d   1      57.787   0.414  33.037  0.00  0.00    -0.246 NA
ATOM      2  C   UNL d   1      56.596   0.312  32.434  0.00  0.00     0.019 A 
ATOM      3  C   UNL d   1      56.981   0.300  33.167  0.00  0.00     0.081 A 
ATOM      4  C   UNL d   1      57.167   0.432  31.861  0.00  0.00     0.021 A 
ATOM      5  C   UNL d   1      57.897   0.494  32.242  0.00  0.00     0.082 A 
ATOM      6  C   UNL d   1      57.115   0.493  31.047  0.00  0.00     0.021 A 
ATOM      7  C   UNL d   1      57.799   0.618  30.595  0.00  0.00     0.085 A 
ATOM      8  C   UNL d   1      58.588   0.619  31.791  0.00  0.00     0.021 A 
ATOM      9  C   UNL d   1      58.530   0.680  30.973  0.00  0.00     0.021 A 
ATOM     10  C   UNL d   1      55.768   0.210  32.391  0.00  0.00     0.002 A 
ATOM     11  C   UNL d   1      56.539   0.186  33.859  0.00  0.00     0.019 A 
ATOM     12  C   UNL d   1      55.330   0.097  33.081  0.00  0.00     0.000 A 
ATOM     13  C   UNL d   1      55.716   0.085  33.814  0.00  0.00     0.002 A 
ENDROOT
BRANCH   7  14
ATOM     14  N   UNL d   1      57.742   0.681  29.753  0.00  0.00    -0.206 NA
ATOM     15  C   UNL d   1      57.925   0.030  29.275  0.00  0.00     0.302 C 
ATOM     16  O   UNL d   1      57.865   0.107  28.467  0.00  0.00    -0.263 OA
BRANCH  15  17
ATOM     17  C   UNL d   1      58.168  -0.694  29.626  0.00  0.00     0.158 A 
ATOM     18  O   UNL d   1      57.776  -1.248  30.099  0.00  0.00    -0.300 OA
ATOM     19  C   UNL d   1      58.306  -1.846  30.272  0.00  0.00     0.123 A 
ATOM     20  C   UNL d   1      59.013  -1.672  29.917  0.00  0.00     0.029 A 
ATOM     21  C   UNL d   1      58.922  -0.960  29.520  0.00  0.00     0.032 A 
ENDBRANCH  15  17
ENDBRANCH   7  14
TORSDOF 2
ENDMDL
MODEL 2
REMARK VINA RESULT:      -3.1      1.232      2.002
REMARK  2 active torsions:
REMARK  status: ('A' for Active; 'I' for Inactive)
REMARK       I    between atoms: C_6  and  N_8 
REMARK    1  A    between atoms: C_7  and  C_6 
REMARK    2  A    between atoms: N_8  and  C_11 
ROOT
ATOM      1  N   UNL d   1      56.893   0.582  30.743  0.00  0.00    -0.246 NA
ATOM      2  C   UNL d   1      57.916   0.647  31.605  0.00  0.00     0.019 A 
ATOM      3  C   UNL d   1      57.091   0.611  31.543  0.00  0.00     0.081 A 
ATOM      4  C   UNL d   1      58.217   0.640  30.844  0.00  0.00     0.021 A 
ATOM      5  C   UNL d   1      57.580   0.599  30.321  0.00  0.00     0.082 A 
ATOM      6  C   UNL d   1      58.985   0.665  30.565  0.00  0.00     0.021 A 
ATOM      7  C   UNL d   1      59.131   0.649  29.749  0.00  0.00     0.085 A 
ATOM      8  C   UNL d   1      57.722   0.584  29.499  0.00  0.00     0.021 A 
ATOM      9  C   UNL d   1      58.496   0.609  29.223  0.00  0.00     0.021 A 
ATOM     10  C   UNL d   1      58.281   0.682  32.355  0.00  0.00     0.002 A 
ATOM     11  C   UNL d   1      56.629   0.610  32.231  0.00  0.00     0.019 A 
ATOM     12  C   UNL d   1      57.819   0.681  33.038  0.00  0.00     0.000 A 
ATOM     13  C   UNL d   1      56.994   0.644  32.976  0.00  0.00     0.002 A 
ENDROOT
BRANCH   7  14
ATOM     14  N   UNL d   1      59.927   0.675  29.463  0.00  0.00    -0.206 NA
ATOM     15  C   UNL d   1      60.254   0.014  29.085  0.00  0.00     0.302 C 
ATOM     16  O   UNL d   1      61.021   0.056  28.816  0.00  0.00    -0.263 OA
BRANCH  15  17
ATOM     17  C   UNL d   1      59.796  -0.683  28.987  0.00  0.00     0.158 A 
ATOM     18  O   UNL d   1      59.080  -0.834  28.601  0.00  0.00    -0.300 OA
ATOM     19  C   UNL d   1      58.909  -1.628  28.696  0.00  0.00     0.123 A 
ATOM     20  C   UNL d   1      59.503  -1.967  29.131  0.00  0.00     0.029 A 
ATOM     21  C   UNL d   1      60.047  -1.379  29.307  0.00  0.00     0.032 A 
ENDBRANCH  15  17
ENDBRANCH   7  14
TORSDOF 2
ENDMDL
MODEL 3
REMARK VINA RESULT:      -2.7      1.505      3.843
REMARK  2 active torsions:
REMARK  status: ('A' for Active; 'I' for Inactive)
REMARK       I    between atoms: C_6  and  N_8 
REMARK    1  A    between atoms: C_7  and  C_6 
REMARK    2  A    between atoms: N_8  and  C_11 
ROOT
ATOM      1  N   UNL d   1      57.517   0.412  29.883  0.00  0.00    -0.246 NA
ATOM      2  C   UNL d   1      58.675   0.371  30.553  0.00  0.00     0.019 A 
ATOM      3  C   UNL d   1      58.334   0.341  29.800  0.00  0.00     0.081 A 
ATOM      4  C   UNL d   1      58.066   0.461  31.092  0.00  0.00     0.021 A 
ATOM      5  C   UNL d   1      57.357   0.485  30.670  0.00  0.00     0.082 A 
ATOM      6  C   UNL d   1      58.068   0.524  31.907  0.00  0.00     0.021 A 
ATOM      7  C   UNL d   1      57.354   0.612  32.319  0.00  0.00     0.085 A 
ATOM      8  C   UNL d   1      56.636   0.574  31.079  0.00  0.00     0.021 A 
ATOM      9  C   UNL d   1      56.644   0.637  31.899  0.00  0.00     0.021 A 
ATOM     10  C   UNL d   1      59.503   0.312  30.644  0.00  0.00     0.002 A 
ATOM     11  C   UNL d   1      58.821   0.251  29.135  0.00  0.00     0.019 A 
ATOM     12  C   UNL d   1      59.985   0.223  29.981  0.00  0.00     0.000 A 
ATOM     13  C   UNL d   1      59.644   0.192  29.227  0.00  0.00     0.002 A 
ENDROOT
BRANCH   7  14
ATOM     14  N   UNL d   1      57.359   0.677  33.162  0.00  0.00    -0.206 NA
ATOM     15  C   UNL d   1      56.952   0.121  33.624  0.00  0.00     0.302 C 
ATOM     16  O   UNL d   1      56.967   0.197  34.434  0.00  0.00    -0.263 OA
BRANCH  15  17
ATOM     17  C   UNL d   1      56.535  -0.507  33.254  0.00  0.00     0.158 A 
ATOM     18  O   UNL d   1      56.779  -1.150  32.794  0.00  0.00    -0.300 OA
ATOM     19  C   UNL d   1      56.113  -1.576  32.589  0.00  0.00     0.123 A 
ATOM     20  C   UNL d   1      55.466  -1.211  32.912  0.00  0.00     0.029 A 
ATOM     21  C   UNL d   1      55.732  -0.552  33.321  0.00  0.00     0.032 A 
ENDBRANCH  15  17
ENDBRANCH   7  14
TORSDOF 2
ENDMDL
MODEL 4
REMARK VINA RESULT:      -2.3      1.582      3.943
REMARK  2 active torsions:
REMARK  status: ('A' for Active; 'I' for Inactive)
REMARK       I    between atoms: C_6  and  N_8 
REMARK    1  A    between atoms: C_7  and  C_6 
REMARK    2  A    between atoms: N_8  and  C_11 
ROOT
ATOM      1  N   UNL d   1      57.989   0.682  30.120  0.00  0.00    -0.246 NA
ATOM      2  C   UNL d   1      58.215  -0.637  30.080  0.00  0.00     0.019 A 
ATOM      3  C   UNL d   1      58.434   0.092  29.755  0.00  0.00     0.081 A 
ATOM      4  C   UNL d   1      57.639  -0.490  30.641  0.00  0.00     0.021 A 
ATOM      5  C   UNL d   1      57.507   0.324  30.659  0.00  0.00     0.082 A 
ATOM      6  C   UNL d   1      57.222  -0.992  31.134  0.00  0.00     0.021 A 
ATOM      7  C   UNL d   1      56.659  -0.684  31.659  0.00  0.00     0.085 A 
ATOM      8  C   UNL d   1      56.941   0.638  31.185  0.00  0.00     0.021 A 
ATOM      9  C   UNL d   1      56.524   0.130  31.679  0.00  0.00     0.021 A 
ATOM     10  C   UNL d   1      58.577  -1.343  29.815  0.00  0.00     0.002 A 
ATOM     11  C   UNL d   1      59.015   0.118  29.164  0.00  0.00     0.019 A 
ATOM     12  C   UNL d   1      59.155  -1.314  29.227  0.00  0.00     0.000 A 
ATOM     13  C   UNL d   1      59.373  -0.583  28.902  0.00  0.00     0.002 A 
ENDROOT
BRANCH   7  14
ATOM     14  N   UNL d   1      56.228  -1.205  32.168  0.00  0.00    -0.206 NA
ATOM     15  C   UNL d   1      56.213  -1.069  32.986  0.00  0.00     0.302 C 
ATOM     16  O   UNL d   1      55.794  -1.579  33.461  0.00  0.00    -0.263 OA
BRANCH  15  17
ATOM     17  C   UNL d   1      56.625  -0.412  33.309  0.00  0.00     0.158 A 
ATOM     18  O   UNL d   1      57.402  -0.140  33.226  0.00  0.00    -0.300 OA
ATOM     19  C   UNL d   1      57.479   0.534  33.682  0.00  0.00     0.123 A 
ATOM     20  C   UNL d   1      56.769   0.682  34.043  0.00  0.00     0.029 A 
ATOM     21  C   UNL d   1      56.246   0.095  33.809  0.00  0.00     0.032 A 
ENDBRANCH  15  17
ENDBRANCH   7  14
TORSDOF 2
ENDMDL
