MODEL 1
REMARK VINA RESULT:      -5.4      0.000      0.000
REMARK  3 active torsions:
REMARK  status: ('A' for Active; 'I' for Inactive)
REMARK    1  A    between atoms: C_4  and  S_1 
REMARK       I    between atoms: C_2  and  N_3 
REMARK    2  A    between atoms: C_9  and  C_2 
REMARK    3  A    between atoms: N_3  and  C_12 
ROOT
ATOM      1  C   UNL d   1      55.923   0.065  33.138  0.00  0.00     0.107 A 
ATOM      2  C   UNL d   1      56.225  -0.679  32.968  0.00  0.00     0.015 A 
ATOM      3  C   UNL d   1      55.996   0.678  32.587  0.00  0.00     0.015 A 
ATOM      4  C   UNL d   1      56.676  -0.213  31.698  0.00  0.00     0.085 A 
ATOM      5  C   UNL d   1      56.378   0.537  31.856  0.00  0.00     0.020 A 
ATOM      6  C   UNL d   1      56.607  -0.820  32.238  0.00  0.00     0.020 A 
ENDROOT
BRANCH   4   7
ATOM      7  N   UNL d   1      57.062  -0.356  30.958  0.00  0.00    -0.208 NA
ATOM      8  C   UNL d   1      57.816  -0.056  30.816  0.00  0.00     0.279 C 
ATOM      9  O   UNL d   1      58.207   0.397  31.410  0.00  0.00    -0.265 OA
BRANCH   8  10
ATOM     10  C   UNL d   1      58.192  -0.194  30.096  0.00  0.00     0.058 A 
ATOM     11  C   UNL d   1      58.282   0.435  29.537  0.00  0.00     0.005 A 
ATOM     12  C   UNL d   1      58.659   0.296  28.816  0.00  0.00     0.000 A 
ATOM     13  C   UNL d   1      58.953  -0.475  28.638  0.00  0.00     0.000 A 
ATOM     14  C   UNL d   1      58.862  -1.083  29.188  0.00  0.00     0.000 A 
ATOM     15  C   UNL d   1      58.485  -0.944  29.909  0.00  0.00     0.005 A 
ENDBRANCH   8  10
ENDBRANCH   4   7
BRANCH   1  16
ATOM     16  S   UNL d   1      55.538   0.207  33.876  0.00  0.00     0.302 S 
ATOM     17  O   UNL d   1      54.838  -0.151  33.579  0.00  0.00    -0.197 OA
ATOM     18  O   UNL d   1      56.226   0.558  34.167  0.00  0.00    -0.197 OA
ATOM     19  N   UNL d   1      55.162   0.346  34.597  0.00  0.00    -0.043 N 
ENDBRANCH   1  16
TORSDOF 3
ENDMDL
MODEL 2
REMARK VINA RESULT:      -4.7      2.118      4.531
REMARK  3 active torsions:
REMARK  status: ('A' for Active; 'I' for Inactive)
REMARK    1  A    between atoms: C_4  and  S_1 
REMARK       I    between atoms: C_2  and  N_3 
REMARK    2  A    between atoms: C_9  and  C_2 
REMARK    3  A    between atoms: N_3  and  C_12 
ROOT
ATOM      1  C   UNL d   1      58.998   0.484  29.915  0.00  0.00     0.107 A 
ATOM      2  C   UNL d   1      59.208   0.526  30.708  0.00  0.00     0.015 A 
ATOM      3  C   UNL d   1      58.200   0.471  29.698  0.00  0.00     0.015 A 
ATOM      4  C   UNL d   1      57.831   0.543  31.078  0.00  0.00     0.085 A 
ATOM      5  C   UNL d   1      57.608   0.501  30.287  0.00  0.00     0.020 A 
ATOM      6  C   UNL d   1      58.616   0.556  31.297  0.00  0.00     0.020 A 
ENDROOT
BRANCH   4   7
ATOM      7  N   UNL d   1      57.231   0.574  31.675  0.00  0.00    -0.208 NA
ATOM      8  C   UNL d   1      56.839  -0.112  31.908  0.00  0.00     0.279 C 
ATOM      9  O   UNL d   1      57.035  -0.850  31.552  0.00  0.00    -0.265 OA
BRANCH   8  10
ATOM     10  C   UNL d   1      56.256  -0.082  32.489  0.00  0.00     0.058 A 
ATOM     11  C   UNL d   1      55.873  -0.794  32.743  0.00  0.00     0.005 A 
ATOM     12  C   UNL d   1      55.289  -0.764  33.324  0.00  0.00     0.000 A 
ATOM     13  C   UNL d   1      55.074  -0.022  33.666  0.00  0.00     0.000 A 
ATOM     14  C   UNL d   1      55.451   0.667  33.415  0.00  0.00     0.000 A 
ATOM     15  C   UNL d   1      56.036   0.637  32.833  0.00  0.00     0.005 A 
ENDBRANCH   8  10
ENDBRANCH   4   7
BRANCH   1  16
ATOM     16  S   UNL d   1      59.596   0.453  29.320  0.00  0.00     0.302 S 
ATOM     17  O   UNL d   1      59.021   0.220  28.754  0.00  0.00    -0.197 OA
ATOM     18  O   UNL d   1      60.161   0.682  29.876  0.00  0.00    -0.197 OA
ATOM     19  N   UNL d   1      60.180   0.423  28.738  0.00  0.00    -0.043 N 
ENDBRANCH   1  16
TORSDOF 3
ENDMDL
MODEL 3
REMARK VINA RESULT:      -2.7      1.443      2.135
REMARK  3 active torsions:
REMARK  status: ('A' for Active; 'I' for Inactive)
REMARK    1  A    between atoms: C_4  and  S_1 
REMARK       I    between atoms: C_2  and  N_3 
REMARK    2  A    between atoms: C_9  and  C_2 
REMARK    3  A    between atoms: N_3  and  C_12 
ROOT
ATOM      1  C   UNL d   1      54.982   0.672  34.691  0.00  0.00     0.107 A 
ATOM      2  C   UNL d   1      54.620   0.682  33.954  0.00  0.00     0.015 A 
ATOM      3  C   UNL d   1      55.807   0.658  34.747  0.00  0.00     0.015 A 
ATOM      4  C   UNL d   1      55.897   0.664  33.319  0.00  0.00     0.085 A 
ATOM      5  C   UNL d   1      56.271   0.654  34.051  0.00  0.00     0.020 A 
ATOM      6  C   UNL d   1      55.083   0.678  33.259  0.00  0.00     0.020 A 
ENDROOT
BRANCH   4   7
ATOM      7  N   UNL d   1      56.366   0.661  32.614  0.00  0.00    -0.208 NA
ATOM      8  C   UNL d   1      56.540  -0.048  32.233  0.00  0.00     0.279 C 
ATOM      9  O   UNL d   1      56.249  -0.776  32.544  0.00  0.00    -0.265 OA
BRANCH   8  10
ATOM     10  C   UNL d   1      56.997  -0.052  31.547  0.00  0.00     0.058 A 
ATOM     11  C   UNL d   1      57.457  -0.734  31.348  0.00  0.00     0.005 A 
ATOM     12  C   UNL d   1      57.915  -0.738  30.662  0.00  0.00     0.000 A 
ATOM     13  C   UNL d   1      57.924  -0.059  30.159  0.00  0.00     0.000 A 
ATOM     14  C   UNL d   1      57.473   0.602  30.360  0.00  0.00     0.000 A 
ATOM     15  C   UNL d   1      57.015   0.606  31.046  0.00  0.00     0.005 A 
ENDBRANCH   8  10
ENDBRANCH   4   7
BRANCH   1  16
ATOM     16  S   UNL d   1      54.513   0.676  35.393  0.00  0.00     0.302 S 
ATOM     17  O   UNL d   1      53.814   0.670  34.927  0.00  0.00    -0.197 OA
ATOM     18  O   UNL d   1      55.200   0.682  35.851  0.00  0.00    -0.197 OA
ATOM     19  N   UNL d   1      54.055   0.679  36.079  0.00  0.00    -0.043 N 
ENDBRANCH   1  16
TORSDOF 3
ENDMDL
