MODEL 1
REMARK VINA RESULT:      37.9      0.000      0.000
REMARK  4 active torsions:
REMARK  status: ('A' for Active; 'I' for Inactive)
REMARK    1  A    between atoms: C_5  and  C_4 
REMARK    2  A    between atoms: C_6  and  C_5 
REMARK       I    between atoms: N_11  and  C_6 
REMARK    3  A    between atoms: C_9  and  C_10 
REMARK    4  A    between atoms: C_14  and  N_11 
ROOT
ATOM      1  C   UNL d   1     -57.916 -98.756 -43.705  0.00  0.00     0.074 C 
ENDROOT
BRANCH   1   2
ATOM      2  C   UNL d   1     -58.415 -98.769 -44.346  0.00  0.00     0.092 A 
ATOM      3  C   UNL d   1     -59.236 -98.795 -44.225  0.00  0.00     0.285 A 
ATOM      4  N   UNL d   1     -59.754 -98.809 -44.878  0.00  0.00    -0.207 NA
ATOM      5  O   UNL d   1     -59.546 -98.809 -43.465  0.00  0.00    -0.265 OA
ATOM      6  C   UNL d   1     -59.443 -98.795 -45.629  0.00  0.00     0.091 A 
ATOM      7  C   UNL d   1     -58.621 -98.768 -45.750  0.00  0.00     0.047 A 
ATOM      8  C   UNL d   1     -59.961 -98.809 -46.285  0.00  0.00     0.020 A 
ATOM      9  S   UNL d   1     -58.124 -98.756 -45.118  0.00  0.00    -0.080 SA
ATOM     10  C   UNL d   1     -58.337 -98.755 -46.514  0.00  0.00     0.008 A 
ATOM     11  C   UNL d   1     -58.832 -98.768 -47.177  0.00  0.00     0.001 A 
ATOM     12  C   UNL d   1     -59.653 -98.795 -47.056  0.00  0.00     0.002 A 
ENDBRANCH   1   2
BRANCH   1  13
ATOM     13  C   UNL d   1     -57.169 -99.066 -43.752  0.00  0.00     0.280 C 
ATOM     14  N   UNL d   1     -56.980 -99.610 -44.337  0.00  0.00    -0.208 NA
ATOM     15  O   UNL d   1     -56.601 -98.834 -43.212  0.00  0.00    -0.265 OA
BRANCH  14  16
ATOM     16  C   UNL d   1     -56.223 -99.918 -44.379  0.00  0.00     0.085 A 
ATOM     17  C   UNL d   1     -56.102-100.741 -44.339  0.00  0.00     0.025 A 
ATOM     18  C   UNL d   1     -55.338-101.031 -44.382  0.00  0.00     0.066 A 
ATOM     19  C   UNL d   1     -54.717-100.549 -44.461  0.00  0.00     0.006 A 
ATOM     20  C   UNL d   1     -54.815 -99.719 -44.503  0.00  0.00     0.002 A 
ATOM     21  C   UNL d   1     -55.581 -99.420 -44.460  0.00  0.00     0.019 A 
BRANCH  18  22
ATOM     22  C   UNL d   1     -55.186-101.826 -44.346  0.00  0.00     0.211 C 
ATOM     23  O   UNL d   1     -55.385-102.336 -44.958  0.00  0.00    -0.644 OA
ATOM     24  O   UNL d   1     -54.820-102.106 -43.667  0.00  0.00    -0.644 OA
ENDBRANCH  18  22
ENDBRANCH  14  16
ENDBRANCH   1  13
TORSDOF 4
ENDMDL
