MODEL 1
REMARK VINA RESULT:       1.0      0.000      0.000
REMARK  5 active torsions:
REMARK  status: ('A' for Active; 'I' for Inactive)
REMARK    1  A    between atoms: N_10  and  C_4 
REMARK    2  A    between atoms: C_20  and  N_5 
REMARK    3  A    between atoms: C_12  and  S_19 
REMARK    4  A    between atoms: S_19  and  C_23 
REMARK    5  A    between atoms: C_23  and  C_20 
ROOT
ATOM      1  C   UNL d   1      57.542   0.101  32.293  0.00  0.00     0.191 A 
ATOM      2  C   UNL d   1      57.421  -0.201  31.537  0.00  0.00     0.174 A 
ATOM      3  N   UNL d   1      58.328   0.338  32.347  0.00  0.00    -0.042 NA
ATOM      4  C   UNL d   1      58.691   0.184  31.633  0.00  0.00     0.722 A 
ATOM      5  N   UNL d   1      58.132  -0.152  31.123  0.00  0.00    -0.132 N 
ATOM      6  N   UNL d   1      56.919   0.121  32.834  0.00  0.00    -0.239 N 
ATOM      7  C   UNL d   1      56.175  -0.161  32.618  0.00  0.00     0.358 A 
ATOM      8  N   UNL d   1      56.053  -0.464  31.861  0.00  0.00    -0.152 NA
ATOM      9  C   UNL d   1      56.676  -0.484  31.320  0.00  0.00     0.303 A 
ATOM     10  O   UNL d   1      55.553  -0.139  33.163  0.00  0.00    -0.244 OA
ATOM     11  O   UNL d   1      56.555  -0.787  30.563  0.00  0.00    -0.263 OA
ATOM     12  C   UNL d   1      57.040   0.421  33.583  0.00  0.00     0.105 C 
ENDROOT
BRANCH   5  13
ATOM     13  C   UNL d   1      58.260  -0.394  30.341  0.00  0.00     0.105 C 
BRANCH  13  14
ATOM     14  C   UNL d   1      58.470  -1.180  30.178  0.00  0.00     0.058 C 
BRANCH  14  15
ATOM     15  S   UNL d   1      58.472  -1.452  29.388  0.00  0.00    -0.041 SA
BRANCH  15  16
ATOM     16  C   UNL d   1      58.993  -2.058  29.173  0.00  0.00     0.215 A 
ATOM     17  N   UNL d   1      58.734  -2.832  29.115  0.00  0.00    -0.214 NA
ATOM     18  C   UNL d   1      59.363  -3.296  28.896  0.00  0.00     0.107 A 
ATOM     19  C   UNL d   1      59.414  -4.113  28.758  0.00  0.00     0.021 A 
ATOM     20  C   UNL d   1      60.019  -2.830  28.814  0.00  0.00     0.120 A 
ATOM     21  C   UNL d   1      60.139  -4.448  28.537  0.00  0.00     0.002 A 
ATOM     22  C   UNL d   1      60.793  -3.978  28.456  0.00  0.00     0.002 A 
ATOM     23  C   UNL d   1      60.733  -3.166  28.595  0.00  0.00     0.026 A 
ATOM     24  O   UNL d   1      59.790  -2.046  28.988  0.00  0.00    -0.283 OA
ENDBRANCH  15  16
ENDBRANCH  14  15
ENDBRANCH  13  14
ENDBRANCH   5  13
BRANCH   4  25
ATOM     25  N   UNL d   1      59.482   0.349  31.484  0.00  0.00    -0.139 N 
ATOM     26  C   UNL d   1      59.750   0.402  30.709  0.00  0.00     0.098 A 
ATOM     27  C   UNL d   1      60.543   0.568  30.550  0.00  0.00     0.018 A 
ATOM     28  C   UNL d   1      60.834   0.625  29.774  0.00  0.00     0.002 C 
ATOM     29  C   UNL d   1      61.068   0.682  31.171  0.00  0.00     0.003 A 
ATOM     30  C   UNL d   1      60.805   0.631  31.955  0.00  0.00     0.020 A 
ATOM     31  C   UNL d   1      60.002   0.462  32.106  0.00  0.00     0.098 A 
ENDBRANCH   4  25
TORSDOF 5
ENDMDL
MODEL 2
REMARK VINA RESULT:       2.6      2.072      4.272
REMARK  5 active torsions:
REMARK  status: ('A' for Active; 'I' for Inactive)
REMARK    1  A    between atoms: N_10  and  C_4 
REMARK    2  A    between atoms: C_20  and  N_5 
REMARK    3  A    between atoms: C_12  and  S_19 
REMARK    4  A    between atoms: S_19  and  C_23 
REMARK    5  A    between atoms: C_23  and  C_20 
ROOT
ATOM      1  C   UNL d   1      57.483   0.670  34.706  0.00  0.00     0.191 A 
ATOM      2  C   UNL d   1      57.623   0.672  33.894  0.00  0.00     0.174 A 
ATOM      3  N   UNL d   1      56.669   0.664  34.821  0.00  0.00    -0.042 NA
ATOM      4  C   UNL d   1      56.306   0.663  34.091  0.00  0.00     0.722 A 
ATOM      5  N   UNL d   1      56.894   0.668  33.508  0.00  0.00    -0.132 N 
ATOM      6  N   UNL d   1      58.118   0.672  35.233  0.00  0.00    -0.239 N 
ATOM      7  C   UNL d   1      58.892   0.678  34.948  0.00  0.00     0.358 A 
ATOM      8  N   UNL d   1      59.032   0.680  34.136  0.00  0.00    -0.152 NA
ATOM      9  C   UNL d   1      58.397   0.677  33.608  0.00  0.00     0.303 A 
ATOM     10  O   UNL d   1      59.525   0.681  35.480  0.00  0.00    -0.244 OA
ATOM     11  O   UNL d   1      58.537   0.680  32.795  0.00  0.00    -0.263 OA
ATOM     12  C   UNL d   1      57.980   0.670  36.037  0.00  0.00     0.105 C 
ENDROOT
BRANCH   5  13
ATOM     13  C   UNL d   1      56.775   0.669  32.688  0.00  0.00     0.105 C 
BRANCH  13  14
ATOM     14  C   UNL d   1      57.147   0.100  32.213  0.00  0.00     0.058 C 
BRANCH  14  15
ATOM     15  S   UNL d   1      56.862  -0.044  31.440  0.00  0.00    -0.041 SA
BRANCH  15  16
ATOM     16  C   UNL d   1      57.344  -0.450  30.904  0.00  0.00     0.215 A 
ATOM     17  N   UNL d   1      57.739  -0.051  30.310  0.00  0.00    -0.214 NA
ATOM     18  C   UNL d   1      58.162  -0.591  29.876  0.00  0.00     0.107 A 
ATOM     19  C   UNL d   1      58.657  -0.491  29.218  0.00  0.00     0.021 A 
ATOM     20  C   UNL d   1      58.043  -1.329  30.185  0.00  0.00     0.120 A 
ATOM     21  C   UNL d   1      59.027  -1.150  28.878  0.00  0.00     0.002 A 
ATOM     22  C   UNL d   1      58.905  -1.887  29.189  0.00  0.00     0.002 A 
ATOM     23  C   UNL d   1      58.411  -1.978  29.846  0.00  0.00     0.026 A 
ATOM     24  O   UNL d   1      57.526  -1.246  30.835  0.00  0.00    -0.283 OA
ENDBRANCH  15  16
ENDBRANCH  14  15
ENDBRANCH  13  14
ENDBRANCH   5  13
BRANCH   4  25
ATOM     25  N   UNL d   1      55.491   0.659  33.992  0.00  0.00    -0.139 N 
ATOM     26  C   UNL d   1      55.000   0.673  34.651  0.00  0.00     0.098 A 
ATOM     27  C   UNL d   1      54.179   0.668  34.561  0.00  0.00     0.018 A 
ATOM     28  C   UNL d   1      53.665   0.682  35.214  0.00  0.00     0.002 C 
ATOM     29  C   UNL d   1      53.851   0.649  33.809  0.00  0.00     0.003 A 
ATOM     30  C   UNL d   1      54.339   0.635  33.140  0.00  0.00     0.020 A 
ATOM     31  C   UNL d   1      55.168   0.640  33.240  0.00  0.00     0.098 A 
ENDBRANCH   4  25
TORSDOF 5
ENDMDL
