MODEL 1
REMARK VINA RESULT:      -6.8      0.000      0.000
REMARK  4 active torsions:
REMARK  status: ('A' for Active; 'I' for Inactive)
REMARK    1  A    between atoms: C_3  and  C_1 
REMARK    2  A    between atoms: C_4  and  C_1 
REMARK    3  A    between atoms: C_2  and  C_3 
REMARK    4  A    between atoms: C_6  and  C_4 
ROOT
ATOM      1  C   UNL d   1     -48.213  13.353  22.277  0.00  0.00     0.196 C 
ATOM      2  O   UNL d   1     -48.359  13.234  21.472  0.00  0.00    -0.287 OA
ENDROOT
BRANCH   1   3
ATOM      3  C   UNL d   1     -48.699  13.859  22.712  0.00  0.00     0.044 C 
BRANCH   3   4
ATOM      4  C   UNL d   1     -49.348  14.331  22.533  0.00  0.00     0.028 C 
BRANCH   4   5
ATOM      5  C   UNL d   1     -49.787  14.893  22.948  0.00  0.00     0.100 A 
ATOM      6  O   UNL d   1     -49.541  15.537  23.406  0.00  0.00    -0.305 OA
ATOM      7  C   UNL d   1     -50.207  15.922  23.698  0.00  0.00     0.123 A 
ATOM      8  C   UNL d   1     -50.879  15.512  23.418  0.00  0.00     0.029 A 
ATOM      9  C   UNL d   1     -50.626  14.878  22.956  0.00  0.00     0.027 A 
ENDBRANCH   4   5
ENDBRANCH   3   4
ENDBRANCH   1   3
BRANCH   1  10
ATOM     10  C   UNL d   1     -47.580  12.961  22.636  0.00  0.00     0.039 A 
ATOM     11  C   UNL d   1     -47.702  12.279  23.083  0.00  0.00     0.006 A 
ATOM     12  C   UNL d   1     -47.061  11.897  23.435  0.00  0.00     0.042 A 
ATOM     13  C   UNL d   1     -46.296  12.199  23.339  0.00  0.00     0.196 A 
ATOM     14  C   UNL d   1     -46.178  12.888  22.887  0.00  0.00     0.042 A 
ATOM     15  O   UNL d   1     -45.655  11.817  23.691  0.00  0.00    -0.287 OA
ATOM     16  C   UNL d   1     -46.816  13.262  22.540  0.00  0.00     0.006 A 
ENDBRANCH   1  10
TORSDOF 4
ENDMDL
MODEL 2
REMARK VINA RESULT:      -6.6      1.055      1.226
REMARK  4 active torsions:
REMARK  status: ('A' for Active; 'I' for Inactive)
REMARK    1  A    between atoms: C_3  and  C_1 
REMARK    2  A    between atoms: C_4  and  C_1 
REMARK    3  A    between atoms: C_2  and  C_3 
REMARK    4  A    between atoms: C_6  and  C_4 
ROOT
ATOM      1  C   UNL d   1     -47.276  14.580  22.715  0.00  0.00     0.196 C 
ATOM      2  O   UNL d   1     -46.891  15.292  22.549  0.00  0.00    -0.287 OA
ENDROOT
BRANCH   1   3
ATOM      3  C   UNL d   1     -48.101  14.556  22.744  0.00  0.00     0.044 C 
BRANCH   3   4
ATOM      4  C   UNL d   1     -48.696  15.119  22.679  0.00  0.00     0.028 C 
BRANCH   4   5
ATOM      5  C   UNL d   1     -49.519  15.101  22.740  0.00  0.00     0.100 A 
ATOM      6  O   UNL d   1     -50.082  14.675  22.307  0.00  0.00    -0.305 OA
ATOM      7  C   UNL d   1     -50.830  14.860  22.595  0.00  0.00     0.123 A 
ATOM      8  C   UNL d   1     -50.733  15.411  23.216  0.00  0.00     0.029 A 
ATOM      9  C   UNL d   1     -49.929  15.562  23.309  0.00  0.00     0.027 A 
ENDBRANCH   4   5
ENDBRANCH   3   4
ENDBRANCH   1   3
BRANCH   1  10
ATOM     10  C   UNL d   1     -46.827  13.899  22.851  0.00  0.00     0.039 A 
ATOM     11  C   UNL d   1     -47.062  13.341  23.412  0.00  0.00     0.006 A 
ATOM     12  C   UNL d   1     -46.604  12.666  23.536  0.00  0.00     0.042 A 
ATOM     13  C   UNL d   1     -45.911  12.549  23.100  0.00  0.00     0.196 A 
ATOM     14  C   UNL d   1     -45.678  13.115  22.536  0.00  0.00     0.042 A 
ATOM     15  O   UNL d   1     -45.453  11.875  23.225  0.00  0.00    -0.287 OA
ATOM     16  C   UNL d   1     -46.134  13.782  22.415  0.00  0.00     0.006 A 
ENDBRANCH   1  10
TORSDOF 4
ENDMDL
MODEL 3
REMARK VINA RESULT:      -6.2      1.098      4.136
REMARK  4 active torsions:
REMARK  status: ('A' for Active; 'I' for Inactive)
REMARK    1  A    between atoms: C_3  and  C_1 
REMARK    2  A    between atoms: C_4  and  C_1 
REMARK    3  A    between atoms: C_2  and  C_3 
REMARK    4  A    between atoms: C_6  and  C_4 
ROOT
ATOM      1  C   UNL d   1     -47.822  14.585  22.624  0.00  0.00     0.196 C 
ATOM      2  O   UNL d   1     -47.279  15.191  22.480  0.00  0.00    -0.287 OA
ENDROOT
BRANCH   1   3
ATOM      3  C   UNL d   1     -47.555  13.843  22.869  0.00  0.00     0.044 C 
BRANCH   3   4
ATOM      4  C   UNL d   1     -46.829  13.544  23.115  0.00  0.00     0.028 C 
BRANCH   4   5
ATOM      5  C   UNL d   1     -46.529  12.786  23.243  0.00  0.00     0.100 A 
ATOM      6  O   UNL d   1     -45.816  12.442  23.002  0.00  0.00    -0.305 OA
ATOM      7  C   UNL d   1     -45.791  11.668  23.278  0.00  0.00     0.123 A 
ATOM      8  C   UNL d   1     -46.499  11.526  23.698  0.00  0.00     0.029 A 
ATOM      9  C   UNL d   1     -46.957  12.211  23.679  0.00  0.00     0.027 A 
ENDBRANCH   4   5
ENDBRANCH   3   4
ENDBRANCH   1   3
BRANCH   1  10
ATOM     10  C   UNL d   1     -48.629  14.731  22.519  0.00  0.00     0.039 A 
ATOM     11  C   UNL d   1     -49.073  14.294  21.979  0.00  0.00     0.006 A 
ATOM     12  C   UNL d   1     -49.878  14.451  21.885  0.00  0.00     0.042 A 
ATOM     13  C   UNL d   1     -50.238  15.046  22.331  0.00  0.00     0.196 A 
ATOM     14  C   UNL d   1     -49.786  15.486  22.875  0.00  0.00     0.042 A 
ATOM     15  O   UNL d   1     -51.043  15.203  22.237  0.00  0.00    -0.287 OA
ATOM     16  C   UNL d   1     -48.990  15.327  22.965  0.00  0.00     0.006 A 
ENDBRANCH   1  10
TORSDOF 4
ENDMDL
MODEL 4
REMARK VINA RESULT:      -5.6      1.597      4.035
REMARK  4 active torsions:
REMARK  status: ('A' for Active; 'I' for Inactive)
REMARK    1  A    between atoms: C_3  and  C_1 
REMARK    2  A    between atoms: C_4  and  C_1 
REMARK    3  A    between atoms: C_2  and  C_3 
REMARK    4  A    between atoms: C_6  and  C_4 
ROOT
ATOM      1  C   UNL d   1     -48.278  13.917  22.782  0.00  0.00     0.196 C 
ATOM      2  O   UNL d   1     -48.323  14.536  23.328  0.00  0.00    -0.287 OA
ENDROOT
BRANCH   1   3
ATOM      3  C   UNL d   1     -47.542  13.623  22.554  0.00  0.00     0.044 C 
BRANCH   3   4
ATOM      4  C   UNL d   1     -46.789  13.635  22.884  0.00  0.00     0.028 C 
BRANCH   4   5
ATOM      5  C   UNL d   1     -46.080  13.245  22.722  0.00  0.00     0.100 A 
ATOM      6  O   UNL d   1     -45.729  12.591  23.089  0.00  0.00    -0.305 OA
ATOM      7  C   UNL d   1     -45.019  12.426  22.708  0.00  0.00     0.123 A 
ATOM      8  C   UNL d   1     -44.924  12.984  22.094  0.00  0.00     0.029 A 
ATOM      9  C   UNL d   1     -45.574  13.491  22.099  0.00  0.00     0.027 A 
ENDBRANCH   4   5
ENDBRANCH   3   4
ENDBRANCH   1   3
BRANCH   1  10
ATOM     10  C   UNL d   1     -48.976  13.600  22.472  0.00  0.00     0.039 A 
ATOM     11  C   UNL d   1     -49.370  12.984  22.854  0.00  0.00     0.006 A 
ATOM     12  C   UNL d   1     -50.065  12.678  22.533  0.00  0.00     0.042 A 
ATOM     13  C   UNL d   1     -50.368  12.988  21.829  0.00  0.00     0.196 A 
ATOM     14  C   UNL d   1     -49.967  13.609  21.446  0.00  0.00     0.042 A 
ATOM     15  O   UNL d   1     -51.063  12.682  21.508  0.00  0.00    -0.287 OA
ATOM     16  C   UNL d   1     -49.279  13.910  21.767  0.00  0.00     0.006 A 
ENDBRANCH   1  10
TORSDOF 4
ENDMDL
MODEL 5
REMARK VINA RESULT:      -5.5      8.374      9.883
REMARK  4 active torsions:
REMARK  status: ('A' for Active; 'I' for Inactive)
REMARK    1  A    between atoms: C_3  and  C_1 
REMARK    2  A    between atoms: C_4  and  C_1 
REMARK    3  A    between atoms: C_2  and  C_3 
REMARK    4  A    between atoms: C_6  and  C_4 
ROOT
ATOM      1  C   UNL d   1     -40.215  14.087  18.301  0.00  0.00     0.196 C 
ATOM      2  O   UNL d   1     -40.947  13.720  18.183  0.00  0.00    -0.287 OA
ENDROOT
BRANCH   1   3
ATOM      3  C   UNL d   1     -40.064  14.485  19.008  0.00  0.00     0.044 C 
BRANCH   3   4
ATOM      4  C   UNL d   1     -40.518  14.690  19.663  0.00  0.00     0.028 C 
BRANCH   4   5
ATOM      5  C   UNL d   1     -40.367  15.090  20.369  0.00  0.00     0.100 A 
ATOM      6  O   UNL d   1     -39.710  15.066  20.871  0.00  0.00    -0.305 OA
ATOM      7  C   UNL d   1     -39.844  15.575  21.503  0.00  0.00     0.123 A 
ATOM      8  C   UNL d   1     -40.596  15.922  21.394  0.00  0.00     0.029 A 
ATOM      9  C   UNL d   1     -40.922  15.627  20.697  0.00  0.00     0.027 A 
ENDBRANCH   4   5
ENDBRANCH   3   4
ENDBRANCH   1   3
BRANCH   1  10
ATOM     10  C   UNL d   1     -39.643  14.048  17.705  0.00  0.00     0.039 A 
ATOM     11  C   UNL d   1     -39.079  13.446  17.697  0.00  0.00     0.006 A 
ATOM     12  C   UNL d   1     -38.514  13.420  17.097  0.00  0.00     0.042 A 
ATOM     13  C   UNL d   1     -38.513  13.996  16.504  0.00  0.00     0.196 A 
ATOM     14  C   UNL d   1     -39.084  14.602  16.516  0.00  0.00     0.042 A 
ATOM     15  O   UNL d   1     -37.948  13.970  15.903  0.00  0.00    -0.287 OA
ATOM     16  C   UNL d   1     -39.642  14.624  17.112  0.00  0.00     0.006 A 
ENDBRANCH   1  10
TORSDOF 4
ENDMDL
MODEL 6
REMARK VINA RESULT:      -5.3      8.500     10.340
REMARK  4 active torsions:
REMARK  status: ('A' for Active; 'I' for Inactive)
REMARK    1  A    between atoms: C_3  and  C_1 
REMARK    2  A    between atoms: C_4  and  C_1 
REMARK    3  A    between atoms: C_2  and  C_3 
REMARK    4  A    between atoms: C_6  and  C_4 
ROOT
ATOM      1  C   UNL d   1     -40.451  14.389  18.488  0.00  0.00     0.196 C 
ATOM      2  O   UNL d   1     -41.048  13.857  18.277  0.00  0.00    -0.287 OA
ENDROOT
BRANCH   1   3
ATOM      3  C   UNL d   1     -39.822  14.526  17.971  0.00  0.00     0.044 C 
BRANCH   3   4
ATOM      4  C   UNL d   1     -39.607  14.232  17.234  0.00  0.00     0.028 C 
BRANCH   4   5
ATOM      5  C   UNL d   1     -38.988  14.384  16.709  0.00  0.00     0.100 A 
ATOM      6  O   UNL d   1     -38.732  15.094  16.369  0.00  0.00    -0.305 OA
ATOM      7  C   UNL d   1     -38.089  14.935  15.882  0.00  0.00     0.123 A 
ATOM      8  C   UNL d   1     -37.940  14.114  15.919  0.00  0.00     0.029 A 
ATOM      9  C   UNL d   1     -38.491  13.770  16.426  0.00  0.00     0.027 A 
ENDBRANCH   4   5
ENDBRANCH   3   4
ENDBRANCH   1   3
BRANCH   1  10
ATOM     10  C   UNL d   1     -40.494  14.777  19.217  0.00  0.00     0.039 A 
ATOM     11  C   UNL d   1     -40.789  15.545  19.271  0.00  0.00     0.006 A 
ATOM     12  C   UNL d   1     -40.826  15.920  20.005  0.00  0.00     0.042 A 
ATOM     13  C   UNL d   1     -40.568  15.526  20.685  0.00  0.00     0.196 A 
ATOM     14  C   UNL d   1     -40.271  14.751  20.625  0.00  0.00     0.042 A 
ATOM     15  O   UNL d   1     -40.605  15.901  21.419  0.00  0.00    -0.287 OA
ATOM     16  C   UNL d   1     -40.236  14.383  19.897  0.00  0.00     0.006 A 
ENDBRANCH   1  10
TORSDOF 4
ENDMDL
MODEL 7
REMARK VINA RESULT:      -4.8      8.457      9.686
REMARK  4 active torsions:
REMARK  status: ('A' for Active; 'I' for Inactive)
REMARK    1  A    between atoms: C_3  and  C_1 
REMARK    2  A    between atoms: C_4  and  C_1 
REMARK    3  A    between atoms: C_2  and  C_3 
REMARK    4  A    between atoms: C_6  and  C_4 
ROOT
ATOM      1  C   UNL d   1     -40.531  14.746  20.237  0.00  0.00     0.196 C 
ATOM      2  O   UNL d   1     -41.189  14.956  20.691  0.00  0.00    -0.287 OA
ENDROOT
BRANCH   1   3
ATOM      3  C   UNL d   1     -39.880  14.389  20.597  0.00  0.00     0.044 C 
BRANCH   3   4
ATOM      4  C   UNL d   1     -39.698  14.166  21.368  0.00  0.00     0.028 C 
BRANCH   4   5
ATOM      5  C   UNL d   1     -39.069  13.765  21.721  0.00  0.00     0.100 A 
ATOM      6  O   UNL d   1     -38.403  13.406  21.384  0.00  0.00    -0.305 OA
ATOM      7  C   UNL d   1     -37.946  13.083  21.987  0.00  0.00     0.123 A 
ATOM      8  C   UNL d   1     -38.333  13.241  22.711  0.00  0.00     0.029 A 
ATOM      9  C   UNL d   1     -39.024  13.661  22.552  0.00  0.00     0.027 A 
ENDBRANCH   4   5
ENDBRANCH   3   4
ENDBRANCH   1   3
BRANCH   1  10
ATOM     10  C   UNL d   1     -40.535  14.900  19.424  0.00  0.00     0.039 A 
ATOM     11  C   UNL d   1     -40.469  15.670  19.138  0.00  0.00     0.006 A 
ATOM     12  C   UNL d   1     -40.475  15.809  18.325  0.00  0.00     0.042 A 
ATOM     13  C   UNL d   1     -40.546  15.176  17.798  0.00  0.00     0.196 A 
ATOM     14  C   UNL d   1     -40.611  14.399  18.091  0.00  0.00     0.042 A 
ATOM     15  O   UNL d   1     -40.551  15.314  16.984  0.00  0.00    -0.287 OA
ATOM     16  C   UNL d   1     -40.606  14.267  18.897  0.00  0.00     0.006 A 
ENDBRANCH   1  10
TORSDOF 4
ENDMDL
MODEL 8
REMARK VINA RESULT:      -4.1      9.412     10.121
REMARK  4 active torsions:
REMARK  status: ('A' for Active; 'I' for Inactive)
REMARK    1  A    between atoms: C_3  and  C_1 
REMARK    2  A    between atoms: C_4  and  C_1 
REMARK    3  A    between atoms: C_2  and  C_3 
REMARK    4  A    between atoms: C_6  and  C_4 
ROOT
ATOM      1  C   UNL d   1     -38.986  15.144  18.929  0.00  0.00     0.196 C 
ATOM      2  O   UNL d   1     -38.217  14.967  18.683  0.00  0.00    -0.287 OA
ENDROOT
BRANCH   1   3
ATOM      3  C   UNL d   1     -39.133  15.324  19.721  0.00  0.00     0.044 C 
BRANCH   3   4
ATOM      4  C   UNL d   1     -38.658  15.496  20.371  0.00  0.00     0.028 C 
BRANCH   4   5
ATOM      5  C   UNL d   1     -38.793  15.574  21.181  0.00  0.00     0.100 A 
ATOM      6  O   UNL d   1     -38.325  15.354  21.828  0.00  0.00    -0.305 OA
ATOM      7  C   UNL d   1     -38.721  15.557  22.519  0.00  0.00     0.123 A 
ATOM      8  C   UNL d   1     -39.447  15.910  22.302  0.00  0.00     0.029 A 
ATOM      9  C   UNL d   1     -39.496  15.922  21.479  0.00  0.00     0.027 A 
ENDBRANCH   4   5
ENDBRANCH   3   4
ENDBRANCH   1   3
BRANCH   1  10
ATOM     10  C   UNL d   1     -39.600  15.138  18.375  0.00  0.00     0.039 A 
ATOM     11  C   UNL d   1     -40.054  14.460  18.252  0.00  0.00     0.006 A 
ATOM     12  C   UNL d   1     -40.663  14.468  17.696  0.00  0.00     0.042 A 
ATOM     13  C   UNL d   1     -40.818  15.154  17.262  0.00  0.00     0.196 A 
ATOM     14  C   UNL d   1     -40.357  15.836  17.389  0.00  0.00     0.042 A 
ATOM     15  O   UNL d   1     -41.427  15.162  16.706  0.00  0.00    -0.287 OA
ATOM     16  C   UNL d   1     -39.755  15.824  17.941  0.00  0.00     0.006 A 
ENDBRANCH   1  10
TORSDOF 4
ENDMDL
