MODEL 1
REMARK VINA RESULT:     -10.7      0.000      0.000
REMARK  0 active torsions:
REMARK  status: ('A' for Active; 'I' for Inactive)
ROOT
ATOM      1  C   UNL d   1      53.804  33.005  54.301  0.00  0.00     0.134 A 
ATOM      2  N   UNL d   1      53.763  32.207  54.100  0.00  0.00    -0.234 NA
ATOM      3  C   UNL d   1      53.298  33.543  53.930  0.00  0.00     0.045 A 
ATOM      4  C   UNL d   1      53.220  31.950  53.534  0.00  0.00     0.207 A 
ATOM      5  N   UNL d   1      52.711  32.488  53.160  0.00  0.00    -0.244 NA
ATOM      6  C   UNL d   1      52.753  33.285  53.360  0.00  0.00     0.081 A 
ATOM      7  S   UNL d   1      54.345  33.265  54.867  0.00  0.00    -0.058 SA
ATOM      8  C   UNL d   1      53.337  34.344  54.129  0.00  0.00     0.004 A 
ATOM      9  C   UNL d   1      53.722  31.410  53.900  0.00  0.00     0.023 A 
ATOM     10  C   UNL d   1      52.676  31.699  52.967  0.00  0.00     0.023 A 
ATOM     11  C   UNL d   1      52.250  33.830  52.994  0.00  0.00     0.019 A 
ATOM     12  C   UNL d   1      52.836  34.885  53.764  0.00  0.00     0.000 A 
ATOM     13  C   UNL d   1      52.633  30.908  52.766  0.00  0.00    -0.001 A 
ATOM     14  C   UNL d   1      53.680  30.612  53.699  0.00  0.00    -0.001 A 
ATOM     15  C   UNL d   1      52.291  34.627  53.195  0.00  0.00     0.002 A 
ATOM     16  C   UNL d   1      53.136  30.359  53.133  0.00  0.00    -0.000 A 
ENDROOT
TORSDOF 0
ENDMDL
MODEL 2
REMARK VINA RESULT:     -10.6      1.093      3.074
REMARK  0 active torsions:
REMARK  status: ('A' for Active; 'I' for Inactive)
ROOT
ATOM      1  C   UNL d   1      52.648  32.665  53.313  0.00  0.00     0.134 A 
ATOM      2  N   UNL d   1      53.040  33.215  53.785  0.00  0.00    -0.234 NA
ATOM      3  C   UNL d   1      52.897  31.877  53.318  0.00  0.00     0.045 A 
ATOM      4  C   UNL d   1      53.674  32.978  54.256  0.00  0.00     0.207 A 
ATOM      5  N   UNL d   1      53.926  32.188  54.263  0.00  0.00    -0.244 NA
ATOM      6  C   UNL d   1      53.534  31.638  53.792  0.00  0.00     0.081 A 
ATOM      7  S   UNL d   1      52.014  32.899  52.840  0.00  0.00    -0.058 SA
ATOM      8  C   UNL d   1      52.505  31.322  52.846  0.00  0.00     0.004 A 
ATOM      9  C   UNL d   1      53.432  33.765  54.255  0.00  0.00     0.023 A 
ATOM     10  C   UNL d   1      54.308  32.737  54.726  0.00  0.00     0.023 A 
ATOM     11  C   UNL d   1      53.777  30.847  53.791  0.00  0.00     0.019 A 
ATOM     12  C   UNL d   1      52.747  30.536  52.846  0.00  0.00     0.000 A 
ATOM     13  C   UNL d   1      54.699  33.280  55.194  0.00  0.00    -0.001 A 
ATOM     14  C   UNL d   1      53.824  34.315  54.727  0.00  0.00    -0.001 A 
ATOM     15  C   UNL d   1      53.384  30.298  53.320  0.00  0.00     0.002 A 
ATOM     16  C   UNL d   1      54.457  34.074  55.197  0.00  0.00    -0.000 A 
ENDROOT
TORSDOF 0
ENDMDL
MODEL 3
REMARK VINA RESULT:     -10.5      0.578      2.783
REMARK  0 active torsions:
REMARK  status: ('A' for Active; 'I' for Inactive)
ROOT
ATOM      1  C   UNL d   1      53.710  32.750  53.915  0.00  0.00     0.134 A 
ATOM      2  N   UNL d   1      53.277  33.423  53.718  0.00  0.00    -0.234 NA
ATOM      3  C   UNL d   1      53.465  32.013  53.631  0.00  0.00     0.045 A 
ATOM      4  C   UNL d   1      52.607  33.359  53.242  0.00  0.00     0.207 A 
ATOM      5  N   UNL d   1      52.358  32.620  52.955  0.00  0.00    -0.244 NA
ATOM      6  C   UNL d   1      52.791  31.949  53.152  0.00  0.00     0.081 A 
ATOM      7  S   UNL d   1      54.381  32.811  54.391  0.00  0.00    -0.058 SA
ATOM      8  C   UNL d   1      53.897  31.336  53.827  0.00  0.00     0.004 A 
ATOM      9  C   UNL d   1      52.845  34.095  53.522  0.00  0.00     0.023 A 
ATOM     10  C   UNL d   1      51.937  33.289  52.766  0.00  0.00     0.023 A 
ATOM     11  C   UNL d   1      52.553  31.207  52.872  0.00  0.00     0.019 A 
ATOM     12  C   UNL d   1      53.660  30.600  53.548  0.00  0.00     0.000 A 
ATOM     13  C   UNL d   1      51.506  33.955  52.569  0.00  0.00    -0.001 A 
ATOM     14  C   UNL d   1      52.413  34.768  53.325  0.00  0.00    -0.001 A 
ATOM     15  C   UNL d   1      52.986  30.535  53.069  0.00  0.00     0.002 A 
ATOM     16  C   UNL d   1      51.742  34.700  52.849  0.00  0.00    -0.000 A 
ENDROOT
TORSDOF 0
ENDMDL
MODEL 4
REMARK VINA RESULT:     -10.0      1.252      2.627
REMARK  0 active torsions:
REMARK  status: ('A' for Active; 'I' for Inactive)
ROOT
ATOM      1  C   UNL d   1      53.278  32.511  53.641  0.00  0.00     0.134 A 
ATOM      2  N   UNL d   1      52.643  32.826  53.221  0.00  0.00    -0.234 NA
ATOM      3  C   UNL d   1      53.675  32.985  54.190  0.00  0.00     0.045 A 
ATOM      4  C   UNL d   1      52.409  33.607  53.349  0.00  0.00     0.207 A 
ATOM      5  N   UNL d   1      52.805  34.084  53.900  0.00  0.00    -0.244 NA
ATOM      6  C   UNL d   1      53.440  33.769  54.319  0.00  0.00     0.081 A 
ATOM      7  S   UNL d   1      53.515  31.731  53.515  0.00  0.00    -0.058 SA
ATOM      8  C   UNL d   1      54.313  32.671  54.613  0.00  0.00     0.004 A 
ATOM      9  C   UNL d   1      52.009  33.140  52.801  0.00  0.00     0.023 A 
ATOM     10  C   UNL d   1      52.178  34.388  53.481  0.00  0.00     0.023 A 
ATOM     11  C   UNL d   1      53.843  34.236  54.871  0.00  0.00     0.019 A 
ATOM     12  C   UNL d   1      54.713  33.137  55.161  0.00  0.00     0.000 A 
ATOM     13  C   UNL d   1      51.549  34.703  53.066  0.00  0.00    -0.001 A 
ATOM     14  C   UNL d   1      51.374  33.456  52.381  0.00  0.00    -0.001 A 
ATOM     15  C   UNL d   1      54.477  33.921  55.290  0.00  0.00     0.002 A 
ATOM     16  C   UNL d   1      51.143  34.236  52.512  0.00  0.00    -0.000 A 
ENDROOT
TORSDOF 0
ENDMDL
MODEL 5
REMARK VINA RESULT:      -9.9      1.349      2.355
REMARK  0 active torsions:
REMARK  status: ('A' for Active; 'I' for Inactive)
ROOT
ATOM      1  C   UNL d   1      52.779  32.587  53.328  0.00  0.00     0.134 A 
ATOM      2  N   UNL d   1      53.394  32.661  53.872  0.00  0.00    -0.234 NA
ATOM      3  C   UNL d   1      52.311  33.246  53.153  0.00  0.00     0.045 A 
ATOM      4  C   UNL d   1      53.537  33.387  54.237  0.00  0.00     0.207 A 
ATOM      5  N   UNL d   1      53.068  34.050  54.064  0.00  0.00    -0.244 NA
ATOM      6  C   UNL d   1      52.455  33.975  53.520  0.00  0.00     0.081 A 
ATOM      7  S   UNL d   1      52.633  31.863  52.960  0.00  0.00    -0.058 SA
ATOM      8  C   UNL d   1      51.694  33.174  52.607  0.00  0.00     0.004 A 
ATOM      9  C   UNL d   1      54.007  32.735  54.415  0.00  0.00     0.023 A 
ATOM     10  C   UNL d   1      53.676  34.115  54.600  0.00  0.00     0.023 A 
ATOM     11  C   UNL d   1      51.981  34.629  53.340  0.00  0.00     0.019 A 
ATOM     12  C   UNL d   1      51.224  33.825  52.429  0.00  0.00     0.000 A 
ATOM     13  C   UNL d   1      54.284  34.191  55.140  0.00  0.00    -0.001 A 
ATOM     14  C   UNL d   1      54.621  32.809  54.960  0.00  0.00    -0.001 A 
ATOM     15  C   UNL d   1      51.368  34.554  52.796  0.00  0.00     0.002 A 
ATOM     16  C   UNL d   1      54.761  33.537  55.323  0.00  0.00    -0.000 A 
ENDROOT
TORSDOF 0
ENDMDL
MODEL 6
REMARK VINA RESULT:      -9.4      1.421      2.639
REMARK  0 active torsions:
REMARK  status: ('A' for Active; 'I' for Inactive)
ROOT
ATOM      1  C   UNL d   1      53.169  34.654  54.370  0.00  0.00     0.134 A 
ATOM      2  N   UNL d   1      52.538  34.619  53.841  0.00  0.00    -0.234 NA
ATOM      3  C   UNL d   1      53.619  33.975  54.509  0.00  0.00     0.045 A 
ATOM      4  C   UNL d   1      52.360  33.911  53.456  0.00  0.00     0.207 A 
ATOM      5  N   UNL d   1      52.811  33.228  53.594  0.00  0.00    -0.244 NA
ATOM      6  C   UNL d   1      53.441  33.263  54.122  0.00  0.00     0.081 A 
ATOM      7  S   UNL d   1      53.349  35.360  54.757  0.00  0.00    -0.058 SA
ATOM      8  C   UNL d   1      54.253  34.007  55.039  0.00  0.00     0.004 A 
ATOM      9  C   UNL d   1      51.908  34.584  53.313  0.00  0.00     0.023 A 
ATOM     10  C   UNL d   1      52.186  33.201  53.073  0.00  0.00     0.023 A 
ATOM     11  C   UNL d   1      53.897  32.589  54.267  0.00  0.00     0.019 A 
ATOM     12  C   UNL d   1      54.706  33.336  55.182  0.00  0.00     0.000 A 
ATOM     13  C   UNL d   1      51.561  33.163  52.549  0.00  0.00    -0.001 A 
ATOM     14  C   UNL d   1      51.277  34.548  52.785  0.00  0.00    -0.001 A 
ATOM     15  C   UNL d   1      54.527  32.624  54.795  0.00  0.00     0.002 A 
ATOM     16  C   UNL d   1      51.102  33.839  52.402  0.00  0.00    -0.000 A 
ENDROOT
TORSDOF 0
ENDMDL
