MODEL 1
REMARK VINA RESULT:     106.6      0.000      0.000
REMARK  4 active torsions:
REMARK  status: ('A' for Active; 'I' for Inactive)
REMARK    1  A    between atoms: S_2  and  N_1 
REMARK    2  A    between atoms: C_10  and  S_2 
REMARK    3  A    between atoms: C_7  and  C_4 
REMARK    4  A    between atoms: C_11  and  C_5 
ROOT
ATOM      1  N   UNL d   1      60.284  47.978  50.467  0.00  0.00    -0.152 N 
ATOM      2  N   UNL d   1      60.361  47.296  49.981  0.00  0.00    -0.155 NA
ATOM      3  C   UNL d   1      60.901  47.969  51.024  0.00  0.00     0.099 A 
ATOM      4  C   UNL d   1      61.023  46.860  50.231  0.00  0.00     0.104 A 
ATOM      5  C   UNL d   1      61.359  47.270  50.873  0.00  0.00     0.041 A 
ENDROOT
BRANCH   1   6
ATOM      6  S   UNL d   1      59.715  48.552  50.415  0.00  0.00     0.286 S 
ATOM      7  O   UNL d   1      60.331  49.201  50.216  0.00  0.00    -0.198 OA
ATOM      8  O   UNL d   1      59.138  47.975  50.596  0.00  0.00    -0.198 OA
BRANCH   6   9
ATOM      9  C   UNL d   1      58.988  48.933  50.420  0.00  0.00     0.105 A 
ATOM     10  C   UNL d   1      58.719  49.317  49.740  0.00  0.00     0.013 A 
ATOM     11  C   UNL d   1      57.987  49.700  49.745  0.00  0.00     0.001 A 
ATOM     12  C   UNL d   1      57.547  49.687  50.429  0.00  0.00     0.000 A 
ATOM     13  C   UNL d   1      57.793  49.314  51.109  0.00  0.00     0.001 A 
ATOM     14  C   UNL d   1      58.525  48.931  51.105  0.00  0.00     0.013 A 
ENDBRANCH   6   9
ENDBRANCH   1   6
BRANCH   3  15
ATOM     15  C   UNL d   1      61.046  48.527  51.613  0.00  0.00     0.058 A 
ATOM     16  C   UNL d   1      61.574  49.126  51.455  0.00  0.00     0.197 A 
ATOM     17  O   UNL d   1      61.964  49.202  50.747  0.00  0.00    -0.286 OA
ATOM     18  C   UNL d   1      61.724  49.704  52.065  0.00  0.00     0.042 A 
ATOM     19  C   UNL d   1      61.338  49.646  52.793  0.00  0.00     0.003 A 
ATOM     20  C   UNL d   1      60.816  49.022  52.898  0.00  0.00     0.000 A 
ATOM     21  C   UNL d   1      60.675  48.480  52.328  0.00  0.00     0.005 A 
ENDBRANCH   3  15
BRANCH   4  22
ATOM     22  C   UNL d   1      61.279  46.168  49.900  0.00  0.00     0.019 A 
ATOM     23  C   UNL d   1      60.972  45.446  50.169  0.00  0.00     0.002 A 
ATOM     24  C   UNL d   1      61.228  44.752  49.838  0.00  0.00     0.000 A 
ATOM     25  C   UNL d   1      61.767  44.768  49.263  0.00  0.00     0.000 A 
ATOM     26  C   UNL d   1      62.083  45.452  48.981  0.00  0.00     0.000 A 
ATOM     27  C   UNL d   1      62.013  44.050  48.940  0.00  0.00     0.000 C 
ATOM     28  C   UNL d   1      61.836  46.173  49.304  0.00  0.00     0.002 A 
ENDBRANCH   4  22
TORSDOF 4
ENDMDL
MODEL 2
REMARK VINA RESULT:     106.7      2.918      3.966
REMARK  4 active torsions:
REMARK  status: ('A' for Active; 'I' for Inactive)
REMARK    1  A    between atoms: S_2  and  N_1 
REMARK    2  A    between atoms: C_10  and  S_2 
REMARK    3  A    between atoms: C_7  and  C_4 
REMARK    4  A    between atoms: C_11  and  C_5 
ROOT
ATOM      1  N   UNL d   1      58.414  49.164  51.818  0.00  0.00    -0.152 N 
ATOM      2  N   UNL d   1      59.230  49.163  51.613  0.00  0.00    -0.155 NA
ATOM      3  C   UNL d   1      58.346  49.418  52.606  0.00  0.00     0.099 A 
ATOM      4  C   UNL d   1      59.673  49.414  52.269  0.00  0.00     0.104 A 
ATOM      5  C   UNL d   1      59.133  49.573  52.883  0.00  0.00     0.041 A 
ENDROOT
BRANCH   1   6
ATOM      6  S   UNL d   1      57.791  48.958  51.343  0.00  0.00     0.286 S 
ATOM      7  O   UNL d   1      57.597  48.219  51.849  0.00  0.00    -0.198 OA
ATOM      8  O   UNL d   1      57.952  49.626  50.867  0.00  0.00    -0.198 OA
BRANCH   6   9
ATOM      9  C   UNL d   1      57.237  48.961  50.737  0.00  0.00     0.105 A 
ATOM     10  C   UNL d   1      56.988  49.677  50.409  0.00  0.00     0.013 A 
ATOM     11  C   UNL d   1      56.430  49.680  49.800  0.00  0.00     0.001 A 
ATOM     12  C   UNL d   1      56.138  48.968  49.537  0.00  0.00     0.000 A 
ATOM     13  C   UNL d   1      56.370  48.251  49.846  0.00  0.00     0.001 A 
ATOM     14  C   UNL d   1      56.928  48.248  50.456  0.00  0.00     0.013 A 
ENDBRANCH   6   9
ENDBRANCH   1   6
BRANCH   3  15
ATOM     15  C   UNL d   1      57.651  49.505  53.042  0.00  0.00     0.058 A 
ATOM     16  C   UNL d   1      57.699  49.480  53.853  0.00  0.00     0.197 A 
ATOM     17  O   UNL d   1      58.396  49.373  54.256  0.00  0.00    -0.286 OA
ATOM     18  C   UNL d   1      56.980  49.570  54.304  0.00  0.00     0.042 A 
ATOM     19  C   UNL d   1      56.260  49.680  53.915  0.00  0.00     0.003 A 
ATOM     20  C   UNL d   1      56.269  49.698  53.094  0.00  0.00     0.000 A 
ATOM     21  C   UNL d   1      56.942  49.613  52.672  0.00  0.00     0.005 A 
ENDBRANCH   3  15
BRANCH   4  22
ATOM     22  C   UNL d   1      60.477  49.486  52.290  0.00  0.00     0.019 A 
ATOM     23  C   UNL d   1      60.865  49.560  53.019  0.00  0.00     0.002 A 
ATOM     24  C   UNL d   1      61.672  49.632  53.041  0.00  0.00     0.000 A 
ATOM     25  C   UNL d   1      62.083  49.630  52.368  0.00  0.00     0.000 A 
ATOM     26  C   UNL d   1      61.736  49.560  51.646  0.00  0.00     0.000 A 
ATOM     27  C   UNL d   1      62.904  49.705  52.413  0.00  0.00     0.000 C 
ATOM     28  C   UNL d   1      60.913  49.485  51.600  0.00  0.00     0.002 A 
ENDBRANCH   4  22
TORSDOF 4
ENDMDL
