MODEL 1
REMARK VINA RESULT:      -7.9      0.000      0.000
REMARK  5 active torsions:
REMARK  status: ('A' for Active; 'I' for Inactive)
REMARK    1  A    between atoms: N_7  and  C_1 
REMARK    2  A    between atoms: C_12  and  C_2 
REMARK       I    between atoms: C_8  and  N_7 
REMARK    3  A    between atoms: C_10  and  C_8 
REMARK    4  A    between atoms: N_9  and  C_16 
REMARK    5  A    between atoms: C_16  and  C_10 
ROOT
ATOM      1  C   UNL d   1     -47.659  13.703  22.646  0.00  0.00     0.142 A 
ATOM      2  C   UNL d   1     -48.469  13.597  22.773  0.00  0.00     0.024 A 
ATOM      3  C   UNL d   1     -47.346  14.442  22.573  0.00  0.00     0.297 A 
ATOM      4  C   UNL d   1     -48.952  14.262  22.825  0.00  0.00     0.020 A 
ATOM      5  N   UNL d   1     -47.828  15.113  22.625  0.00  0.00    -0.207 NA
ATOM      6  C   UNL d   1     -48.633  15.018  22.751  0.00  0.00     0.085 A 
ATOM      7  C   UNL d   1     -49.761  14.160  22.953  0.00  0.00     0.008 A 
ATOM      8  O   UNL d   1     -46.530  14.534  22.445  0.00  0.00    -0.264 OA
ATOM      9  C   UNL d   1     -49.120  15.677  22.804  0.00  0.00     0.020 A 
ATOM     10  C   UNL d   1     -50.250  14.833  23.005  0.00  0.00     0.035 A 
ATOM     11  C   UNL d   1     -49.938  15.572  22.933  0.00  0.00     0.008 A 
ATOM     12 BR   UNL d   1     -51.063  14.751  23.133  0.00  0.00    -0.049 Br
ENDROOT
BRANCH   1  13
ATOM     13  N   UNL d   1     -47.158  13.048  22.590  0.00  0.00    -0.203 NA
ATOM     14  C   UNL d   1     -46.402  13.060  22.916  0.00  0.00     0.281 C 
ATOM     15  O   UNL d   1     -45.686  13.386  23.353  0.00  0.00    -0.265 OA
BRANCH  14  16
ATOM     16  C   UNL d   1     -45.904  12.409  22.861  0.00  0.00     0.082 C 
BRANCH  16  17
ATOM     17  C   UNL d   1     -45.682  11.979  23.522  0.00  0.00     0.085 C 
BRANCH  17  18
ATOM     18  N   UNL d   1     -45.208  11.313  23.470  0.00  0.00    -0.299 N 
ATOM     19  C   UNL d   1     -44.431  11.349  23.200  0.00  0.00     0.107 A 
ATOM     20  C   UNL d   1     -43.972  10.677  23.153  0.00  0.00     0.142 A 
ATOM     21  O   UNL d   1     -44.289   9.937  23.381  0.00  0.00    -0.300 OA
ATOM     22  C   UNL d   1     -45.043   9.900  23.644  0.00  0.00     0.142 A 
ATOM     23  C   UNL d   1     -45.525  10.573  23.698  0.00  0.00     0.107 A 
ENDBRANCH  17  18
ENDBRANCH  16  17
ENDBRANCH  14  16
ENDBRANCH   1  13
BRANCH   2  24
ATOM     24  C   UNL d   1     -48.785  12.850  22.846  0.00  0.00     0.002 A 
ATOM     25  C   UNL d   1     -48.909  12.517  23.591  0.00  0.00     0.000 A 
ATOM     26  C   UNL d   1     -49.229  11.759  23.665  0.00  0.00     0.000 A 
ATOM     27  C   UNL d   1     -49.423  11.340  22.994  0.00  0.00     0.000 A 
ATOM     28  C   UNL d   1     -49.310  11.645  22.251  0.00  0.00     0.000 A 
ATOM     29  C   UNL d   1     -48.986  12.411  22.176  0.00  0.00     0.000 A 
ENDBRANCH   2  24
TORSDOF 5
ENDMDL
MODEL 2
REMARK VINA RESULT:      -6.3      2.262      5.102
REMARK  5 active torsions:
REMARK  status: ('A' for Active; 'I' for Inactive)
REMARK    1  A    between atoms: N_7  and  C_1 
REMARK    2  A    between atoms: C_12  and  C_2 
REMARK       I    between atoms: C_8  and  N_7 
REMARK    3  A    between atoms: C_10  and  C_8 
REMARK    4  A    between atoms: N_9  and  C_16 
REMARK    5  A    between atoms: C_16  and  C_10 
ROOT
ATOM      1  C   UNL d   1     -47.730  11.956  23.283  0.00  0.00     0.142 A 
ATOM      2  C   UNL d   1     -46.940  12.156  23.140  0.00  0.00     0.024 A 
ATOM      3  C   UNL d   1     -47.927  11.223  23.555  0.00  0.00     0.297 A 
ATOM      4  C   UNL d   1     -46.356  11.591  23.281  0.00  0.00     0.020 A 
ATOM      5  N   UNL d   1     -47.344  10.653  23.698  0.00  0.00    -0.207 NA
ATOM      6  C   UNL d   1     -46.557  10.843  23.559  0.00  0.00     0.085 A 
ATOM      7  C   UNL d   1     -45.567  11.787  23.140  0.00  0.00     0.008 A 
ATOM      8  O   UNL d   1     -48.724  11.036  23.694  0.00  0.00    -0.264 OA
ATOM      9  C   UNL d   1     -45.971  10.284  23.697  0.00  0.00     0.020 A 
ATOM     10  C   UNL d   1     -44.977  11.216  23.282  0.00  0.00     0.035 A 
ATOM     11  C   UNL d   1     -45.174  10.483  23.554  0.00  0.00     0.008 A 
ATOM     12 BR   UNL d   1     -44.181  11.394  23.146  0.00  0.00    -0.049 Br
ENDROOT
BRANCH   1  13
ATOM     13  N   UNL d   1     -48.329  12.509  23.148  0.00  0.00    -0.203 NA
ATOM     14  C   UNL d   1     -49.086  12.272  22.927  0.00  0.00     0.281 C 
ATOM     15  O   UNL d   1     -49.757  11.712  22.713  0.00  0.00    -0.265 OA
BRANCH  14  16
ATOM     16  C   UNL d   1     -49.681  12.822  22.793  0.00  0.00     0.082 C 
BRANCH  16  17
ATOM     17  C   UNL d   1     -49.936  13.333  23.380  0.00  0.00     0.085 C 
BRANCH  17  18
ATOM     18  N   UNL d   1     -50.241  14.075  23.210  0.00  0.00    -0.299 N 
ATOM     19  C   UNL d   1     -50.075  14.733  23.677  0.00  0.00     0.107 A 
ATOM     20  C   UNL d   1     -50.386  15.464  23.495  0.00  0.00     0.142 A 
ATOM     21  O   UNL d   1     -50.881  15.553  22.827  0.00  0.00    -0.300 OA
ATOM     22  C   UNL d   1     -51.044  14.916  22.373  0.00  0.00     0.142 A 
ATOM     23  C   UNL d   1     -50.736  14.164  22.542  0.00  0.00     0.107 A 
ENDBRANCH  17  18
ENDBRANCH  16  17
ENDBRANCH  14  16
ENDBRANCH   1  13
BRANCH   2  24
ATOM     24  C   UNL d   1     -46.741  12.896  22.866  0.00  0.00     0.002 A 
ATOM     25  C   UNL d   1     -46.586  13.512  23.393  0.00  0.00     0.000 A 
ATOM     26  C   UNL d   1     -46.384  14.264  23.114  0.00  0.00     0.000 A 
ATOM     27  C   UNL d   1     -46.339  14.393  22.311  0.00  0.00     0.000 A 
ATOM     28  C   UNL d   1     -46.486  13.803  21.773  0.00  0.00     0.000 A 
ATOM     29  C   UNL d   1     -46.690  13.044  22.055  0.00  0.00     0.000 A 
ENDBRANCH   2  24
TORSDOF 5
ENDMDL
