MODEL 1
REMARK VINA RESULT:      -1.7      0.000      0.000
REMARK  5 active torsions:
REMARK  status: ('A' for Active; 'I' for Inactive)
REMARK    1  A    between atoms: C_5  and  C_1 
REMARK    2  A    between atoms: C_9  and  N_2 
REMARK    3  A    between atoms: N_8  and  C_5 
REMARK    4  A    between atoms: N_6  and  C_10 
REMARK    5  A    between atoms: C_18  and  N_8 
ROOT
ATOM      1  C   UNL d   1      33.090  20.543 -22.216  0.00  0.00     0.067 A 
ATOM      2  N   UNL d   1      32.958  19.389 -22.948  0.00  0.00    -0.230 N 
ATOM      3  C   UNL d   1      32.915  19.713 -22.159  0.00  0.00     0.087 A 
ATOM      4  N   UNL d   1      33.159  20.020 -23.486  0.00  0.00    -0.164 NA
ATOM      5  C   UNL d   1      33.240  20.731 -23.031  0.00  0.00     0.124 A 
ATOM      6  C   UNL d   1      32.738  19.298 -21.478  0.00  0.00     0.021 C 
ENDROOT
BRANCH   1   7
ATOM      7  C   UNL d   1      33.110  21.074 -21.584  0.00  0.00     0.139 C 
ATOM      8  S   UNL d   1      33.007  20.804 -20.822  0.00  0.00    -0.057 SA
BRANCH   7   9
ATOM      9  N   UNL d   1      33.234  21.868 -21.724  0.00  0.00    -0.235 NA
BRANCH   9  10
ATOM     10  C   UNL d   1      32.891  22.420 -21.239  0.00  0.00     0.082 A 
ATOM     11  C   UNL d   1      32.198  22.795 -21.463  0.00  0.00     0.019 A 
ATOM     12  C   UNL d   1      31.863  23.341 -20.979  0.00  0.00     0.002 A 
ATOM     13  C   UNL d   1      32.210  23.528 -20.255  0.00  0.00     0.000 A 
ATOM     14  C   UNL d   1      32.896  23.160 -20.028  0.00  0.00     0.002 A 
ATOM     15  C   UNL d   1      33.241  22.603 -20.519  0.00  0.00     0.019 A 
ENDBRANCH   9  10
ENDBRANCH   7   9
ENDBRANCH   1   7
BRANCH   2  16
ATOM     16  C   UNL d   1      32.829  18.603 -23.162  0.00  0.00     0.083 A 
ATOM     17  C   UNL d   1      32.275  18.431 -23.757  0.00  0.00     0.021 A 
ATOM     18  C   UNL d   1      32.140  17.646 -23.978  0.00  0.00     0.025 A 
ATOM     19  C   UNL d   1      32.558  17.034 -23.604  0.00  0.00     0.127 A 
ATOM     20  C   UNL d   1      33.111  17.206 -23.010  0.00  0.00     0.025 A 
ATOM     21  C   UNL d   1      33.241  17.993 -22.795  0.00  0.00     0.021 A 
BRANCH  19  22
ATOM     22  N   UNL d   1      32.423  16.250 -23.825  0.00  0.00    -0.114 N 
ATOM     23  O   UNL d   1      33.050  15.718 -23.881  0.00  0.00    -0.532 OA
ATOM     24  O   UNL d   1      31.655  15.990 -23.992  0.00  0.00    -0.532 OA
ENDBRANCH  19  22
ENDBRANCH   2  16
TORSDOF 5
ENDMDL
MODEL 2
REMARK VINA RESULT:      -0.8      2.737      5.512
REMARK  5 active torsions:
REMARK  status: ('A' for Active; 'I' for Inactive)
REMARK    1  A    between atoms: C_5  and  C_1 
REMARK    2  A    between atoms: C_9  and  N_2 
REMARK    3  A    between atoms: N_8  and  C_5 
REMARK    4  A    between atoms: N_6  and  C_10 
REMARK    5  A    between atoms: C_18  and  N_8 
ROOT
ATOM      1  C   UNL d   1      32.159  17.548 -23.843  0.00  0.00     0.067 A 
ATOM      2  N   UNL d   1      32.686  18.601 -23.138  0.00  0.00    -0.230 N 
ATOM      3  C   UNL d   1      32.045  18.367 -23.651  0.00  0.00     0.087 A 
ATOM      4  N   UNL d   1      33.192  17.925 -23.017  0.00  0.00    -0.164 NA
ATOM      5  C   UNL d   1      32.864  17.276 -23.453  0.00  0.00     0.124 A 
ATOM      6  C   UNL d   1      31.435  18.848 -23.907  0.00  0.00     0.021 C 
ENDROOT
BRANCH   1   7
ATOM      7  C   UNL d   1      31.666  17.095 -24.326  0.00  0.00     0.139 C 
ATOM      8  S   UNL d   1      31.317  17.431 -24.981  0.00  0.00    -0.057 SA
BRANCH   7   9
ATOM      9  N   UNL d   1      31.530  16.311 -24.147  0.00  0.00    -0.235 NA
BRANCH   9  10
ATOM     10  C   UNL d   1      30.768  16.036 -24.097  0.00  0.00     0.082 A 
ATOM     11  C   UNL d   1      30.335  15.894 -24.777  0.00  0.00     0.019 A 
ATOM     12  C   UNL d   1      29.581  15.622 -24.723  0.00  0.00     0.002 A 
ATOM     13  C   UNL d   1      29.238  15.483 -23.985  0.00  0.00     0.000 A 
ATOM     14  C   UNL d   1      29.663  15.622 -23.310  0.00  0.00     0.002 A 
ATOM     15  C   UNL d   1      30.432  15.899 -23.361  0.00  0.00     0.019 A 
ENDBRANCH   9  10
ENDBRANCH   7   9
ENDBRANCH   1   7
BRANCH   2  16
ATOM     16  C   UNL d   1      32.805  19.349 -22.811  0.00  0.00     0.083 A 
ATOM     17  C   UNL d   1      33.118  19.954 -23.286  0.00  0.00     0.021 A 
ATOM     18  C   UNL d   1      33.240  20.706 -22.967  0.00  0.00     0.025 A 
ATOM     19  C   UNL d   1      33.050  20.853 -22.173  0.00  0.00     0.127 A 
ATOM     20  C   UNL d   1      32.738  20.248 -21.698  0.00  0.00     0.025 A 
ATOM     21  C   UNL d   1      32.618  19.499 -22.025  0.00  0.00     0.021 A 
BRANCH  19  22
ATOM     22  N   UNL d   1      33.173  21.605 -21.854  0.00  0.00    -0.114 N 
ATOM     23  O   UNL d   1      33.228  22.263 -22.346  0.00  0.00    -0.532 OA
ATOM     24  O   UNL d   1      33.241  21.704 -21.035  0.00  0.00    -0.532 OA
ENDBRANCH  19  22
ENDBRANCH   2  16
TORSDOF 5
ENDMDL
MODEL 3
REMARK VINA RESULT:       0.7      2.181      3.468
REMARK  5 active torsions:
REMARK  status: ('A' for Active; 'I' for Inactive)
REMARK    1  A    between atoms: C_5  and  C_1 
REMARK    2  A    between atoms: C_9  and  N_2 
REMARK    3  A    between atoms: N_8  and  C_5 
REMARK    4  A    between atoms: N_6  and  C_10 
REMARK    5  A    between atoms: C_18  and  N_8 
ROOT
ATOM      1  C   UNL d   1      32.412  22.861 -19.933  0.00  0.00     0.067 A 
ATOM      2  N   UNL d   1      32.470  22.027 -21.021  0.00  0.00    -0.230 N 
ATOM      3  C   UNL d   1      32.666  22.093 -20.193  0.00  0.00     0.087 A 
ATOM      4  N   UNL d   1      32.097  22.754 -21.267  0.00  0.00    -0.164 NA
ATOM      5  C   UNL d   1      32.063  23.267 -20.592  0.00  0.00     0.124 A 
ATOM      6  C   UNL d   1      33.031  21.520 -19.739  0.00  0.00     0.021 C 
ENDROOT
BRANCH   1   7
ATOM      7  C   UNL d   1      32.493  23.160 -19.167  0.00  0.00     0.139 C 
ATOM      8  S   UNL d   1      31.925  23.657 -18.862  0.00  0.00    -0.057 SA
BRANCH   7   9
ATOM      9  N   UNL d   1      33.143  22.955 -18.718  0.00  0.00    -0.235 NA
BRANCH   9  10
ATOM     10  C   UNL d   1      33.096  22.981 -17.908  0.00  0.00     0.082 A 
ATOM     11  C   UNL d   1      32.913  23.682 -17.527  0.00  0.00     0.019 A 
ATOM     12  C   UNL d   1      32.868  23.701 -16.725  0.00  0.00     0.002 A 
ATOM     13  C   UNL d   1      33.006  23.020 -16.280  0.00  0.00     0.000 A 
ATOM     14  C   UNL d   1      33.188  22.324 -16.654  0.00  0.00     0.002 A 
ATOM     15  C   UNL d   1      33.234  22.300 -17.471  0.00  0.00     0.019 A 
ENDBRANCH   9  10
ENDBRANCH   7   9
ENDBRANCH   1   7
BRANCH   2  16
ATOM     16  C   UNL d   1      32.613  21.377 -21.509  0.00  0.00     0.083 A 
ATOM     17  C   UNL d   1      32.985  21.494 -22.242  0.00  0.00     0.021 A 
ATOM     18  C   UNL d   1      33.132  20.849 -22.736  0.00  0.00     0.025 A 
ATOM     19  C   UNL d   1      32.906  20.086 -22.497  0.00  0.00     0.127 A 
ATOM     20  C   UNL d   1      32.534  19.969 -21.764  0.00  0.00     0.025 A 
ATOM     21  C   UNL d   1      32.391  20.620 -21.276  0.00  0.00     0.021 A 
BRANCH  19  22
ATOM     22  N   UNL d   1      33.053  19.441 -22.991  0.00  0.00    -0.114 N 
ATOM     23  O   UNL d   1      33.089  18.678 -22.681  0.00  0.00    -0.532 OA
ATOM     24  O   UNL d   1      33.165  19.554 -23.803  0.00  0.00    -0.532 OA
ENDBRANCH  19  22
ENDBRANCH   2  16
TORSDOF 5
ENDMDL
