MODEL 1
REMARK VINA RESULT:      -6.3      0.000      0.000
REMARK  6 active torsions:
REMARK  status: ('A' for Active; 'I' for Inactive)
REMARK    1  A    between atoms: N_7  and  C_1 
REMARK    2  A    between atoms: C_6  and  C_4 
REMARK    3  A    between atoms: C_22  and  C_12 
REMARK    4  A    between atoms: C_23  and  N_13 
REMARK    5  A    between atoms: O_17  and  C_22 
REMARK    6  A    between atoms: C_18  and  O_17 
ROOT
ATOM      1  C   UNL d   1     -46.154  12.994  22.498  0.00  0.00     0.198 A 
ATOM      2  C   UNL d   1     -45.868  13.750  22.431  0.00  0.00     0.191 A 
ATOM      3  O   UNL d   1     -45.555  12.496  22.266  0.00  0.00    -0.268 OA
ATOM      4  C   UNL d   1     -44.916  12.951  22.063  0.00  0.00     0.208 A 
ATOM      5  N   UNL d   1     -45.112  13.686  22.164  0.00  0.00    -0.206 NA
ATOM      6  C   UNL d   1     -46.260  14.481  22.601  0.00  0.00     0.124 C 
ATOM      7  N   UNL d   1     -46.658  15.202  22.772  0.00  0.00    -0.190 NA
ENDROOT
BRANCH   1   8
ATOM      8  N   UNL d   1     -46.865  12.638  22.731  0.00  0.00    -0.280 N 
ATOM      9  C   UNL d   1     -47.497  12.651  22.234  0.00  0.00     0.101 A 
ATOM     10  C   UNL d   1     -48.208  12.294  22.467  0.00  0.00     0.100 A 
ATOM     11  N   UNL d   1     -48.268  11.943  23.170  0.00  0.00    -0.300 N 
ATOM     12  C   UNL d   1     -47.627  11.918  23.697  0.00  0.00     0.100 A 
ATOM     13  C   UNL d   1     -46.912  12.268  23.481  0.00  0.00     0.101 A 
BRANCH  11  14
ATOM     14  C   UNL d   1     -48.979  11.586  23.402  0.00  0.00     0.080 C 
ATOM     15  C   UNL d   1     -49.738  11.902  23.177  0.00  0.00     0.021 C 
ENDBRANCH  11  14
ENDBRANCH   1   8
BRANCH   4  16
ATOM     16  C   UNL d   1     -44.188  13.187  21.819  0.00  0.00     0.141 A 
ATOM     17  O   UNL d   1     -43.553  13.721  21.626  0.00  0.00    -0.301 OA
ATOM     18  C   UNL d   1     -42.929  13.243  21.377  0.00  0.00     0.125 A 
ATOM     19  C   UNL d   1     -43.172  12.473  21.417  0.00  0.00     0.029 A 
ATOM     20  C   UNL d   1     -43.936  12.448  21.687  0.00  0.00     0.030 A 
BRANCH  18  21
ATOM     21  C   UNL d   1     -42.211  13.531  21.139  0.00  0.00     0.147 C 
BRANCH  21  22
ATOM     22  O   UNL d   1     -42.049  14.320  21.145  0.00  0.00    -0.303 OA
BRANCH  22  23
ATOM     23  C   UNL d   1     -41.312  14.599  20.999  0.00  0.00     0.100 A 
ATOM     24  C   UNL d   1     -41.184  15.407  20.869  0.00  0.00     0.023 A 
ATOM     25  C   UNL d   1     -41.834  15.921  20.892  0.00  0.00     0.002 C 
ATOM     26  C   UNL d   1     -40.456  15.683  20.725  0.00  0.00     0.002 A 
ATOM     27  C   UNL d   1     -39.806  15.169  20.701  0.00  0.00     0.000 A 
ATOM     28  C   UNL d   1     -39.931  14.352  20.832  0.00  0.00     0.002 A 
ATOM     29  C   UNL d   1     -40.659  14.076  20.977  0.00  0.00     0.025 A 
ENDBRANCH  22  23
ENDBRANCH  21  22
ENDBRANCH  18  21
ENDBRANCH   4  16
TORSDOF 6
ENDMDL
MODEL 2
REMARK VINA RESULT:      -3.6      1.409      6.560
REMARK  6 active torsions:
REMARK  status: ('A' for Active; 'I' for Inactive)
REMARK    1  A    between atoms: N_7  and  C_1 
REMARK    2  A    between atoms: C_6  and  C_4 
REMARK    3  A    between atoms: C_22  and  C_12 
REMARK    4  A    between atoms: C_23  and  N_13 
REMARK    5  A    between atoms: O_17  and  C_22 
REMARK    6  A    between atoms: C_18  and  O_17 
ROOT
ATOM      1  C   UNL d   1     -43.789  13.028  21.749  0.00  0.00     0.198 A 
ATOM      2  C   UNL d   1     -44.038  12.391  22.184  0.00  0.00     0.191 A 
ATOM      3  O   UNL d   1     -44.434  13.512  21.651  0.00  0.00    -0.268 OA
ATOM      4  C   UNL d   1     -45.065  13.166  22.025  0.00  0.00     0.208 A 
ATOM      5  N   UNL d   1     -44.820  12.508  22.334  0.00  0.00    -0.206 NA
ATOM      6  C   UNL d   1     -43.593  11.720  22.445  0.00  0.00     0.124 C 
ATOM      7  N   UNL d   1     -43.141  11.058  22.699  0.00  0.00    -0.190 NA
ENDROOT
BRANCH   1   8
ATOM      8  N   UNL d   1     -43.079  13.282  21.406  0.00  0.00    -0.280 N 
ATOM      9  C   UNL d   1     -42.594  13.776  21.816  0.00  0.00     0.101 A 
ATOM     10  C   UNL d   1     -41.883  14.030  21.472  0.00  0.00     0.100 A 
ATOM     11  N   UNL d   1     -41.681  13.790  20.749  0.00  0.00    -0.300 N 
ATOM     12  C   UNL d   1     -42.167  13.281  20.309  0.00  0.00     0.100 A 
ATOM     13  C   UNL d   1     -42.878  13.019  20.636  0.00  0.00     0.101 A 
BRANCH  11  14
ATOM     14  C   UNL d   1     -40.971  14.045  20.406  0.00  0.00     0.080 C 
ATOM     15  C   UNL d   1     -40.395  14.497  20.842  0.00  0.00     0.021 C 
ENDBRANCH  11  14
ENDBRANCH   1   8
BRANCH   4  16
ATOM     16  C   UNL d   1     -45.800  13.020  22.313  0.00  0.00     0.141 A 
ATOM     17  O   UNL d   1     -46.456  12.567  22.613  0.00  0.00    -0.301 OA
ATOM     18  C   UNL d   1     -47.055  13.114  22.761  0.00  0.00     0.125 A 
ATOM     19  C   UNL d   1     -46.777  13.847  22.563  0.00  0.00     0.029 A 
ATOM     20  C   UNL d   1     -46.016  13.781  22.293  0.00  0.00     0.030 A 
BRANCH  18  21
ATOM     21  C   UNL d   1     -47.783  12.914  23.054  0.00  0.00     0.147 C 
BRANCH  21  22
ATOM     22  O   UNL d   1     -48.448  12.964  22.602  0.00  0.00    -0.303 OA
BRANCH  22  23
ATOM     23  C   UNL d   1     -49.134  12.618  22.825  0.00  0.00     0.100 A 
ATOM     24  C   UNL d   1     -49.839  12.772  22.416  0.00  0.00     0.023 A 
ATOM     25  C   UNL d   1     -49.818  13.292  21.771  0.00  0.00     0.002 C 
ATOM     26  C   UNL d   1     -50.518  12.429  22.637  0.00  0.00     0.002 A 
ATOM     27  C   UNL d   1     -50.539  11.909  23.282  0.00  0.00     0.000 A 
ATOM     28  C   UNL d   1     -49.830  11.751  23.698  0.00  0.00     0.002 A 
ATOM     29  C   UNL d   1     -49.151  12.093  23.477  0.00  0.00     0.025 A 
ENDBRANCH  22  23
ENDBRANCH  21  22
ENDBRANCH  18  21
ENDBRANCH   4  16
TORSDOF 6
ENDMDL
MODEL 3
REMARK VINA RESULT:      -3.4      1.076      1.570
REMARK  6 active torsions:
REMARK  status: ('A' for Active; 'I' for Inactive)
REMARK    1  A    between atoms: N_7  and  C_1 
REMARK    2  A    between atoms: C_6  and  C_4 
REMARK    3  A    between atoms: C_22  and  C_12 
REMARK    4  A    between atoms: C_23  and  N_13 
REMARK    5  A    between atoms: O_17  and  C_22 
REMARK    6  A    between atoms: C_18  and  O_17 
ROOT
ATOM      1  C   UNL d   1     -45.925  12.524  22.546  0.00  0.00     0.198 A 
ATOM      2  C   UNL d   1     -45.343  12.000  22.754  0.00  0.00     0.191 A 
ATOM      3  O   UNL d   1     -45.573  13.097  22.089  0.00  0.00    -0.268 OA
ATOM      4  C   UNL d   1     -44.786  12.916  22.025  0.00  0.00     0.208 A 
ATOM      5  N   UNL d   1     -44.662  12.270  22.420  0.00  0.00    -0.206 NA
ATOM      6  C   UNL d   1     -45.403  11.301  23.227  0.00  0.00     0.124 C 
ATOM      7  N   UNL d   1     -45.474  10.608  23.698  0.00  0.00    -0.190 NA
ENDROOT
BRANCH   1   8
ATOM      8  N   UNL d   1     -46.739  12.605  22.682  0.00  0.00    -0.280 N 
ATOM      9  C   UNL d   1     -46.998  12.865  23.397  0.00  0.00     0.101 A 
ATOM     10  C   UNL d   1     -47.812  12.946  23.533  0.00  0.00     0.100 A 
ATOM     11  N   UNL d   1     -48.331  12.770  22.966  0.00  0.00    -0.300 N 
ATOM     12  C   UNL d   1     -48.085  12.500  22.221  0.00  0.00     0.100 A 
ATOM     13  C   UNL d   1     -47.278  12.414  22.070  0.00  0.00     0.101 A 
BRANCH  11  14
ATOM     14  C   UNL d   1     -49.144  12.851  23.103  0.00  0.00     0.080 C 
ATOM     15  C   UNL d   1     -49.577  12.308  23.597  0.00  0.00     0.021 C 
ENDBRANCH  11  14
ENDBRANCH   1   8
BRANCH   4  16
ATOM     16  C   UNL d   1     -44.007  12.937  21.830  0.00  0.00     0.141 A 
ATOM     17  O   UNL d   1     -43.197  12.678  21.779  0.00  0.00    -0.301 OA
ATOM     18  C   UNL d   1     -42.800  13.270  21.365  0.00  0.00     0.125 A 
ATOM     19  C   UNL d   1     -43.335  13.846  21.179  0.00  0.00     0.029 A 
ATOM     20  C   UNL d   1     -44.064  13.637  21.464  0.00  0.00     0.030 A 
BRANCH  18  21
ATOM     21  C   UNL d   1     -42.009  13.244  21.193  0.00  0.00     0.147 C 
BRANCH  21  22
ATOM     22  O   UNL d   1     -41.645  13.840  20.791  0.00  0.00    -0.303 OA
BRANCH  22  23
ATOM     23  C   UNL d   1     -40.853  13.949  20.829  0.00  0.00     0.100 A 
ATOM     24  C   UNL d   1     -40.431  14.218  20.169  0.00  0.00     0.023 A 
ATOM     25  C   UNL d   1     -40.845  14.373  19.468  0.00  0.00     0.002 C 
ATOM     26  C   UNL d   1     -39.647  14.326  20.207  0.00  0.00     0.002 A 
ATOM     27  C   UNL d   1     -39.232  14.172  20.908  0.00  0.00     0.000 A 
ATOM     28  C   UNL d   1     -39.654  13.900  21.577  0.00  0.00     0.002 A 
ATOM     29  C   UNL d   1     -40.438  13.792  21.539  0.00  0.00     0.025 A 
ENDBRANCH  22  23
ENDBRANCH  21  22
ENDBRANCH  18  21
ENDBRANCH   4  16
TORSDOF 6
ENDMDL
