MODEL 1
REMARK VINA RESULT:      -6.7      0.000      0.000
REMARK  5 active torsions:
REMARK  status: ('A' for Active; 'I' for Inactive)
REMARK    1  A    between atoms: C_7  and  N_2 
REMARK    2  A    between atoms: C_14  and  C_7 
REMARK    3  A    between atoms: C_8  and  O_16 
REMARK    4  A    between atoms: C_18  and  C_14 
REMARK    5  A    between atoms: O_16  and  C_18 
ROOT
ATOM      1  C   UNL d   1     -48.205  14.346  22.278  0.00  0.00     0.086 C 
ENDROOT
BRANCH   1   2
ATOM      2  N   UNL d   1     -49.012  14.469  22.382  0.00  0.00    -0.268 N 
ATOM      3  C   UNL d   1     -49.355  15.097  22.791  0.00  0.00     0.296 A 
ATOM      4  S   UNL d   1     -50.182  14.999  22.755  0.00  0.00    -0.025 SA
ATOM      5  O   UNL d   1     -48.961  15.714  23.169  0.00  0.00    -0.259 OA
ATOM      6  C   UNL d   1     -50.333  14.311  22.324  0.00  0.00     0.050 A 
ATOM      7  C   UNL d   1     -51.048  13.935  22.109  0.00  0.00     0.008 A 
ATOM      8  C   UNL d   1     -49.618  13.983  22.093  0.00  0.00     0.073 A 
ATOM      9  C   UNL d   1     -51.027  13.240  21.668  0.00  0.00     0.001 A 
ATOM     10  C   UNL d   1     -50.299  12.916  21.440  0.00  0.00     0.002 A 
ATOM     11  C   UNL d   1     -49.593  13.285  21.651  0.00  0.00     0.018 A 
ENDBRANCH   1   2
BRANCH   1  12
ATOM     12  C   UNL d   1     -47.747  14.027  22.894  0.00  0.00     0.046 C 
BRANCH  12  13
ATOM     13  C   UNL d   1     -46.936  13.911  22.798  0.00  0.00     0.124 C 
BRANCH  13  14
ATOM     14  O   UNL d   1     -46.601  13.185  22.975  0.00  0.00    -0.305 OA
BRANCH  14  15
ATOM     15  C   UNL d   1     -46.259  12.451  23.152  0.00  0.00     0.100 A 
ATOM     16  C   UNL d   1     -45.483  12.319  22.954  0.00  0.00     0.025 A 
ATOM     17  C   UNL d   1     -45.133  11.586  23.128  0.00  0.00     0.002 A 
ATOM     18  C   UNL d   1     -45.578  10.998  23.501  0.00  0.00     0.000 A 
ATOM     19  C   UNL d   1     -46.366  11.144  23.697  0.00  0.00     0.002 A 
ATOM     20  C   UNL d   1     -45.238  10.273  23.675  0.00  0.00     0.000 C 
ATOM     21  C   UNL d   1     -46.706  11.868  23.523  0.00  0.00     0.025 A 
ENDBRANCH  14  15
ENDBRANCH  13  14
ENDBRANCH  12  13
ENDBRANCH   1  12
TORSDOF 5
ENDMDL
MODEL 2
REMARK VINA RESULT:      -6.4      1.506      2.168
REMARK  5 active torsions:
REMARK  status: ('A' for Active; 'I' for Inactive)
REMARK    1  A    between atoms: C_7  and  N_2 
REMARK    2  A    between atoms: C_14  and  C_7 
REMARK    3  A    between atoms: C_8  and  O_16 
REMARK    4  A    between atoms: C_18  and  C_14 
REMARK    5  A    between atoms: O_16  and  C_18 
ROOT
ATOM      1  C   UNL d   1     -49.250  12.822  23.652  0.00  0.00     0.086 C 
ENDROOT
BRANCH   1   2
ATOM      2  N   UNL d   1     -49.860  13.156  23.211  0.00  0.00    -0.268 N 
ATOM      3  C   UNL d   1     -50.349  12.752  22.683  0.00  0.00     0.296 A 
ATOM      4  S   UNL d   1     -50.884  13.305  22.363  0.00  0.00    -0.025 SA
ATOM      5  O   UNL d   1     -50.321  11.949  22.500  0.00  0.00    -0.259 OA
ATOM      6  C   UNL d   1     -50.715  14.039  22.700  0.00  0.00     0.050 A 
ATOM      7  C   UNL d   1     -51.062  14.793  22.595  0.00  0.00     0.008 A 
ATOM      8  C   UNL d   1     -50.087  13.952  23.220  0.00  0.00     0.073 A 
ATOM      9  C   UNL d   1     -50.771  15.438  23.014  0.00  0.00     0.001 A 
ATOM     10  C   UNL d   1     -50.136  15.341  23.538  0.00  0.00     0.002 A 
ATOM     11  C   UNL d   1     -49.792  14.598  23.643  0.00  0.00     0.018 A 
ENDBRANCH   1   2
BRANCH   1  12
ATOM     12  C   UNL d   1     -48.569  12.533  23.274  0.00  0.00     0.046 C 
BRANCH  12  13
ATOM     13  C   UNL d   1     -47.864  12.440  23.692  0.00  0.00     0.124 C 
BRANCH  13  14
ATOM     14  O   UNL d   1     -47.146  12.556  23.317  0.00  0.00    -0.305 OA
BRANCH  14  15
ATOM     15  C   UNL d   1     -46.417  12.671  22.939  0.00  0.00     0.100 A 
ATOM     16  C   UNL d   1     -45.871  12.071  22.944  0.00  0.00     0.025 A 
ATOM     17  C   UNL d   1     -45.137  12.178  22.569  0.00  0.00     0.002 A 
ATOM     18  C   UNL d   1     -44.972  12.896  22.192  0.00  0.00     0.000 A 
ATOM     19  C   UNL d   1     -45.535  13.498  22.194  0.00  0.00     0.002 A 
ATOM     20  C   UNL d   1     -44.251  13.008  21.820  0.00  0.00     0.000 C 
ATOM     21  C   UNL d   1     -46.256  13.387  22.566  0.00  0.00     0.025 A 
ENDBRANCH  14  15
ENDBRANCH  13  14
ENDBRANCH  12  13
ENDBRANCH   1  12
TORSDOF 5
ENDMDL
MODEL 3
REMARK VINA RESULT:      -5.6      8.373      9.968
REMARK  5 active torsions:
REMARK  status: ('A' for Active; 'I' for Inactive)
REMARK    1  A    between atoms: C_7  and  N_2 
REMARK    2  A    between atoms: C_14  and  C_7 
REMARK    3  A    between atoms: C_8  and  O_16 
REMARK    4  A    between atoms: C_18  and  C_14 
REMARK    5  A    between atoms: O_16  and  C_18 
ROOT
ATOM      1  C   UNL d   1     -40.466  14.347  20.068  0.00  0.00     0.086 C 
ENDROOT
BRANCH   1   2
ATOM      2  N   UNL d   1     -40.262  14.812  20.715  0.00  0.00    -0.268 N 
ATOM      3  C   UNL d   1     -40.606  15.534  20.917  0.00  0.00     0.296 A 
ATOM      4  S   UNL d   1     -40.230  15.807  21.609  0.00  0.00    -0.025 SA
ATOM      5  O   UNL d   1     -41.211  15.922  20.515  0.00  0.00    -0.259 OA
ATOM      6  C   UNL d   1     -39.660  15.248  21.820  0.00  0.00     0.050 A 
ATOM      7  C   UNL d   1     -39.117  15.219  22.456  0.00  0.00     0.008 A 
ATOM      8  C   UNL d   1     -39.677  14.636  21.275  0.00  0.00     0.073 A 
ATOM      9  C   UNL d   1     -38.606  14.578  22.527  0.00  0.00     0.001 A 
ATOM     10  C   UNL d   1     -38.630  13.964  21.970  0.00  0.00     0.002 A 
ATOM     11  C   UNL d   1     -39.165  13.991  21.343  0.00  0.00     0.018 A 
ENDBRANCH   1   2
BRANCH   1  12
ATOM     12  C   UNL d   1     -40.116  14.483  19.326  0.00  0.00     0.046 C 
BRANCH  12  13
ATOM     13  C   UNL d   1     -40.373  14.073  18.659  0.00  0.00     0.124 C 
BRANCH  13  14
ATOM     14  O   UNL d   1     -39.885  14.007  18.004  0.00  0.00    -0.305 OA
BRANCH  14  15
ATOM     15  C   UNL d   1     -39.394  13.941  17.340  0.00  0.00     0.100 A 
ATOM     16  C   UNL d   1     -39.500  14.451  16.718  0.00  0.00     0.025 A 
ATOM     17  C   UNL d   1     -39.013  14.392  16.048  0.00  0.00     0.002 A 
ATOM     18  C   UNL d   1     -38.423  13.812  16.021  0.00  0.00     0.000 A 
ATOM     19  C   UNL d   1     -38.325  13.299  16.660  0.00  0.00     0.002 A 
ATOM     20  C   UNL d   1     -37.940  13.749  15.364  0.00  0.00     0.000 C 
ATOM     21  C   UNL d   1     -38.809  13.362  17.317  0.00  0.00     0.025 A 
ENDBRANCH  14  15
ENDBRANCH  13  14
ENDBRANCH  12  13
ENDBRANCH   1  12
TORSDOF 5
ENDMDL
MODEL 4
REMARK VINA RESULT:      -5.5      8.736      9.517
REMARK  5 active torsions:
REMARK  status: ('A' for Active; 'I' for Inactive)
REMARK    1  A    between atoms: C_7  and  N_2 
REMARK    2  A    between atoms: C_14  and  C_7 
REMARK    3  A    between atoms: C_8  and  O_16 
REMARK    4  A    between atoms: C_18  and  C_14 
REMARK    5  A    between atoms: O_16  and  C_18 
ROOT
ATOM      1  C   UNL d   1     -40.398  14.120  18.968  0.00  0.00     0.086 C 
ENDROOT
BRANCH   1   2
ATOM      2  N   UNL d   1     -40.122  14.327  18.221  0.00  0.00    -0.268 N 
ATOM      3  C   UNL d   1     -39.459  14.010  17.848  0.00  0.00     0.296 A 
ATOM      4  S   UNL d   1     -39.387  14.379  17.104  0.00  0.00    -0.025 SA
ATOM      5  O   UNL d   1     -38.952  13.434  18.148  0.00  0.00    -0.259 OA
ATOM      6  C   UNL d   1     -40.010  14.917  17.033  0.00  0.00     0.050 A 
ATOM      7  C   UNL d   1     -40.225  15.442  16.418  0.00  0.00     0.008 A 
ATOM      8  C   UNL d   1     -40.463  14.888  17.716  0.00  0.00     0.073 A 
ATOM      9  C   UNL d   1     -40.887  15.922  16.504  0.00  0.00     0.001 A 
ATOM     10  C   UNL d   1     -41.339  15.886  17.198  0.00  0.00     0.002 A 
ATOM     11  C   UNL d   1     -41.128  15.369  17.806  0.00  0.00     0.018 A 
ENDBRANCH   1   2
BRANCH   1  12
ATOM     12  C   UNL d   1     -40.112  14.509  19.644  0.00  0.00     0.046 C 
BRANCH  12  13
ATOM     13  C   UNL d   1     -40.309  14.241  20.399  0.00  0.00     0.124 C 
BRANCH  13  14
ATOM     14  O   UNL d   1     -39.915  14.534  21.055  0.00  0.00    -0.305 OA
BRANCH  14  15
ATOM     15  C   UNL d   1     -39.520  14.830  21.720  0.00  0.00     0.100 A 
ATOM     16  C   UNL d   1     -39.080  14.322  22.175  0.00  0.00     0.025 A 
ATOM     17  C   UNL d   1     -38.680  14.610  22.844  0.00  0.00     0.002 A 
ATOM     18  C   UNL d   1     -38.734  15.412  23.040  0.00  0.00     0.000 A 
ATOM     19  C   UNL d   1     -39.184  15.918  22.569  0.00  0.00     0.002 A 
ATOM     20  C   UNL d   1     -38.342  15.701  23.698  0.00  0.00     0.000 C 
ATOM     21  C   UNL d   1     -39.576  15.629  21.911  0.00  0.00     0.025 A 
ENDBRANCH  14  15
ENDBRANCH  13  14
ENDBRANCH  12  13
ENDBRANCH   1  12
TORSDOF 5
ENDMDL
MODEL 5
REMARK VINA RESULT:      -5.3      8.686      9.871
REMARK  5 active torsions:
REMARK  status: ('A' for Active; 'I' for Inactive)
REMARK    1  A    between atoms: C_7  and  N_2 
REMARK    2  A    between atoms: C_14  and  C_7 
REMARK    3  A    between atoms: C_8  and  O_16 
REMARK    4  A    between atoms: C_18  and  C_14 
REMARK    5  A    between atoms: O_16  and  C_18 
ROOT
ATOM      1  C   UNL d   1     -40.477  14.322  18.469  0.00  0.00     0.086 C 
ENDROOT
BRANCH   1   2
ATOM      2  N   UNL d   1     -40.137  14.563  17.759  0.00  0.00    -0.268 N 
ATOM      3  C   UNL d   1     -40.367  15.216  17.313  0.00  0.00     0.296 A 
ATOM      4  S   UNL d   1     -39.874  15.249  16.641  0.00  0.00    -0.025 SA
ATOM      5  O   UNL d   1     -40.972  15.747  17.489  0.00  0.00    -0.259 OA
ATOM      6  C   UNL d   1     -39.349  14.613  16.687  0.00  0.00     0.050 A 
ATOM      7  C   UNL d   1     -38.733  14.362  16.180  0.00  0.00     0.008 A 
ATOM      8  C   UNL d   1     -39.507  14.190  17.372  0.00  0.00     0.073 A 
ATOM      9  C   UNL d   1     -38.293  13.694  16.372  0.00  0.00     0.001 A 
ATOM     10  C   UNL d   1     -38.460  13.273  17.066  0.00  0.00     0.002 A 
ATOM     11  C   UNL d   1     -39.067  13.519  17.568  0.00  0.00     0.018 A 
ENDBRANCH   1   2
BRANCH   1  12
ATOM     12  C   UNL d   1     -40.314  14.733  19.173  0.00  0.00     0.046 C 
BRANCH  12  13
ATOM     13  C   UNL d   1     -40.565  14.438  19.900  0.00  0.00     0.124 C 
BRANCH  13  14
ATOM     14  O   UNL d   1     -40.190  14.670  20.590  0.00  0.00    -0.305 OA
BRANCH  14  15
ATOM     15  C   UNL d   1     -39.812  14.903  21.290  0.00  0.00     0.100 A 
ATOM     16  C   UNL d   1     -39.441  14.342  21.744  0.00  0.00     0.025 A 
ATOM     17  C   UNL d   1     -39.059  14.566  22.447  0.00  0.00     0.002 A 
ATOM     18  C   UNL d   1     -39.061  15.361  22.677  0.00  0.00     0.000 A 
ATOM     19  C   UNL d   1     -39.441  15.922  22.207  0.00  0.00     0.002 A 
ATOM     20  C   UNL d   1     -38.687  15.588  23.369  0.00  0.00     0.000 C 
ATOM     21  C   UNL d   1     -39.816  15.695  21.515  0.00  0.00     0.025 A 
ENDBRANCH  14  15
ENDBRANCH  13  14
ENDBRANCH  12  13
ENDBRANCH   1  12
TORSDOF 5
ENDMDL
MODEL 6
REMARK VINA RESULT:      -4.8      9.226     10.433
REMARK  5 active torsions:
REMARK  status: ('A' for Active; 'I' for Inactive)
REMARK    1  A    between atoms: C_7  and  N_2 
REMARK    2  A    between atoms: C_14  and  C_7 
REMARK    3  A    between atoms: C_8  and  O_16 
REMARK    4  A    between atoms: C_18  and  C_14 
REMARK    5  A    between atoms: O_16  and  C_18 
ROOT
ATOM      1  C   UNL d   1     -38.159  14.187  20.678  0.00  0.00     0.086 C 
ENDROOT
BRANCH   1   2
ATOM      2  N   UNL d   1     -38.170  14.501  21.439  0.00  0.00    -0.268 N 
ATOM      3  C   UNL d   1     -38.069  15.296  21.634  0.00  0.00     0.296 A 
ATOM      4  S   UNL d   1     -38.121  15.361  22.463  0.00  0.00    -0.025 SA
ATOM      5  O   UNL d   1     -37.941  15.920  21.111  0.00  0.00    -0.259 OA
ATOM      6  C   UNL d   1     -38.252  14.603  22.764  0.00  0.00     0.050 A 
ATOM      7  C   UNL d   1     -38.350  14.325  23.547  0.00  0.00     0.008 A 
ATOM      8  C   UNL d   1     -38.283  14.073  22.139  0.00  0.00     0.073 A 
ATOM      9  C   UNL d   1     -38.475  13.523  23.682  0.00  0.00     0.001 A 
ATOM     10  C   UNL d   1     -38.504  12.994  23.044  0.00  0.00     0.002 A 
ATOM     11  C   UNL d   1     -38.408  13.267  22.271  0.00  0.00     0.018 A 
ENDBRANCH   1   2
BRANCH   1  12
ATOM     12  C   UNL d   1     -38.707  14.446  20.110  0.00  0.00     0.046 C 
BRANCH  12  13
ATOM     13  C   UNL d   1     -38.710  14.123  19.351  0.00  0.00     0.124 C 
BRANCH  13  14
ATOM     14  O   UNL d   1     -39.222  14.415  18.783  0.00  0.00    -0.305 OA
BRANCH  14  15
ATOM     15  C   UNL d   1     -39.741  14.712  18.209  0.00  0.00     0.100 A 
ATOM     16  C   UNL d   1     -39.448  15.187  17.620  0.00  0.00     0.025 A 
ATOM     17  C   UNL d   1     -39.960  15.489  17.041  0.00  0.00     0.002 A 
ATOM     18  C   UNL d   1     -40.766  15.303  17.070  0.00  0.00     0.000 A 
ATOM     19  C   UNL d   1     -41.052  14.820  17.674  0.00  0.00     0.002 A 
ATOM     20  C   UNL d   1     -41.276  15.599  16.502  0.00  0.00     0.000 C 
ATOM     21  C   UNL d   1     -40.542  14.524  18.242  0.00  0.00     0.025 A 
ENDBRANCH  14  15
ENDBRANCH  13  14
ENDBRANCH  12  13
ENDBRANCH   1  12
TORSDOF 5
ENDMDL
MODEL 7
REMARK VINA RESULT:      -4.7      8.899     10.485
REMARK  5 active torsions:
REMARK  status: ('A' for Active; 'I' for Inactive)
REMARK    1  A    between atoms: C_7  and  N_2 
REMARK    2  A    between atoms: C_14  and  C_7 
REMARK    3  A    between atoms: C_8  and  O_16 
REMARK    4  A    between atoms: C_18  and  C_14 
REMARK    5  A    between atoms: O_16  and  C_18 
ROOT
ATOM      1  C   UNL d   1     -38.790  15.767  19.683  0.00  0.00     0.086 C 
ENDROOT
BRANCH   1   2
ATOM      2  N   UNL d   1     -39.172  15.425  20.327  0.00  0.00    -0.268 N 
ATOM      3  C   UNL d   1     -38.820  14.942  20.894  0.00  0.00     0.296 A 
ATOM      4  S   UNL d   1     -39.411  14.721  21.439  0.00  0.00    -0.025 SA
ATOM      5  O   UNL d   1     -38.029  14.714  20.926  0.00  0.00    -0.259 OA
ATOM      6  C   UNL d   1     -40.117  15.073  21.196  0.00  0.00     0.050 A 
ATOM      7  C   UNL d   1     -40.889  15.053  21.519  0.00  0.00     0.008 A 
ATOM      8  C   UNL d   1     -39.975  15.505  20.514  0.00  0.00     0.073 A 
ATOM      9  C   UNL d   1     -41.496  15.466  21.149  0.00  0.00     0.001 A 
ATOM     10  C   UNL d   1     -41.344  15.900  20.459  0.00  0.00     0.002 A 
ATOM     11  C   UNL d   1     -40.583  15.921  20.140  0.00  0.00     0.018 A 
ENDBRANCH   1   2
BRANCH   1  12
ATOM     12  C   UNL d   1     -38.698  15.343  18.975  0.00  0.00     0.046 C 
BRANCH  12  13
ATOM     13  C   UNL d   1     -38.306  15.678  18.332  0.00  0.00     0.124 C 
BRANCH  13  14
ATOM     14  O   UNL d   1     -38.235  15.261  17.631  0.00  0.00    -0.305 OA
BRANCH  14  15
ATOM     15  C   UNL d   1     -38.161  14.841  16.921  0.00  0.00     0.100 A 
ATOM     16  C   UNL d   1     -38.236  14.033  16.931  0.00  0.00     0.025 A 
ATOM     17  C   UNL d   1     -38.163  13.603  16.224  0.00  0.00     0.002 A 
ATOM     18  C   UNL d   1     -38.014  14.004  15.515  0.00  0.00     0.000 A 
ATOM     19  C   UNL d   1     -37.940  14.825  15.518  0.00  0.00     0.002 A 
ATOM     20  C   UNL d   1     -37.941  13.586  14.815  0.00  0.00     0.000 C 
ATOM     21  C   UNL d   1     -38.013  15.243  16.218  0.00  0.00     0.025 A 
ENDBRANCH  14  15
ENDBRANCH  13  14
ENDBRANCH  12  13
ENDBRANCH   1  12
TORSDOF 5
ENDMDL
MODEL 8
REMARK VINA RESULT:      -4.2      2.019      5.088
REMARK  5 active torsions:
REMARK  status: ('A' for Active; 'I' for Inactive)
REMARK    1  A    between atoms: C_7  and  N_2 
REMARK    2  A    between atoms: C_14  and  C_7 
REMARK    3  A    between atoms: C_8  and  O_16 
REMARK    4  A    between atoms: C_18  and  C_14 
REMARK    5  A    between atoms: O_16  and  C_18 
ROOT
ATOM      1  C   UNL d   1     -46.397  13.203  22.335  0.00  0.00     0.086 C 
ENDROOT
BRANCH   1   2
ATOM      2  N   UNL d   1     -45.912  12.601  22.616  0.00  0.00    -0.268 N 
ATOM      3  C   UNL d   1     -46.137  12.008  23.143  0.00  0.00     0.296 A 
ATOM      4  S   UNL d   1     -45.473  11.521  23.272  0.00  0.00    -0.025 SA
ATOM      5  O   UNL d   1     -46.880  11.907  23.485  0.00  0.00    -0.259 OA
ATOM      6  C   UNL d   1     -44.851  11.823  22.822  0.00  0.00     0.050 A 
ATOM      7  C   UNL d   1     -44.059  11.572  22.727  0.00  0.00     0.008 A 
ATOM      8  C   UNL d   1     -45.116  12.486  22.417  0.00  0.00     0.073 A 
ATOM      9  C   UNL d   1     -43.554  11.992  22.230  0.00  0.00     0.001 A 
ATOM     10  C   UNL d   1     -43.832  12.660  21.826  0.00  0.00     0.002 A 
ATOM     11  C   UNL d   1     -44.613  12.909  21.918  0.00  0.00     0.018 A 
ENDBRANCH   1   2
BRANCH   1  12
ATOM     12  C   UNL d   1     -46.885  13.627  22.858  0.00  0.00     0.046 C 
BRANCH  12  13
ATOM     13  C   UNL d   1     -47.178  14.369  22.651  0.00  0.00     0.124 C 
BRANCH  13  14
ATOM     14  O   UNL d   1     -47.953  14.568  22.826  0.00  0.00    -0.305 OA
BRANCH  14  15
ATOM     15  C   UNL d   1     -48.737  14.772  23.001  0.00  0.00     0.100 A 
ATOM     16  C   UNL d   1     -49.020  15.494  22.762  0.00  0.00     0.025 A 
ATOM     17  C   UNL d   1     -49.804  15.707  22.933  0.00  0.00     0.002 A 
ATOM     18  C   UNL d   1     -50.290  15.180  23.346  0.00  0.00     0.000 A 
ATOM     19  C   UNL d   1     -49.991  14.450  23.585  0.00  0.00     0.002 A 
ATOM     20  C   UNL d   1     -51.064  15.385  23.518  0.00  0.00     0.000 C 
ATOM     21  C   UNL d   1     -49.217  14.245  23.413  0.00  0.00     0.025 A 
ENDBRANCH  14  15
ENDBRANCH  13  14
ENDBRANCH  12  13
ENDBRANCH   1  12
TORSDOF 5
ENDMDL
