MODEL 1
REMARK VINA RESULT:      -3.2      0.000      0.000
REMARK  6 active torsions:
REMARK  status: ('A' for Active; 'I' for Inactive)
REMARK    1  A    between atoms: C_2  and  S_1 
REMARK    2  A    between atoms: N_3  and  S_1 
REMARK    3  A    between atoms: C_11  and  N_3 
REMARK    4  A    between atoms: O_13  and  C_5 
REMARK    5  A    between atoms: C_14  and  C_11 
REMARK    6  A    between atoms: C_15  and  O_13 
ROOT
ATOM      1  S   UNL d   1      57.267  -0.101  31.644  0.00  0.00     0.285 S 
ATOM      2  O   UNL d   1      57.040  -0.882  31.781  0.00  0.00    -0.198 OA
ATOM      3  O   UNL d   1      57.494   0.681  31.508  0.00  0.00    -0.198 OA
ENDROOT
BRANCH   1   4
ATOM      4  C   UNL d   1      57.060   0.095  32.419  0.00  0.00     0.107 A 
ATOM      5  C   UNL d   1      56.309  -0.088  32.704  0.00  0.00     0.040 A 
ATOM      6  C   UNL d   1      56.102   0.107  33.478  0.00  0.00     0.128 A 
ATOM      7  C   UNL d   1      56.646   0.486  33.967  0.00  0.00     0.163 A 
ATOM      8  C   UNL d   1      57.396   0.669  33.682  0.00  0.00     0.032 A 
ATOM      9  F   UNL d   1      56.439   0.682  34.741  0.00  0.00    -0.202 F 
ATOM     10  C   UNL d   1      57.603   0.474  32.908  0.00  0.00     0.015 A 
BRANCH   6  11
ATOM     11  O   UNL d   1      55.353  -0.076  33.763  0.00  0.00    -0.303 OA
BRANCH  11  12
ATOM     12  C   UNL d   1      54.718   0.423  33.599  0.00  0.00     0.123 C 
ATOM     13  C   UNL d   1      54.026   0.382  34.056  0.00  0.00     0.029 C 
ENDBRANCH  11  12
ENDBRANCH   6  11
ENDBRANCH   1   4
BRANCH   1  14
ATOM     14  N   UNL d   1      57.474  -0.296  30.870  0.00  0.00    -0.157 NA
BRANCH  14  15
ATOM     15  C   UNL d   1      58.267  -0.432  30.677  0.00  0.00     0.112 C 
BRANCH  15  16
ATOM     16  C   UNL d   1      58.464  -0.730  29.934  0.00  0.00     0.020 A 
ATOM     17  C   UNL d   1      58.598  -1.538  29.845  0.00  0.00     0.002 A 
ATOM     18  C   UNL d   1      58.794  -1.834  29.105  0.00  0.00     0.000 A 
ATOM     19  C   UNL d   1      58.856  -1.328  28.456  0.00  0.00     0.000 A 
ATOM     20  C   UNL d   1      58.720  -0.518  28.553  0.00  0.00     0.000 A 
ATOM     21  C   UNL d   1      58.523  -0.220  29.296  0.00  0.00     0.002 A 
ENDBRANCH  15  16
ENDBRANCH  14  15
ENDBRANCH   1  14
TORSDOF 6
ENDMDL
MODEL 2
REMARK VINA RESULT:      -3.2      2.208      4.811
REMARK  6 active torsions:
REMARK  status: ('A' for Active; 'I' for Inactive)
REMARK    1  A    between atoms: C_2  and  S_1 
REMARK    2  A    between atoms: N_3  and  S_1 
REMARK    3  A    between atoms: C_11  and  N_3 
REMARK    4  A    between atoms: O_13  and  C_5 
REMARK    5  A    between atoms: C_14  and  C_11 
REMARK    6  A    between atoms: C_15  and  O_13 
ROOT
ATOM      1  S   UNL d   1      57.831   0.440  30.868  0.00  0.00     0.285 S 
ATOM      2  O   UNL d   1      57.248   0.200  30.337  0.00  0.00    -0.198 OA
ATOM      3  O   UNL d   1      58.415   0.681  31.400  0.00  0.00    -0.198 OA
ENDROOT
BRANCH   1   4
ATOM      4  C   UNL d   1      58.393   0.409  30.265  0.00  0.00     0.107 A 
ATOM      5  C   UNL d   1      59.144   0.106  30.416  0.00  0.00     0.040 A 
ATOM      6  C   UNL d   1      59.706   0.075  29.812  0.00  0.00     0.128 A 
ATOM      7  C   UNL d   1      59.517   0.348  29.059  0.00  0.00     0.163 A 
ATOM      8  C   UNL d   1      58.768   0.651  28.908  0.00  0.00     0.032 A 
ATOM      9  F   UNL d   1      60.079   0.317  28.456  0.00  0.00    -0.202 F 
ATOM     10  C   UNL d   1      58.206   0.682  29.511  0.00  0.00     0.015 A 
BRANCH   6  11
ATOM     11  O   UNL d   1      60.456  -0.229  29.963  0.00  0.00    -0.303 OA
BRANCH  11  12
ATOM     12  C   UNL d   1      60.682  -0.947  29.631  0.00  0.00     0.123 C 
ATOM     13  C   UNL d   1      61.125  -1.492  30.075  0.00  0.00     0.029 C 
ENDBRANCH  11  12
ENDBRANCH   6  11
ENDBRANCH   1   4
BRANCH   1  14
ATOM     14  N   UNL d   1      57.269   0.471  31.471  0.00  0.00    -0.157 NA
BRANCH  14  15
ATOM     15  C   UNL d   1      56.815  -0.197  31.646  0.00  0.00     0.112 C 
BRANCH  15  16
ATOM     16  C   UNL d   1      56.303  -0.189  32.293  0.00  0.00     0.020 A 
ATOM     17  C   UNL d   1      56.048  -0.902  32.615  0.00  0.00     0.002 A 
ATOM     18  C   UNL d   1      55.538  -0.894  33.259  0.00  0.00     0.000 A 
ATOM     19  C   UNL d   1      55.285  -0.178  33.581  0.00  0.00     0.000 A 
ATOM     20  C   UNL d   1      55.546   0.535  33.252  0.00  0.00     0.000 A 
ATOM     21  C   UNL d   1      56.058   0.527  32.605  0.00  0.00     0.002 A 
ENDBRANCH  15  16
ENDBRANCH  14  15
ENDBRANCH   1  14
TORSDOF 6
ENDMDL
MODEL 3
REMARK VINA RESULT:      -2.7      8.939      9.683
REMARK  6 active torsions:
REMARK  status: ('A' for Active; 'I' for Inactive)
REMARK    1  A    between atoms: C_2  and  S_1 
REMARK    2  A    between atoms: N_3  and  S_1 
REMARK    3  A    between atoms: C_11  and  N_3 
REMARK    4  A    between atoms: O_13  and  C_5 
REMARK    5  A    between atoms: C_14  and  C_11 
REMARK    6  A    between atoms: C_15  and  O_13 
ROOT
ATOM      1  S   UNL d   1      59.497  -9.582  33.201  0.00  0.00     0.285 S 
ATOM      2  O   UNL d   1      60.174  -9.352  32.790  0.00  0.00    -0.198 OA
ATOM      3  O   UNL d   1      58.820  -9.813  33.613  0.00  0.00    -0.198 OA
ENDROOT
BRANCH   1   4
ATOM      4  C   UNL d   1      59.873  -9.410  33.915  0.00  0.00     0.107 A 
ATOM      5  C   UNL d   1      59.535  -8.872  34.440  0.00  0.00     0.040 A 
ATOM      6  C   UNL d   1      59.911  -8.699  35.154  0.00  0.00     0.128 A 
ATOM      7  C   UNL d   1      60.624  -9.065  35.343  0.00  0.00     0.163 A 
ATOM      8  C   UNL d   1      60.961  -9.602  34.820  0.00  0.00     0.032 A 
ATOM      9  F   UNL d   1      61.000  -8.893  36.057  0.00  0.00    -0.202 F 
ATOM     10  C   UNL d   1      60.586  -9.775  34.106  0.00  0.00     0.015 A 
BRANCH   6  11
ATOM     11  O   UNL d   1      59.574  -8.162  35.678  0.00  0.00    -0.303 OA
BRANCH  11  12
ATOM     12  C   UNL d   1      59.564  -7.360  35.494  0.00  0.00     0.123 C 
ATOM     13  C   UNL d   1      59.258  -6.810  36.036  0.00  0.00     0.029 C 
ENDBRANCH  11  12
ENDBRANCH   6  11
ENDBRANCH   1   4
BRANCH   1  14
ATOM     14  N   UNL d   1      59.121  -9.755  32.487  0.00  0.00    -0.157 NA
BRANCH  14  15
ATOM     15  C   UNL d   1      58.301  -9.668  32.422  0.00  0.00     0.112 C 
BRANCH  15  16
ATOM     16  C   UNL d   1      57.941  -9.718  31.682  0.00  0.00     0.020 A 
ATOM     17  C   UNL d   1      57.121  -9.768  31.634  0.00  0.00     0.002 A 
ATOM     18  C   UNL d   1      56.762  -9.818  30.898  0.00  0.00     0.000 A 
ATOM     19  C   UNL d   1      57.218  -9.817  30.210  0.00  0.00     0.000 A 
ATOM     20  C   UNL d   1      58.042  -9.767  30.266  0.00  0.00     0.000 A 
ATOM     21  C   UNL d   1      58.403  -9.717  31.006  0.00  0.00     0.002 A 
ENDBRANCH  15  16
ENDBRANCH  14  15
ENDBRANCH   1  14
TORSDOF 6
ENDMDL
MODEL 4
REMARK VINA RESULT:      -1.5      0.988      1.296
REMARK  6 active torsions:
REMARK  status: ('A' for Active; 'I' for Inactive)
REMARK    1  A    between atoms: C_2  and  S_1 
REMARK    2  A    between atoms: N_3  and  S_1 
REMARK    3  A    between atoms: C_11  and  N_3 
REMARK    4  A    between atoms: O_13  and  C_5 
REMARK    5  A    between atoms: C_14  and  C_11 
REMARK    6  A    between atoms: C_15  and  O_13 
ROOT
ATOM      1  S   UNL d   1      57.417  -0.543  31.031  0.00  0.00     0.285 S 
ATOM      2  O   UNL d   1      57.347   0.209  30.698  0.00  0.00    -0.198 OA
ATOM      3  O   UNL d   1      57.488  -1.294  31.364  0.00  0.00    -0.198 OA
ENDROOT
BRANCH   1   4
ATOM      4  C   UNL d   1      57.114  -0.255  31.743  0.00  0.00     0.107 A 
ATOM      5  C   UNL d   1      56.462  -0.619  32.090  0.00  0.00     0.040 A 
ATOM      6  C   UNL d   1      56.159  -0.332  32.802  0.00  0.00     0.128 A 
ATOM      7  C   UNL d   1      56.509   0.319  33.166  0.00  0.00     0.163 A 
ATOM      8  C   UNL d   1      57.161   0.682  32.819  0.00  0.00     0.032 A 
ATOM      9  F   UNL d   1      56.206   0.606  33.878  0.00  0.00    -0.202 F 
ATOM     10  C   UNL d   1      57.463   0.395  32.108  0.00  0.00     0.015 A 
BRANCH   6  11
ATOM     11  O   UNL d   1      55.507  -0.695  33.149  0.00  0.00    -0.303 OA
BRANCH  11  12
ATOM     12  C   UNL d   1      55.549  -1.486  33.372  0.00  0.00     0.123 C 
ATOM     13  C   UNL d   1      54.873  -1.967  33.334  0.00  0.00     0.029 C 
ENDBRANCH  11  12
ENDBRANCH   6  11
ENDBRANCH   1   4
BRANCH   1  14
ATOM     14  N   UNL d   1      57.720  -0.830  30.319  0.00  0.00    -0.157 NA
BRANCH  14  15
ATOM     15  C   UNL d   1      58.377  -0.465  29.974  0.00  0.00     0.112 C 
BRANCH  15  16
ATOM     16  C   UNL d   1      58.865  -0.894  29.466  0.00  0.00     0.020 A 
ATOM     17  C   UNL d   1      59.634  -0.633  29.328  0.00  0.00     0.002 A 
ATOM     18  C   UNL d   1      60.119  -1.060  28.822  0.00  0.00     0.000 A 
ATOM     19  C   UNL d   1      59.841  -1.744  28.455  0.00  0.00     0.000 A 
ATOM     20  C   UNL d   1      59.067  -2.000  28.598  0.00  0.00     0.000 A 
ATOM     21  C   UNL d   1      58.579  -1.571  29.107  0.00  0.00     0.002 A 
ENDBRANCH  15  16
ENDBRANCH  14  15
ENDBRANCH   1  14
TORSDOF 6
ENDMDL
MODEL 5
REMARK VINA RESULT:      -1.5      9.522     10.514
REMARK  6 active torsions:
REMARK  status: ('A' for Active; 'I' for Inactive)
REMARK    1  A    between atoms: C_2  and  S_1 
REMARK    2  A    between atoms: N_3  and  S_1 
REMARK    3  A    between atoms: C_11  and  N_3 
REMARK    4  A    between atoms: O_13  and  C_5 
REMARK    5  A    between atoms: C_14  and  C_11 
REMARK    6  A    between atoms: C_15  and  O_13 
ROOT
ATOM      1  S   UNL d   1      58.980  -9.809  32.276  0.00  0.00     0.285 S 
ATOM      2  O   UNL d   1      58.258  -9.815  32.674  0.00  0.00    -0.198 OA
ATOM      3  O   UNL d   1      59.703  -9.803  31.878  0.00  0.00    -0.198 OA
ENDROOT
BRANCH   1   4
ATOM      4  C   UNL d   1      58.582  -9.800  31.554  0.00  0.00     0.107 A 
ATOM      5  C   UNL d   1      59.007  -9.813  30.848  0.00  0.00     0.040 A 
ATOM      6  C   UNL d   1      58.608  -9.805  30.125  0.00  0.00     0.128 A 
ATOM      7  C   UNL d   1      57.785  -9.782  30.109  0.00  0.00     0.163 A 
ATOM      8  C   UNL d   1      57.361  -9.769  30.813  0.00  0.00     0.032 A 
ATOM      9  F   UNL d   1      57.387  -9.773  29.386  0.00  0.00    -0.202 F 
ATOM     10  C   UNL d   1      57.759  -9.778  31.536  0.00  0.00     0.015 A 
BRANCH   6  11
ATOM     11  O   UNL d   1      59.033  -9.818  29.421  0.00  0.00    -0.303 OA
BRANCH  11  12
ATOM     12  C   UNL d   1      59.643  -9.279  29.298  0.00  0.00     0.123 C 
ATOM     13  C   UNL d   1      60.186  -9.395  28.681  0.00  0.00     0.029 C 
ENDBRANCH  11  12
ENDBRANCH   6  11
ENDBRANCH   1   4
BRANCH   1  14
ATOM     14  N   UNL d   1      59.378  -9.818  32.998  0.00  0.00    -0.157 NA
BRANCH  14  15
ATOM     15  C   UNL d   1      59.583  -9.106  33.365  0.00  0.00     0.112 C 
BRANCH  15  16
ATOM     16  C   UNL d   1      59.865  -9.108  34.140  0.00  0.00     0.020 A 
ATOM     17  C   UNL d   1      60.587  -9.467  34.306  0.00  0.00     0.002 A 
ATOM     18  C   UNL d   1      60.867  -9.470  35.078  0.00  0.00     0.000 A 
ATOM     19  C   UNL d   1      60.430  -9.116  35.682  0.00  0.00     0.000 A 
ATOM     20  C   UNL d   1      59.706  -8.757  35.507  0.00  0.00     0.000 A 
ATOM     21  C   UNL d   1      59.424  -8.754  34.732  0.00  0.00     0.002 A 
ENDBRANCH  15  16
ENDBRANCH  14  15
ENDBRANCH   1  14
TORSDOF 6
ENDMDL
