MODEL 1
REMARK VINA RESULT:      -3.7      0.000      0.000
REMARK  5 active torsions:
REMARK  status: ('A' for Active; 'I' for Inactive)
REMARK    1  A    between atoms: C_3  and  S_1 
REMARK    2  A    between atoms: N_10  and  S_1 
REMARK    3  A    between atoms: C_19  and  N_10 
REMARK    4  A    between atoms: C_21  and  C_19 
REMARK    5  A    between atoms: C_22  and  C_21 
ROOT
ATOM      1  N   UNL d   1     -42.345-122.846 -49.281  0.00  0.00    -0.273 N 
ATOM      2  C   UNL d   1     -41.807-122.955 -51.691  0.00  0.00     0.104 A 
ATOM      3  C   UNL d   1     -42.165-122.883 -50.086  0.00  0.00     0.067 A 
ATOM      4  C   UNL d   1     -41.555-123.368 -50.346  0.00  0.00     0.017 A 
ATOM      5  C   UNL d   1     -42.597-122.434 -50.626  0.00  0.00     0.017 A 
ATOM      6  C   UNL d   1     -41.913-123.296 -48.740  0.00  0.00     0.265 A 
ATOM      7  C   UNL d   1     -41.374-123.404 -51.151  0.00  0.00     0.014 A 
ATOM      8  C   UNL d   1     -42.419-122.469 -51.427  0.00  0.00     0.014 A 
ATOM      9  C   UNL d   1     -41.122-123.817 -49.805  0.00  0.00     0.006 A 
ATOM     10  C   UNL d   1     -41.301-123.781 -49.005  0.00  0.00     0.061 A 
ATOM     11  O   UNL d   1     -42.092-123.262 -47.926  0.00  0.00    -0.267 OA
ATOM     12  C   UNL d   1     -42.958-122.360 -49.017  0.00  0.00     0.083 A 
ATOM     13  C   UNL d   1     -43.204-121.951 -50.368  0.00  0.00     0.003 A 
ATOM     14  C   UNL d   1     -43.385-121.914 -49.564  0.00  0.00     0.019 A 
ENDROOT
BRANCH   2  15
ATOM     15  S   UNL d   1     -41.623-122.994 -52.499  0.00  0.00     0.271 S 
ATOM     16  O   UNL d   1     -41.276-122.239 -52.452  0.00  0.00    -0.200 OA
ATOM     17  O   UNL d   1     -41.967-123.747 -52.552  0.00  0.00    -0.200 OA
BRANCH  15  18
ATOM     18  N   UNL d   1     -41.437-123.030 -53.313  0.00  0.00    -0.228 N 
ATOM     19  C   UNL d   1     -41.133-123.719 -53.642  0.00  0.00     0.111 C 
BRANCH  18  20
ATOM     20  C   UNL d   1     -41.557-122.371 -53.793  0.00  0.00     0.092 C 
BRANCH  20  21
ATOM     21  C   UNL d   1     -41.632-122.464 -54.610  0.00  0.00     0.020 C 
BRANCH  21  22
ATOM     22  C   UNL d   1     -42.001-121.879 -55.060  0.00  0.00     0.002 C 
ATOM     23  C   UNL d   1     -42.027-121.937 -55.870  0.00  0.00     0.000 C 
ENDBRANCH  21  22
ENDBRANCH  20  21
ENDBRANCH  18  20
ENDBRANCH  15  18
ENDBRANCH   2  15
TORSDOF 5
ENDMDL
MODEL 2
REMARK VINA RESULT:      -3.1      1.188      4.482
REMARK  5 active torsions:
REMARK  status: ('A' for Active; 'I' for Inactive)
REMARK    1  A    between atoms: C_3  and  S_1 
REMARK    2  A    between atoms: N_10  and  S_1 
REMARK    3  A    between atoms: C_19  and  N_10 
REMARK    4  A    between atoms: C_21  and  C_19 
REMARK    5  A    between atoms: C_22  and  C_21 
ROOT
ATOM      1  N   UNL d   1     -41.761-122.340 -54.324  0.00  0.00    -0.273 N 
ATOM      2  C   UNL d   1     -41.696-122.880 -51.912  0.00  0.00     0.104 A 
ATOM      3  C   UNL d   1     -41.739-122.521 -53.519  0.00  0.00     0.067 A 
ATOM      4  C   UNL d   1     -41.473-123.258 -53.273  0.00  0.00     0.017 A 
ATOM      5  C   UNL d   1     -41.984-121.962 -52.964  0.00  0.00     0.017 A 
ATOM      6  C   UNL d   1     -41.516-122.899 -54.879  0.00  0.00     0.265 A 
ATOM      7  C   UNL d   1     -41.451-123.439 -52.468  0.00  0.00     0.014 A 
ATOM      8  C   UNL d   1     -41.963-122.140 -52.163  0.00  0.00     0.014 A 
ATOM      9  C   UNL d   1     -41.228-123.817 -53.828  0.00  0.00     0.006 A 
ATOM     10  C   UNL d   1     -41.249-123.639 -54.629  0.00  0.00     0.061 A 
ATOM     11  O   UNL d   1     -41.537-122.720 -55.694  0.00  0.00    -0.267 OA
ATOM     12  C   UNL d   1     -42.029-121.600 -54.574  0.00  0.00     0.083 A 
ATOM     13  C   UNL d   1     -42.250-121.228 -53.207  0.00  0.00     0.003 A 
ATOM     14  C   UNL d   1     -42.272-121.047 -54.012  0.00  0.00     0.019 A 
ENDROOT
BRANCH   2  15
ATOM     15  S   UNL d   1     -41.673-123.065 -51.104  0.00  0.00     0.271 S 
ATOM     16  O   UNL d   1     -42.065-123.781 -51.261  0.00  0.00    -0.200 OA
ATOM     17  O   UNL d   1     -41.281-122.352 -50.942  0.00  0.00    -0.200 OA
BRANCH  15  18
ATOM     18  N   UNL d   1     -41.651-123.254 -50.290  0.00  0.00    -0.228 N 
ATOM     19  C   UNL d   1     -41.123-123.816 -50.006  0.00  0.00     0.111 C 
BRANCH  18  20
ATOM     20  C   UNL d   1     -42.161-122.875 -49.765  0.00  0.00     0.092 C 
BRANCH  20  21
ATOM     21  C   UNL d   1     -42.319-123.211 -49.028  0.00  0.00     0.020 C 
BRANCH  21  22
ATOM     22  C   UNL d   1     -42.786-122.807 -48.481  0.00  0.00     0.002 C 
ATOM     23  C   UNL d   1     -42.778-123.018 -47.696  0.00  0.00     0.000 C 
ENDBRANCH  21  22
ENDBRANCH  20  21
ENDBRANCH  18  20
ENDBRANCH  15  18
ENDBRANCH   2  15
TORSDOF 5
ENDMDL
MODEL 3
REMARK VINA RESULT:      -1.9      0.694      1.682
REMARK  5 active torsions:
REMARK  status: ('A' for Active; 'I' for Inactive)
REMARK    1  A    between atoms: C_3  and  S_1 
REMARK    2  A    between atoms: N_10  and  S_1 
REMARK    3  A    between atoms: C_19  and  N_10 
REMARK    4  A    between atoms: C_21  and  C_19 
REMARK    5  A    between atoms: C_22  and  C_21 
ROOT
ATOM      1  N   UNL d   1     -42.522-123.049 -49.021  0.00  0.00    -0.273 N 
ATOM      2  C   UNL d   1     -41.929-122.417 -51.336  0.00  0.00     0.104 A 
ATOM      3  C   UNL d   1     -42.324-122.837 -49.794  0.00  0.00     0.067 A 
ATOM      4  C   UNL d   1     -42.827-122.352 -50.226  0.00  0.00     0.017 A 
ATOM      5  C   UNL d   1     -41.624-123.113 -50.131  0.00  0.00     0.017 A 
ATOM      6  C   UNL d   1     -43.223-122.773 -48.684  0.00  0.00     0.265 A 
ATOM      7  C   UNL d   1     -42.629-122.141 -50.999  0.00  0.00     0.014 A 
ATOM      8  C   UNL d   1     -41.426-122.904 -50.900  0.00  0.00     0.014 A 
ATOM      9  C   UNL d   1     -43.528-122.076 -49.889  0.00  0.00     0.006 A 
ATOM     10  C   UNL d   1     -43.726-122.286 -49.120  0.00  0.00     0.061 A 
ATOM     11  O   UNL d   1     -43.426-122.984 -47.903  0.00  0.00    -0.267 OA
ATOM     12  C   UNL d   1     -42.018-123.537 -48.585  0.00  0.00     0.083 A 
ATOM     13  C   UNL d   1     -41.123-123.596 -49.702  0.00  0.00     0.003 A 
ATOM     14  C   UNL d   1     -41.319-123.808 -48.930  0.00  0.00     0.019 A 
ENDROOT
BRANCH   2  15
ATOM     15  S   UNL d   1     -41.733-122.202 -52.113  0.00  0.00     0.271 S 
ATOM     16  O   UNL d   1     -41.845-122.991 -52.354  0.00  0.00    -0.200 OA
ATOM     17  O   UNL d   1     -41.620-121.415 -51.879  0.00  0.00    -0.200 OA
BRANCH  15  18
ATOM     18  N   UNL d   1     -41.536-121.990 -52.897  0.00  0.00    -0.228 N 
ATOM     19  C   UNL d   1     -41.126-121.295 -53.051  0.00  0.00     0.111 C 
BRANCH  18  20
ATOM     20  C   UNL d   1     -41.754-122.478 -53.524  0.00  0.00     0.092 C 
BRANCH  20  21
ATOM     21  C   UNL d   1     -41.726-122.194 -54.299  0.00  0.00     0.020 C 
BRANCH  21  22
ATOM     22  C   UNL d   1     -42.009-122.658 -54.919  0.00  0.00     0.002 C 
ATOM     23  C   UNL d   1     -42.292-122.311 -55.598  0.00  0.00     0.000 C 
ENDBRANCH  21  22
ENDBRANCH  20  21
ENDBRANCH  18  20
ENDBRANCH  15  18
ENDBRANCH   2  15
TORSDOF 5
ENDMDL
