MODEL 1
REMARK VINA RESULT:      10.3      0.000      0.000
REMARK  3 active torsions:
REMARK  status: ('A' for Active; 'I' for Inactive)
REMARK    1  A    between atoms: S_5  and  C_1 
REMARK    2  A    between atoms: C_11  and  S_5 
REMARK    3  A    between atoms: C_9  and  C_11 
ROOT
ATOM      1  C   UNL d   1      14.996  12.575  -1.405  0.00  0.00     0.068 A 
ATOM      2  C   UNL d   1      14.783  12.258  -0.675  0.00  0.00     0.068 A 
ATOM      3  C   UNL d   1      14.491  12.502  -2.049  0.00  0.00     0.013 A 
ATOM      4  C   UNL d   1      14.061  11.867  -0.593  0.00  0.00     0.012 A 
ATOM      5  C   UNL d   1      13.777  12.114  -1.964  0.00  0.00     0.007 A 
ATOM      6 CL   UNL d   1      15.722  12.969  -1.491  0.00  0.00    -0.082 Cl
ATOM      7 CL   UNL d   1      15.286  12.327  -0.022  0.00  0.00    -0.082 Cl
ATOM      8  C   UNL d   1      13.556  11.794  -1.237  0.00  0.00     0.001 A 
ENDROOT
BRANCH   5   9
ATOM      9  C   UNL d   1      13.269  12.040  -2.612  0.00  0.00     0.038 C 
BRANCH   9  10
ATOM     10  S   UNL d   1      13.483  11.781  -3.373  0.00  0.00    -0.048 SA
BRANCH  10  11
ATOM     11  C   UNL d   1      13.212  12.198  -4.044  0.00  0.00     0.194 A 
ATOM     12  N   UNL d   1      13.054  13.007  -4.082  0.00  0.00    -0.218 NA
ATOM     13  C   UNL d   1      12.798  13.185  -4.851  0.00  0.00     0.122 A 
ATOM     14  C   UNL d   1      12.800  12.480  -5.289  0.00  0.00     0.122 A 
ATOM     15  N   UNL d   1      13.055  11.873  -4.789  0.00  0.00    -0.218 NA
ENDBRANCH  10  11
ENDBRANCH   9  10
ENDBRANCH   5   9
TORSDOF 3
ENDMDL
