MODEL 1
REMARK VINA RESULT:      14.1      0.000      0.000
REMARK  8 active torsions:
REMARK  status: ('A' for Active; 'I' for Inactive)
REMARK    1  A    between atoms: C_9  and  S_1 
REMARK    2  A    between atoms: N_10  and  S_1 
REMARK    3  A    between atoms: C_17  and  C_3 
REMARK    4  A    between atoms: C_4  and  N_14 
REMARK    5  A    between atoms: C_8  and  C_16 
REMARK       I    between atoms: N_11  and  C_8 
REMARK    6  A    between atoms: C_27  and  N_10 
REMARK    7  A    between atoms: C_28  and  N_10 
REMARK    8  A    between atoms: N_14  and  N_11 
ROOT
ATOM      1  N   UNL d   1     -42.034-121.973 -51.305  0.00  0.00     0.049 NA
ENDROOT
BRANCH   1   2
ATOM      2  C   UNL d   1     -42.424-122.312 -50.602  0.00  0.00     0.768 A 
ATOM      3  N   UNL d   1     -41.991-122.430 -49.914  0.00  0.00    -0.058 NA
ATOM      4  C   UNL d   1     -42.359-122.746 -49.259  0.00  0.00     0.101 A 
ATOM      5  C   UNL d   1     -43.161-122.955 -49.265  0.00  0.00     0.037 A 
ATOM      6  C   UNL d   1     -43.579-122.826 -49.977  0.00  0.00     0.101 A 
ATOM      7  C   UNL d   1     -43.530-123.269 -48.618  0.00  0.00     0.010 A 
ATOM      8  N   UNL d   1     -43.229-122.511 -50.640  0.00  0.00    -0.058 NA
ATOM      9  C   UNL d   1     -44.385-123.022 -50.023  0.00  0.00     0.020 A 
ATOM     10  C   UNL d   1     -44.754-123.336 -49.377  0.00  0.00     0.008 A 
ATOM     11  C   UNL d   1     -44.317-123.469 -48.640  0.00  0.00     0.035 A 
ATOM     12 BR   UNL d   1     -44.692-123.798 -47.953  0.00  0.00    -0.049 Br
BRANCH   4  13
ATOM     13  C   UNL d   1     -41.950-122.878 -48.546  0.00  0.00     0.018 A 
ATOM     14  C   UNL d   1     -41.581-122.277 -48.154  0.00  0.00     0.002 A 
ATOM     15  C   UNL d   1     -41.172-122.418 -47.438  0.00  0.00     0.000 A 
ATOM     16  C   UNL d   1     -41.156-123.212 -47.134  0.00  0.00     0.000 A 
ATOM     17  C   UNL d   1     -41.543-123.802 -47.557  0.00  0.00     0.000 A 
ATOM     18  C   UNL d   1     -41.925-123.652 -48.234  0.00  0.00     0.002 A 
ENDBRANCH   4  13
ENDBRANCH   1   2
BRANCH   1  19
ATOM     19  N   UNL d   1     -41.682-121.224 -51.263  0.00  0.00    -0.090 NA
ATOM     20  C   UNL d   1     -41.472-120.821 -51.938  0.00  0.00     0.297 C 
ATOM     21  O   UNL d   1     -41.132-120.098 -51.907  0.00  0.00    -0.264 OA
BRANCH  20  22
ATOM     22  C   UNL d   1     -41.609-121.158 -52.663  0.00  0.00     0.059 A 
ATOM     23  C   UNL d   1     -42.237-120.872 -53.120  0.00  0.00     0.006 A 
ATOM     24  C   UNL d   1     -42.372-121.213 -53.849  0.00  0.00     0.013 A 
ATOM     25  C   UNL d   1     -41.893-121.819 -54.106  0.00  0.00     0.104 A 
ATOM     26  C   UNL d   1     -41.250-122.120 -53.650  0.00  0.00     0.013 A 
ATOM     27  C   UNL d   1     -41.123-121.765 -52.912  0.00  0.00     0.006 A 
BRANCH  25  28
ATOM     28  S   UNL d   1     -42.036-122.171 -54.862  0.00  0.00     0.271 S 
ATOM     29  O   UNL d   1     -41.420-121.733 -55.202  0.00  0.00    -0.200 OA
ATOM     30  O   UNL d   1     -42.665-122.631 -54.562  0.00  0.00    -0.200 OA
BRANCH  28  31
ATOM     31  N   UNL d   1     -42.178-122.523 -55.625  0.00  0.00    -0.229 N 
BRANCH  31  32
ATOM     32  C   UNL d   1     -42.088-123.329 -55.742  0.00  0.00     0.092 C 
ATOM     33  C   UNL d   1     -42.697-123.779 -56.022  0.00  0.00     0.021 C 
ENDBRANCH  31  32
BRANCH  31  34
ATOM     34  C   UNL d   1     -42.410-122.057 -56.265  0.00  0.00     0.092 C 
ATOM     35  C   UNL d   1     -41.842-121.666 -56.718  0.00  0.00     0.021 C 
ENDBRANCH  31  34
ENDBRANCH  28  31
ENDBRANCH  25  28
ENDBRANCH  20  22
ENDBRANCH   1  19
TORSDOF 8
ENDMDL
MODEL 2
REMARK VINA RESULT:      15.7      0.659      2.060
REMARK  8 active torsions:
REMARK  status: ('A' for Active; 'I' for Inactive)
REMARK    1  A    between atoms: C_9  and  S_1 
REMARK    2  A    between atoms: N_10  and  S_1 
REMARK    3  A    between atoms: C_17  and  C_3 
REMARK    4  A    between atoms: C_4  and  N_14 
REMARK    5  A    between atoms: C_8  and  C_16 
REMARK       I    between atoms: N_11  and  C_8 
REMARK    6  A    between atoms: C_27  and  N_10 
REMARK    7  A    between atoms: C_28  and  N_10 
REMARK    8  A    between atoms: N_14  and  N_11 
ROOT
ATOM      1  N   UNL d   1     -41.633-121.926 -51.173  0.00  0.00     0.049 NA
ENDROOT
BRANCH   1   2
ATOM      2  C   UNL d   1     -41.905-122.292 -50.430  0.00  0.00     0.768 A 
ATOM      3  N   UNL d   1     -42.672-122.583 -50.376  0.00  0.00    -0.058 NA
ATOM      4  C   UNL d   1     -42.923-122.924 -49.679  0.00  0.00     0.101 A 
ATOM      5  C   UNL d   1     -42.427-122.988 -49.019  0.00  0.00     0.037 A 
ATOM      6  C   UNL d   1     -41.652-122.686 -49.099  0.00  0.00     0.101 A 
ATOM      7  C   UNL d   1     -42.671-123.326 -48.327  0.00  0.00     0.010 A 
ATOM      8  N   UNL d   1     -41.384-122.342 -49.786  0.00  0.00    -0.058 NA
ATOM      9  C   UNL d   1     -41.123-122.731 -48.459  0.00  0.00     0.020 A 
ATOM     10  C   UNL d   1     -41.368-123.068 -47.767  0.00  0.00     0.008 A 
ATOM     11  C   UNL d   1     -42.173-123.381 -47.688  0.00  0.00     0.035 A 
ATOM     12 BR   UNL d   1     -42.443-123.739 -46.967  0.00  0.00    -0.049 Br
BRANCH   4  13
ATOM     13  C   UNL d   1     -43.693-123.227 -49.591  0.00  0.00     0.018 A 
ATOM     14  C   UNL d   1     -43.957-123.510 -48.882  0.00  0.00     0.002 A 
ATOM     15  C   UNL d   1     -44.732-123.813 -48.802  0.00  0.00     0.000 A 
ATOM     16  C   UNL d   1     -45.235-123.817 -49.488  0.00  0.00     0.000 A 
ATOM     17  C   UNL d   1     -44.936-123.521 -50.195  0.00  0.00     0.000 A 
ATOM     18  C   UNL d   1     -44.200-123.237 -50.255  0.00  0.00     0.002 A 
ENDBRANCH   4  13
ENDBRANCH   1   2
BRANCH   1  19
ATOM     19  N   UNL d   1     -41.398-121.131 -51.182  0.00  0.00    -0.090 NA
ATOM     20  C   UNL d   1     -41.349-120.716 -51.880  0.00  0.00     0.297 C 
ATOM     21  O   UNL d   1     -41.124-119.949 -51.897  0.00  0.00    -0.264 OA
BRANCH  20  22
ATOM     22  C   UNL d   1     -41.533-121.087 -52.578  0.00  0.00     0.059 A 
ATOM     23  C   UNL d   1     -42.042-120.704 -53.106  0.00  0.00     0.006 A 
ATOM     24  C   UNL d   1     -42.225-121.080 -53.808  0.00  0.00     0.013 A 
ATOM     25  C   UNL d   1     -41.906-121.811 -53.969  0.00  0.00     0.104 A 
ATOM     26  C   UNL d   1     -41.386-122.212 -53.438  0.00  0.00     0.013 A 
ATOM     27  C   UNL d   1     -41.208-121.820 -52.730  0.00  0.00     0.006 A 
BRANCH  25  28
ATOM     28  S   UNL d   1     -42.098-122.198 -54.697  0.00  0.00     0.271 S 
ATOM     29  O   UNL d   1     -42.877-122.323 -54.445  0.00  0.00    -0.200 OA
ATOM     30  O   UNL d   1     -41.323-122.093 -54.991  0.00  0.00    -0.200 OA
BRANCH  28  31
ATOM     31  N   UNL d   1     -42.294-122.587 -55.429  0.00  0.00    -0.229 N 
BRANCH  31  32
ATOM     32  C   UNL d   1     -42.660-122.182 -56.039  0.00  0.00     0.092 C 
ATOM     33  C   UNL d   1     -43.322-122.476 -56.396  0.00  0.00     0.021 C 
ENDBRANCH  31  32
BRANCH  31  34
ATOM     34  C   UNL d   1     -42.118-123.386 -55.539  0.00  0.00     0.092 C 
ATOM     35  C   UNL d   1     -41.475-123.724 -55.148  0.00  0.00     0.021 C 
ENDBRANCH  31  34
ENDBRANCH  28  31
ENDBRANCH  25  28
ENDBRANCH  20  22
ENDBRANCH   1  19
TORSDOF 8
ENDMDL
