MODEL 1
REMARK VINA RESULT:      -2.8      0.000      0.000
REMARK  5 active torsions:
REMARK  status: ('A' for Active; 'I' for Inactive)
REMARK    1  A    between atoms: C_8  and  N_1 
REMARK       I    between atoms: N_2  and  C_6 
REMARK    2  A    between atoms: S_11  and  C_3 
REMARK    3  A    between atoms: C_6  and  C_8 
REMARK    4  A    between atoms: C_9  and  C_15 
REMARK       I    between atoms: N_10  and  C_9 
REMARK    5  A    between atoms: C_15  and  S_11 
ROOT
ATOM      1  N   UNL d   1     -41.250-122.973 -50.698  0.00  0.00    -0.300 N 
ATOM      2  C   UNL d   1     -41.181-122.952 -52.028  0.00  0.00     0.049 A 
ATOM      3  C   UNL d   1     -41.230-123.450 -51.370  0.00  0.00     0.087 A 
ATOM      4  C   UNL d   1     -41.170-122.174 -51.761  0.00  0.00     0.024 A 
ATOM      5  C   UNL d   1     -41.213-122.188 -50.937  0.00  0.00     0.065 A 
ATOM      6  C   UNL d   1     -41.127-121.457 -52.160  0.00  0.00     0.002 A 
ATOM      7  C   UNL d   1     -41.212-121.481 -50.511  0.00  0.00     0.018 A 
ATOM      8  C   UNL d   1     -41.127-120.746 -51.737  0.00  0.00     0.000 A 
ATOM      9  C   UNL d   1     -41.169-120.766 -50.910  0.00  0.00     0.002 A 
ENDROOT
BRANCH   1  10
ATOM     10  C   UNL d   1     -41.298-123.238 -49.920  0.00  0.00     0.142 C 
BRANCH  10  11
ATOM     11  C   UNL d   1     -42.018-123.484 -49.612  0.00  0.00     0.283 C 
ATOM     12  N   UNL d   1     -42.173-123.401 -48.808  0.00  0.00    -0.267 N 
ATOM     13  C   UNL d   1     -42.895-123.647 -48.498  0.00  0.00     0.108 A 
ATOM     14  C   UNL d   1     -41.609-123.073 -48.308  0.00  0.00     0.108 A 
ATOM     15  C   UNL d   1     -43.051-123.565 -47.694  0.00  0.00     0.118 A 
ATOM     16  C   UNL d   1     -43.784-123.815 -47.380  0.00  0.00     0.028 C 
ATOM     17  O   UNL d   1     -42.486-123.235 -47.189  0.00  0.00    -0.304 OA
ATOM     18  C   UNL d   1     -41.766-122.990 -47.495  0.00  0.00     0.118 A 
ATOM     19  C   UNL d   1     -41.201-122.661 -46.995  0.00  0.00     0.028 C 
ATOM     20  O   UNL d   1     -42.584-123.812 -50.110  0.00  0.00    -0.265 OA
ENDBRANCH  10  11
ENDBRANCH   1  10
BRANCH   2  21
ATOM     21  S   UNL d   1     -41.148-123.197 -52.814  0.00  0.00    -0.080 SA
BRANCH  21  22
ATOM     22  C   UNL d   1     -41.761-123.018 -53.334  0.00  0.00     0.097 C 
BRANCH  22  23
ATOM     23  C   UNL d   1     -41.670-123.177 -54.145  0.00  0.00     0.272 C 
ATOM     24  N   UNL d   1     -42.050-122.708 -54.699  0.00  0.00    -0.267 N 
ATOM     25  C   UNL d   1     -41.953-122.874 -55.500  0.00  0.00     0.110 A 
ATOM     26  C   UNL d   1     -42.522-122.079 -54.455  0.00  0.00     0.110 A 
ATOM     27  C   UNL d   1     -42.335-122.402 -56.063  0.00  0.00     0.142 A 
ATOM     28  O   UNL d   1     -42.814-121.764 -55.816  0.00  0.00    -0.300 OA
ATOM     29  C   UNL d   1     -42.904-121.608 -55.018  0.00  0.00     0.142 A 
ATOM     30  O   UNL d   1     -41.197-123.807 -54.398  0.00  0.00    -0.266 OA
ENDBRANCH  22  23
ENDBRANCH  21  22
ENDBRANCH   2  21
TORSDOF 5
ENDMDL
