MODEL 1
REMARK VINA RESULT:      -2.7      0.000      0.000
REMARK  3 active torsions:
REMARK  status: ('A' for Active; 'I' for Inactive)
REMARK    1  A    between atoms: S_6  and  C_1 
REMARK    2  A    between atoms: C_9  and  S_6 
REMARK    3  A    between atoms: C_7  and  C_9 
ROOT
ATOM      1  C   UNL d   1      33.154  20.006 -22.228  0.00  0.00     0.191 A 
ATOM      2  N   UNL d   1      33.106  19.223 -22.012  0.00  0.00    -0.220 NA
ATOM      3  N   UNL d   1      33.211  20.060 -23.035  0.00  0.00    -0.220 NA
ATOM      4  C   UNL d   1      33.135  18.792 -22.701  0.00  0.00     0.101 A 
ATOM      5  C   UNL d   1      33.200  19.313 -23.338  0.00  0.00     0.101 A 
ATOM      6  C   UNL d   1      33.109  17.976 -22.829  0.00  0.00     0.021 A 
ATOM      7  C   UNL d   1      33.239  19.011 -24.094  0.00  0.00     0.021 A 
ATOM      8  C   UNL d   1      33.215  18.206 -24.241  0.00  0.00     0.002 A 
ATOM      9  C   UNL d   1      33.150  17.685 -23.605  0.00  0.00     0.002 A 
ENDROOT
BRANCH   1  10
ATOM     10  S   UNL d   1      33.145  20.642 -21.709  0.00  0.00    -0.064 SA
BRANCH  10  11
ATOM     11  C   UNL d   1      32.470  20.807 -21.266  0.00  0.00     0.162 C 
BRANCH  11  12
ATOM     12  C   UNL d   1      32.429  21.506 -20.804  0.00  0.00     0.197 C 
ATOM     13  O   UNL d   1      33.044  21.693 -20.298  0.00  0.00    -0.647 OA
ATOM     14  O   UNL d   1      31.766  21.994 -20.868  0.00  0.00    -0.647 OA
ENDBRANCH  11  12
ENDBRANCH  10  11
ENDBRANCH   1  10
TORSDOF 3
ENDMDL
MODEL 2
REMARK VINA RESULT:      -2.5      3.930      4.707
REMARK  3 active torsions:
REMARK  status: ('A' for Active; 'I' for Inactive)
REMARK    1  A    between atoms: S_6  and  C_1 
REMARK    2  A    between atoms: C_9  and  S_6 
REMARK    3  A    between atoms: C_7  and  C_9 
ROOT
ATOM      1  C   UNL d   1      32.904  23.261 -19.140  0.00  0.00     0.191 A 
ATOM      2  N   UNL d   1      33.221  22.625 -19.537  0.00  0.00    -0.220 NA
ATOM      3  N   UNL d   1      32.453  23.700 -19.651  0.00  0.00    -0.220 NA
ATOM      4  C   UNL d   1      32.959  22.678 -20.304  0.00  0.00     0.101 A 
ATOM      5  C   UNL d   1      32.481  23.347 -20.376  0.00  0.00     0.101 A 
ATOM      6  C   UNL d   1      33.098  22.193 -20.958  0.00  0.00     0.021 A 
ATOM      7  C   UNL d   1      32.148  23.521 -21.100  0.00  0.00     0.021 A 
ATOM      8  C   UNL d   1      32.274  23.052 -21.759  0.00  0.00     0.002 A 
ATOM      9  C   UNL d   1      32.752  22.383 -21.687  0.00  0.00     0.002 A 
ENDROOT
BRANCH   1  10
ATOM     10  S   UNL d   1      33.022  23.430 -18.346  0.00  0.00    -0.064 SA
BRANCH  10  11
ATOM     11  C   UNL d   1      32.926  22.842 -17.777  0.00  0.00     0.162 C 
BRANCH  11  12
ATOM     12  C   UNL d   1      32.857  23.045 -16.966  0.00  0.00     0.197 C 
ATOM     13  O   UNL d   1      32.419  23.702 -16.750  0.00  0.00    -0.647 OA
ATOM     14  O   UNL d   1      33.233  22.578 -16.399  0.00  0.00    -0.647 OA
ENDBRANCH  11  12
ENDBRANCH  10  11
ENDBRANCH   1  10
TORSDOF 3
ENDMDL
MODEL 3
REMARK VINA RESULT:      -2.4      4.065      4.655
REMARK  3 active torsions:
REMARK  status: ('A' for Active; 'I' for Inactive)
REMARK    1  A    between atoms: S_6  and  C_1 
REMARK    2  A    between atoms: C_9  and  S_6 
REMARK    3  A    between atoms: C_7  and  C_9 
ROOT
ATOM      1  C   UNL d   1      30.867  16.888 -24.148  0.00  0.00     0.191 A 
ATOM      2  N   UNL d   1      30.819  16.260 -23.633  0.00  0.00    -0.220 NA
ATOM      3  N   UNL d   1      30.121  17.099 -24.386  0.00  0.00    -0.220 NA
ATOM      4  C   UNL d   1      30.029  16.086 -23.556  0.00  0.00     0.101 A 
ATOM      5  C   UNL d   1      29.594  16.608 -24.024  0.00  0.00     0.101 A 
ATOM      6  C   UNL d   1      29.645  15.506 -23.109  0.00  0.00     0.021 A 
ATOM      7  C   UNL d   1      28.781  16.543 -24.039  0.00  0.00     0.021 A 
ATOM      8  C   UNL d   1      28.383  15.976 -23.605  0.00  0.00     0.002 A 
ATOM      9  C   UNL d   1      28.818  15.454 -23.136  0.00  0.00     0.002 A 
ENDROOT
BRANCH   1  10
ATOM     10  S   UNL d   1      31.563  17.251 -24.389  0.00  0.00    -0.064 SA
BRANCH  10  11
ATOM     11  C   UNL d   1      31.965  17.757 -23.878  0.00  0.00     0.162 C 
BRANCH  11  12
ATOM     12  C   UNL d   1      32.624  18.199 -24.153  0.00  0.00     0.197 C 
ATOM     13  O   UNL d   1      33.194  17.832 -24.612  0.00  0.00    -0.647 OA
ATOM     14  O   UNL d   1      32.685  18.998 -23.955  0.00  0.00    -0.647 OA
ENDBRANCH  11  12
ENDBRANCH  10  11
ENDBRANCH   1  10
TORSDOF 3
ENDMDL
MODEL 4
REMARK VINA RESULT:      -2.3      0.945      1.328
REMARK  3 active torsions:
REMARK  status: ('A' for Active; 'I' for Inactive)
REMARK    1  A    between atoms: S_6  and  C_1 
REMARK    2  A    between atoms: C_9  and  S_6 
REMARK    3  A    between atoms: C_7  and  C_9 
ROOT
ATOM      1  C   UNL d   1      33.210  21.073 -21.659  0.00  0.00     0.191 A 
ATOM      2  N   UNL d   1      33.210  20.307 -21.384  0.00  0.00    -0.220 NA
ATOM      3  N   UNL d   1      33.220  21.069 -22.469  0.00  0.00    -0.220 NA
ATOM      4  C   UNL d   1      33.220  19.828 -22.041  0.00  0.00     0.101 A 
ATOM      5  C   UNL d   1      33.226  20.302 -22.716  0.00  0.00     0.101 A 
ATOM      6  C   UNL d   1      33.224  19.004 -22.109  0.00  0.00     0.021 A 
ATOM      7  C   UNL d   1      33.237  19.946 -23.450  0.00  0.00     0.021 A 
ATOM      8  C   UNL d   1      33.241  19.133 -23.538  0.00  0.00     0.002 A 
ATOM      9  C   UNL d   1      33.235  18.658 -22.863  0.00  0.00     0.002 A 
ENDROOT
BRANCH   1  10
ATOM     10  S   UNL d   1      33.202  21.745 -21.187  0.00  0.00    -0.064 SA
BRANCH  10  11
ATOM     11  C   UNL d   1      32.541  21.921 -20.727  0.00  0.00     0.162 C 
BRANCH  11  12
ATOM     12  C   UNL d   1      32.489  22.656 -20.326  0.00  0.00     0.197 C 
ATOM     13  O   UNL d   1      31.978  23.232 -20.603  0.00  0.00    -0.647 OA
ATOM     14  O   UNL d   1      32.956  22.784 -19.657  0.00  0.00    -0.647 OA
ENDBRANCH  11  12
ENDBRANCH  10  11
ENDBRANCH   1  10
TORSDOF 3
ENDMDL
MODEL 5
REMARK VINA RESULT:      -2.3      4.099      4.774
REMARK  3 active torsions:
REMARK  status: ('A' for Active; 'I' for Inactive)
REMARK    1  A    between atoms: S_6  and  C_1 
REMARK    2  A    between atoms: C_9  and  S_6 
REMARK    3  A    between atoms: C_7  and  C_9 
ROOT
ATOM      1  C   UNL d   1      30.663  16.650 -24.048  0.00  0.00     0.191 A 
ATOM      2  N   UNL d   1      31.247  16.275 -23.624  0.00  0.00    -0.220 NA
ATOM      3  N   UNL d   1      30.926  17.379 -24.284  0.00  0.00    -0.220 NA
ATOM      4  C   UNL d   1      31.878  16.787 -23.600  0.00  0.00     0.101 A 
ATOM      5  C   UNL d   1      31.679  17.474 -24.011  0.00  0.00     0.101 A 
ATOM      6  C   UNL d   1      32.623  16.711 -23.250  0.00  0.00     0.021 A 
ATOM      7  C   UNL d   1      32.226  18.076 -24.065  0.00  0.00     0.021 A 
ATOM      8  C   UNL d   1      32.968  18.019 -23.725  0.00  0.00     0.002 A 
ATOM      9  C   UNL d   1      33.168  17.332 -23.315  0.00  0.00     0.002 A 
ENDROOT
BRANCH   1  10
ATOM     10  S   UNL d   1      29.921  16.337 -24.212  0.00  0.00    -0.064 SA
BRANCH  10  11
ATOM     11  C   UNL d   1      29.384  16.202 -23.602  0.00  0.00     0.162 C 
BRANCH  11  12
ATOM     12  C   UNL d   1      28.578  16.045 -23.777  0.00  0.00     0.197 C 
ATOM     13  O   UNL d   1      28.387  15.452 -24.308  0.00  0.00    -0.647 OA
ATOM     14  O   UNL d   1      27.991  16.493 -23.408  0.00  0.00    -0.647 OA
ENDBRANCH  11  12
ENDBRANCH  10  11
ENDBRANCH   1  10
TORSDOF 3
ENDMDL
MODEL 6
REMARK VINA RESULT:      -2.2      3.652      5.649
REMARK  3 active torsions:
REMARK  status: ('A' for Active; 'I' for Inactive)
REMARK    1  A    between atoms: S_6  and  C_1 
REMARK    2  A    between atoms: C_9  and  S_6 
REMARK    3  A    between atoms: C_7  and  C_9 
ROOT
ATOM      1  C   UNL d   1      32.744  23.163 -19.508  0.00  0.00     0.191 A 
ATOM      2  N   UNL d   1      32.171  23.570 -19.099  0.00  0.00    -0.220 NA
ATOM      3  N   UNL d   1      33.232  22.783 -18.984  0.00  0.00    -0.220 NA
ATOM      4  C   UNL d   1      32.312  23.434 -18.309  0.00  0.00     0.101 A 
ATOM      5  C   UNL d   1      32.972  22.944 -18.238  0.00  0.00     0.101 A 
ATOM      6  C   UNL d   1      31.914  23.700 -17.636  0.00  0.00     0.021 A 
ATOM      7  C   UNL d   1      33.226  22.727 -17.494  0.00  0.00     0.021 A 
ATOM      8  C   UNL d   1      32.845  22.980 -16.815  0.00  0.00     0.002 A 
ATOM      9  C   UNL d   1      32.185  23.470 -16.886  0.00  0.00     0.002 A 
ENDROOT
BRANCH   1  10
ATOM     10  S   UNL d   1      32.817  23.142 -20.326  0.00  0.00    -0.064 SA
BRANCH  10  11
ATOM     11  C   UNL d   1      32.406  22.579 -20.765  0.00  0.00     0.162 C 
BRANCH  11  12
ATOM     12  C   UNL d   1      32.657  22.383 -21.541  0.00  0.00     0.197 C 
ATOM     13  O   UNL d   1      32.688  22.967 -22.115  0.00  0.00    -0.647 OA
ATOM     14  O   UNL d   1      32.869  21.604 -21.713  0.00  0.00    -0.647 OA
ENDBRANCH  11  12
ENDBRANCH  10  11
ENDBRANCH   1  10
TORSDOF 3
ENDMDL
MODEL 7
REMARK VINA RESULT:      -2.0      2.482      3.699
REMARK  3 active torsions:
REMARK  status: ('A' for Active; 'I' for Inactive)
REMARK    1  A    between atoms: S_6  and  C_1 
REMARK    2  A    between atoms: C_9  and  S_6 
REMARK    3  A    between atoms: C_7  and  C_9 
ROOT
ATOM      1  C   UNL d   1      33.149  19.245 -23.007  0.00  0.00     0.191 A 
ATOM      2  N   UNL d   1      33.195  20.021 -23.247  0.00  0.00    -0.220 NA
ATOM      3  N   UNL d   1      33.126  19.213 -22.197  0.00  0.00    -0.220 NA
ATOM      4  C   UNL d   1      33.201  20.471 -22.569  0.00  0.00     0.101 A 
ATOM      5  C   UNL d   1      33.158  19.968 -21.916  0.00  0.00     0.101 A 
ATOM      6  C   UNL d   1      33.241  21.290 -22.464  0.00  0.00     0.021 A 
ATOM      7  C   UNL d   1      33.155  20.291 -21.167  0.00  0.00     0.021 A 
ATOM      8  C   UNL d   1      33.194  21.099 -21.043  0.00  0.00     0.002 A 
ATOM      9  C   UNL d   1      33.237  21.602 -21.696  0.00  0.00     0.002 A 
ENDROOT
BRANCH   1  10
ATOM     10  S   UNL d   1      33.128  18.595 -23.508  0.00  0.00    -0.064 SA
BRANCH  10  11
ATOM     11  C   UNL d   1      32.541  18.023 -23.423  0.00  0.00     0.162 C 
BRANCH  11  12
ATOM     12  C   UNL d   1      32.526  17.355 -23.929  0.00  0.00     0.197 C 
ATOM     13  O   UNL d   1      32.228  17.429 -24.688  0.00  0.00    -0.647 OA
ATOM     14  O   UNL d   1      32.811  16.631 -23.652  0.00  0.00    -0.647 OA
ENDBRANCH  11  12
ENDBRANCH  10  11
ENDBRANCH   1  10
TORSDOF 3
ENDMDL
MODEL 8
REMARK VINA RESULT:      -1.6      1.542      1.974
REMARK  3 active torsions:
REMARK  status: ('A' for Active; 'I' for Inactive)
REMARK    1  A    between atoms: S_6  and  C_1 
REMARK    2  A    between atoms: C_9  and  S_6 
REMARK    3  A    between atoms: C_7  and  C_9 
ROOT
ATOM      1  C   UNL d   1      32.888  18.478 -23.136  0.00  0.00     0.191 A 
ATOM      2  N   UNL d   1      33.083  17.741 -22.851  0.00  0.00    -0.220 NA
ATOM      3  N   UNL d   1      32.371  18.399 -23.756  0.00  0.00    -0.220 NA
ATOM      4  C   UNL d   1      32.676  17.203 -23.306  0.00  0.00     0.101 A 
ATOM      5  C   UNL d   1      32.233  17.613 -23.869  0.00  0.00     0.101 A 
ATOM      6  C   UNL d   1      32.654  16.378 -23.277  0.00  0.00     0.021 A 
ATOM      7  C   UNL d   1      31.774  17.192 -24.395  0.00  0.00     0.021 A 
ATOM      8  C   UNL d   1      31.739  16.374 -24.382  0.00  0.00     0.002 A 
ATOM      9  C   UNL d   1      32.182  15.965 -23.819  0.00  0.00     0.002 A 
ENDROOT
BRANCH   1  10
ATOM     10  S   UNL d   1      33.172  19.189 -22.842  0.00  0.00    -0.064 SA
BRANCH  10  11
ATOM     11  C   UNL d   1      32.860  19.506 -22.148  0.00  0.00     0.162 C 
BRANCH  11  12
ATOM     12  C   UNL d   1      33.099  20.265 -21.884  0.00  0.00     0.197 C 
ATOM     13  O   UNL d   1      33.188  20.872 -22.427  0.00  0.00    -0.647 OA
ATOM     14  O   UNL d   1      33.241  20.388 -21.080  0.00  0.00    -0.647 OA
ENDBRANCH  11  12
ENDBRANCH  10  11
ENDBRANCH   1  10
TORSDOF 3
ENDMDL
MODEL 9
REMARK VINA RESULT:      -1.1      4.784      5.542
REMARK  3 active torsions:
REMARK  status: ('A' for Active; 'I' for Inactive)
REMARK    1  A    between atoms: S_6  and  C_1 
REMARK    2  A    between atoms: C_9  and  S_6 
REMARK    3  A    between atoms: C_7  and  C_9 
ROOT
ATOM      1  C   UNL d   1      30.413  15.965 -24.746  0.00  0.00     0.191 A 
ATOM      2  N   UNL d   1      30.957  15.461 -25.080  0.00  0.00    -0.220 NA
ATOM      3  N   UNL d   1      30.801  16.555 -24.348  0.00  0.00    -0.220 NA
ATOM      4  C   UNL d   1      31.691  15.750 -24.881  0.00  0.00     0.101 A 
ATOM      5  C   UNL d   1      31.594  16.431 -24.426  0.00  0.00     0.101 A 
ATOM      6  C   UNL d   1      32.448  15.473 -25.062  0.00  0.00     0.021 A 
ATOM      7  C   UNL d   1      32.255  16.826 -24.157  0.00  0.00     0.021 A 
ATOM      8  C   UNL d   1      33.013  16.567 -24.325  0.00  0.00     0.002 A 
ATOM      9  C   UNL d   1      33.110  15.886 -24.781  0.00  0.00     0.002 A 
ENDROOT
BRANCH   1  10
ATOM     10  S   UNL d   1      29.598  15.887 -24.804  0.00  0.00    -0.064 SA
BRANCH  10  11
ATOM     11  C   UNL d   1      29.129  15.921 -24.127  0.00  0.00     0.162 C 
BRANCH  11  12
ATOM     12  C   UNL d   1      28.343  15.627 -24.143  0.00  0.00     0.197 C 
ATOM     13  O   UNL d   1      27.990  15.456 -24.862  0.00  0.00    -0.647 OA
ATOM     14  O   UNL d   1      27.939  15.515 -23.432  0.00  0.00    -0.647 OA
ENDBRANCH  11  12
ENDBRANCH  10  11
ENDBRANCH   1  10
TORSDOF 3
ENDMDL
