MODEL 1
REMARK VINA RESULT:      37.9      0.000      0.000
REMARK  3 active torsions:
REMARK  status: ('A' for Active; 'I' for Inactive)
REMARK    1  A    between atoms: C_8  and  C_2 
REMARK    2  A    between atoms: O_11  and  C_8 
REMARK    3  A    between atoms: C_12  and  O_11 
ROOT
ATOM      1  O   UNL d   1     -54.734-101.485 -39.745  0.00  0.00    -0.302 OA
ENDROOT
BRANCH   1   2
ATOM      2  C   UNL d   1     -54.763-102.009 -40.387  0.00  0.00     0.161 C 
BRANCH   2   3
ATOM      3  C   UNL d   1     -54.765-101.714 -41.158  0.00  0.00     0.188 A 
ATOM      4  N   UNL d   1     -54.732-100.894 -41.372  0.00  0.00    -0.224 NA
ATOM      5  C   UNL d   1     -54.746-100.851 -42.179  0.00  0.00     0.101 A 
ATOM      6  C   UNL d   1     -54.788-101.648 -42.484  0.00  0.00     0.101 A 
ATOM      7  C   UNL d   1     -54.729-100.229 -42.734  0.00  0.00     0.021 A 
ATOM      8  C   UNL d   1     -54.809-101.777 -43.298  0.00  0.00     0.021 A 
ATOM      9  N   UNL d   1     -54.798-102.152 -41.853  0.00  0.00    -0.224 NA
ATOM     10  C   UNL d   1     -54.790-101.138 -43.818  0.00  0.00     0.002 A 
ATOM     11  C   UNL d   1     -54.750-100.367 -43.524  0.00  0.00     0.002 A 
ENDBRANCH   2   3
ENDBRANCH   1   2
BRANCH   1  12
ATOM     12  C   UNL d   1     -54.944-101.776 -39.001  0.00  0.00     0.100 A 
ATOM     13  C   UNL d   1     -54.748-101.403 -38.316  0.00  0.00     0.025 A 
ATOM     14  C   UNL d   1     -54.971-101.716 -37.586  0.00  0.00     0.002 A 
ATOM     15  C   UNL d   1     -54.753-101.306 -36.878  0.00  0.00     0.000 A 
ATOM     16  C   UNL d   1     -55.389-102.401 -37.540  0.00  0.00     0.000 A 
ATOM     17  C   UNL d   1     -54.976-101.618 -36.148  0.00  0.00     0.000 A 
ATOM     18  C   UNL d   1     -55.424-102.352 -36.099  0.00  0.00     0.000 A 
ATOM     19  C   UNL d   1     -55.612-102.713 -36.810  0.00  0.00     0.000 A 
ATOM     20  C   UNL d   1     -55.609-102.814 -38.251  0.00  0.00     0.002 A 
ATOM     21  C   UNL d   1     -55.386-102.502 -38.981  0.00  0.00     0.025 A 
ENDBRANCH   1  12
TORSDOF 3
ENDMDL
MODEL 2
REMARK VINA RESULT:      39.1      1.107      1.851
REMARK  3 active torsions:
REMARK  status: ('A' for Active; 'I' for Inactive)
REMARK    1  A    between atoms: C_8  and  C_2 
REMARK    2  A    between atoms: O_11  and  C_8 
REMARK    3  A    between atoms: C_12  and  O_11 
ROOT
ATOM      1  O   UNL d   1     -55.010-101.150 -41.477  0.00  0.00    -0.302 OA
ENDROOT
BRANCH   1   2
ATOM      2  C   UNL d   1     -54.792-101.540 -42.176  0.00  0.00     0.161 C 
BRANCH   2   3
ATOM      3  C   UNL d   1     -54.799-101.133 -42.893  0.00  0.00     0.188 A 
ATOM      4  N   UNL d   1     -54.885-100.294 -42.983  0.00  0.00    -0.224 NA
ATOM      5  C   UNL d   1     -54.861-100.129 -43.774  0.00  0.00     0.101 A 
ATOM      6  C   UNL d   1     -54.759-100.866 -44.193  0.00  0.00     0.101 A 
ATOM      7  C   UNL d   1     -54.913 -99.432 -44.230  0.00  0.00     0.021 A 
ATOM      8  C   UNL d   1     -54.715-100.870 -45.016  0.00  0.00     0.021 A 
ATOM      9  N   UNL d   1     -54.723-101.457 -43.645  0.00  0.00    -0.224 NA
ATOM     10  C   UNL d   1     -54.770-100.161 -45.436  0.00  0.00     0.002 A 
ATOM     11  C   UNL d   1     -54.869 -99.448 -45.031  0.00  0.00     0.002 A 
ENDBRANCH   2   3
ENDBRANCH   1   2
BRANCH   1  12
ATOM     12  C   UNL d   1     -54.938-101.562 -40.766  0.00  0.00     0.100 A 
ATOM     13  C   UNL d   1     -54.937-101.199 -40.049  0.00  0.00     0.025 A 
ATOM     14  C   UNL d   1     -54.863-101.636 -39.353  0.00  0.00     0.002 A 
ATOM     15  C   UNL d   1     -54.864-101.232 -38.610  0.00  0.00     0.000 A 
ATOM     16  C   UNL d   1     -54.790-102.437 -39.374  0.00  0.00     0.000 A 
ATOM     17  C   UNL d   1     -54.790-101.669 -37.914  0.00  0.00     0.000 A 
ATOM     18  C   UNL d   1     -54.712-102.526 -37.936  0.00  0.00     0.000 A 
ATOM     19  C   UNL d   1     -54.716-102.874 -38.679  0.00  0.00     0.000 A 
ATOM     20  C   UNL d   1     -54.788-102.845 -40.121  0.00  0.00     0.002 A 
ATOM     21  C   UNL d   1     -54.862-102.408 -40.817  0.00  0.00     0.025 A 
ENDBRANCH   1  12
TORSDOF 3
ENDMDL
MODEL 3
REMARK VINA RESULT:      39.2      3.915      5.630
REMARK  3 active torsions:
REMARK  status: ('A' for Active; 'I' for Inactive)
REMARK    1  A    between atoms: C_8  and  C_2 
REMARK    2  A    between atoms: O_11  and  C_8 
REMARK    3  A    between atoms: C_12  and  O_11 
ROOT
ATOM      1  O   UNL d   1     -55.388 -99.360 -44.923  0.00  0.00    -0.302 OA
ENDROOT
BRANCH   1   2
ATOM      2  C   UNL d   1     -55.832 -98.816 -44.482  0.00  0.00     0.161 C 
BRANCH   2   3
ATOM      3  C   UNL d   1     -56.654 -98.811 -44.545  0.00  0.00     0.188 A 
ATOM      4  N   UNL d   1     -57.198 -98.843 -43.895  0.00  0.00    -0.224 NA
ATOM      5  C   UNL d   1     -57.946 -98.825 -44.200  0.00  0.00     0.101 A 
ATOM      6  C   UNL d   1     -57.881 -98.781 -45.051  0.00  0.00     0.101 A 
ATOM      7  C   UNL d   1     -58.714 -98.840 -43.875  0.00  0.00     0.021 A 
ATOM      8  C   UNL d   1     -58.562 -98.756 -45.516  0.00  0.00     0.021 A 
ATOM      9  N   UNL d   1     -57.096 -98.774 -45.237  0.00  0.00    -0.224 NA
ATOM     10  C   UNL d   1     -59.306 -98.772 -45.159  0.00  0.00     0.002 A 
ATOM     11  C   UNL d   1     -59.369 -98.814 -44.337  0.00  0.00     0.002 A 
ENDBRANCH   2   3
ENDBRANCH   1   2
BRANCH   1  12
ATOM     12  C   UNL d   1     -55.242-100.100 -44.589  0.00  0.00     0.100 A 
ATOM     13  C   UNL d   1     -55.152-100.211 -43.798  0.00  0.00     0.025 A 
ATOM     14  C   UNL d   1     -55.007-100.963 -43.490  0.00  0.00     0.002 A 
ATOM     15  C   UNL d   1     -54.917-101.056 -42.653  0.00  0.00     0.000 A 
ATOM     16  C   UNL d   1     -54.951-101.603 -43.973  0.00  0.00     0.000 A 
ATOM     17  C   UNL d   1     -54.771-101.808 -42.346  0.00  0.00     0.000 A 
ATOM     18  C   UNL d   1     -54.711-102.493 -42.863  0.00  0.00     0.000 A 
ATOM     19  C   UNL d   1     -54.806-102.355 -43.665  0.00  0.00     0.000 A 
ATOM     20  C   UNL d   1     -55.042-101.512 -44.814  0.00  0.00     0.002 A 
ATOM     21  C   UNL d   1     -55.187-100.760 -45.122  0.00  0.00     0.025 A 
ENDBRANCH   1  12
TORSDOF 3
ENDMDL
