MODEL 1
REMARK VINA RESULT:      57.8      0.000      0.000
REMARK  4 active torsions:
REMARK  status: ('A' for Active; 'I' for Inactive)
REMARK    1  A    between atoms: S_3  and  N_1 
REMARK    2  A    between atoms: C_7  and  C_4 
REMARK    3  A    between atoms: C_8  and  C_5 
REMARK    4  A    between atoms: O_19  and  C_17 
ROOT
ATOM      1  N   UNL d   1     -51.703  26.261  33.887  0.00  0.00    -0.155 N 
ATOM      2  N   UNL d   1     -51.263  26.971  33.861  0.00  0.00    -0.155 NA
ATOM      3  C   UNL d   1     -50.503  26.777  33.639  0.00  0.00     0.110 A 
ATOM      4  C   UNL d   1     -51.217  25.629  33.681  0.00  0.00     0.096 A 
ATOM      5  C   UNL d   1     -50.451  25.941  33.520  0.00  0.00     0.041 A 
ENDROOT
BRANCH   4   6
ATOM      6  C   UNL d   1     -51.433  24.834  33.637  0.00  0.00     0.021 A 
ATOM      7  C   UNL d   1     -52.199  24.604  33.807  0.00  0.00     0.026 A 
ATOM      8  C   UNL d   1     -52.415  23.809  33.763  0.00  0.00     0.094 A 
ATOM      9  C   UNL d   1     -51.865  23.244  33.550  0.00  0.00     0.024 A 
ATOM     10  C   UNL d   1     -51.092  23.470  33.378  0.00  0.00     0.002 A 
ATOM     11  C   UNL d   1     -50.876  24.265  33.421  0.00  0.00     0.002 A 
BRANCH   8  12
ATOM     12  O   UNL d   1     -53.194  23.584  33.937  0.00  0.00    -0.328 OA
ATOM     13  C   UNL d   1     -53.696  23.343  33.335  0.00  0.00     0.181 C 
ENDBRANCH   8  12
ENDBRANCH   4   6
BRANCH   1  14
ATOM     14  S   UNL d   1     -52.483  26.210  34.084  0.00  0.00     0.266 S 
ATOM     15  O   UNL d   1     -52.280  25.912  34.839  0.00  0.00    -0.203 OA
ATOM     16  O   UNL d   1     -52.720  26.498  33.359  0.00  0.00    -0.203 OA
ATOM     17  C   UNL d   1     -53.297  26.149  34.311  0.00  0.00     0.165 C 
ENDBRANCH   1  14
BRANCH   3  18
ATOM     18  C   UNL d   1     -49.863  27.294  33.537  0.00  0.00     0.049 A 
ATOM     19  S   UNL d   1     -49.935  28.107  33.599  0.00  0.00    -0.085 SA
ATOM     20  C   UNL d   1     -49.184  28.422  33.463  0.00  0.00     0.035 A 
ATOM     21  C   UNL d   1     -48.659  27.778  33.316  0.00  0.00     0.007 A 
ATOM     22  C   UNL d   1     -49.084  27.093  33.364  0.00  0.00     0.009 A 
ENDBRANCH   3  18
TORSDOF 4
ENDMDL
MODEL 2
REMARK VINA RESULT:      60.4      1.856      4.094
REMARK  4 active torsions:
REMARK  status: ('A' for Active; 'I' for Inactive)
REMARK    1  A    between atoms: S_3  and  N_1 
REMARK    2  A    between atoms: C_7  and  C_4 
REMARK    3  A    between atoms: C_8  and  C_5 
REMARK    4  A    between atoms: O_19  and  C_17 
ROOT
ATOM      1  N   UNL d   1     -50.931  26.625  33.734  0.00  0.00    -0.155 N 
ATOM      2  N   UNL d   1     -51.211  25.931  33.362  0.00  0.00    -0.155 NA
ATOM      3  C   UNL d   1     -50.862  25.298  33.737  0.00  0.00     0.110 A 
ATOM      4  C   UNL d   1     -50.409  26.421  34.338  0.00  0.00     0.096 A 
ATOM      5  C   UNL d   1     -50.355  25.581  34.352  0.00  0.00     0.041 A 
ENDROOT
BRANCH   4   6
ATOM      6  C   UNL d   1     -50.009  26.939  34.841  0.00  0.00     0.021 A 
ATOM      7  C   UNL d   1     -49.357  27.353  34.573  0.00  0.00     0.026 A 
ATOM      8  C   UNL d   1     -48.957  27.871  35.076  0.00  0.00     0.094 A 
ATOM      9  C   UNL d   1     -49.209  27.975  35.845  0.00  0.00     0.024 A 
ATOM     10  C   UNL d   1     -49.866  27.560  36.120  0.00  0.00     0.002 A 
ATOM     11  C   UNL d   1     -50.266  27.042  35.617  0.00  0.00     0.002 A 
BRANCH   8  12
ATOM     12  O   UNL d   1     -48.296  28.288  34.797  0.00  0.00    -0.328 OA
ATOM     13  C   UNL d   1     -47.621  28.343  35.258  0.00  0.00     0.181 C 
ENDBRANCH   8  12
ENDBRANCH   4   6
BRANCH   1  14
ATOM     14  S   UNL d   1     -51.142  27.376  33.528  0.00  0.00     0.266 S 
ATOM     15  O   UNL d   1     -50.353  27.544  33.306  0.00  0.00    -0.203 OA
ATOM     16  O   UNL d   1     -51.920  27.249  33.735  0.00  0.00    -0.203 OA
ATOM     17  C   UNL d   1     -51.343  28.168  33.306  0.00  0.00     0.165 C 
ENDBRANCH   1  14
BRANCH   3  18
ATOM     18  C   UNL d   1     -50.968  24.493  33.565  0.00  0.00     0.049 A 
ATOM     19  S   UNL d   1     -50.342  23.974  33.470  0.00  0.00    -0.085 SA
ATOM     20  C   UNL d   1     -50.672  23.234  33.307  0.00  0.00     0.035 A 
ATOM     21  C   UNL d   1     -51.511  23.323  33.306  0.00  0.00     0.007 A 
ATOM     22  C   UNL d   1     -51.681  24.096  33.465  0.00  0.00     0.009 A 
ENDBRANCH   3  18
TORSDOF 4
ENDMDL
