MODEL 1
REMARK VINA RESULT:     129.6      0.000      0.000
REMARK  4 active torsions:
REMARK  status: ('A' for Active; 'I' for Inactive)
REMARK    1  A    between atoms: N_5  and  S_1 
REMARK    2  A    between atoms: C_8  and  S_1 
REMARK    3  A    between atoms: C_2  and  C_11 
REMARK       I    between atoms: C_12  and  N_13 
REMARK    4  A    between atoms: N_13  and  C_21 
ROOT
ATOM      1  N   UNL d   1      56.419  43.664  55.280  0.00  0.00    -0.229 N 
ATOM      2  C   UNL d   1      56.448  41.858  55.046  0.00  0.00     0.039 A 
ATOM      3  C   UNL d   1      56.819  43.304  54.539  0.00  0.00     0.092 A 
ATOM      4  C   UNL d   1      56.034  43.120  55.902  0.00  0.00     0.092 A 
ATOM      5  C   UNL d   1      56.048  42.210  55.786  0.00  0.00     0.023 A 
ATOM      6  C   UNL d   1      56.833  42.402  54.424  0.00  0.00     0.023 A 
ENDROOT
BRANCH   1   7
ATOM      7  S   UNL d   1      56.408  44.486  55.384  0.00  0.00     0.271 S 
ATOM      8  O   UNL d   1      56.529  44.594  54.571  0.00  0.00    -0.200 OA
ATOM      9  O   UNL d   1      56.286  44.374  56.195  0.00  0.00    -0.200 OA
BRANCH   7  10
ATOM     10  C   UNL d   1      56.394  45.303  55.502  0.00  0.00     0.104 A 
ATOM     11  C   UNL d   1      56.046  45.801  54.962  0.00  0.00     0.015 A 
ATOM     12  C   UNL d   1      56.033  46.613  55.081  0.00  0.00     0.033 A 
ATOM     13  C   UNL d   1      56.384  46.929  55.770  0.00  0.00     0.135 A 
ATOM     14  C   UNL d   1      56.742  46.428  56.327  0.00  0.00     0.033 A 
ATOM     15  C   UNL d   1      56.745  45.611  56.191  0.00  0.00     0.015 A 
BRANCH  13  16
ATOM     16  N   UNL d   1      56.377  47.743  55.899  0.00  0.00    -0.365 NA
ATOM     17  C   UNL d   1      56.371  48.563  56.022  0.00  0.00     0.328 C 
ATOM     18  O   UNL d   1      56.659  48.689  55.263  0.00  0.00    -0.251 OA
ATOM     19  C   UNL d   1      56.361  49.373  56.157  0.00  0.00     0.082 C 
ENDBRANCH  13  16
ENDBRANCH   7  10
ENDBRANCH   1   7
BRANCH   2  20
ATOM     20  C   UNL d   1      56.461  40.949  54.930  0.00  0.00     0.163 A 
ATOM     21  N   UNL d   1      56.861  40.464  55.353  0.00  0.00    -0.225 NA
ATOM     22  C   UNL d   1      56.730  39.767  55.089  0.00  0.00     0.101 A 
ATOM     23  C   UNL d   1      56.997  39.090  55.320  0.00  0.00     0.021 A 
ATOM     24  C   UNL d   1      56.252  39.819  54.506  0.00  0.00     0.101 A 
ATOM     25  C   UNL d   1      56.770  38.468  54.949  0.00  0.00     0.002 A 
ATOM     26  C   UNL d   1      56.290  38.516  54.362  0.00  0.00     0.002 A 
ATOM     27  C   UNL d   1      56.037  39.187  54.148  0.00  0.00     0.021 A 
ATOM     28  N   UNL d   1      56.085  40.550  54.406  0.00  0.00    -0.225 NA
ENDBRANCH   2  20
TORSDOF 4
ENDMDL
