MODEL 1
REMARK VINA RESULT:      31.7      0.000      0.000
REMARK  7 active torsions:
REMARK  status: ('A' for Active; 'I' for Inactive)
REMARK    1  A    between atoms: S_9  and  C_2 
REMARK    2  A    between atoms: C_6  and  C_8 
REMARK       I    between atoms: N_7  and  C_6 
REMARK    3  A    between atoms: C_11  and  N_7 
REMARK    4  A    between atoms: C_8  and  C_12 
REMARK    5  A    between atoms: C_12  and  S_9 
REMARK    6  A    between atoms: O_18  and  C_13 
REMARK    7  A    between atoms: C_20  and  O_18 
ROOT
ATOM      1  C   UNL d   1      15.183  13.466  -0.682  0.00  0.00     0.280 C 
ATOM      2  N   UNL d   1      14.945  12.682  -0.776  0.00  0.00    -0.208 NA
ATOM      3  O   UNL d   1      15.624  13.687  -0.016  0.00  0.00    -0.265 OA
ENDROOT
BRANCH   1   4
ATOM      4  C   UNL d   1      14.982  14.032  -1.250  0.00  0.00     0.070 C 
BRANCH   4   5
ATOM      5  C   UNL d   1      15.282  14.799  -1.195  0.00  0.00     0.042 C 
BRANCH   5   6
ATOM      6  S   UNL d   1      14.864  15.437  -1.533  0.00  0.00    -0.059 SA
BRANCH   6   7
ATOM      7  C   UNL d   1      15.050  16.212  -1.320  0.00  0.00     0.164 A 
ATOM      8  S   UNL d   1      15.701  16.541  -0.935  0.00  0.00    -0.039 SA
ATOM      9  C   UNL d   1      15.584  17.350  -0.873  0.00  0.00     0.134 A 
ATOM     10  N   UNL d   1      14.856  17.538  -1.220  0.00  0.00    -0.140 NA
ATOM     11  C   UNL d   1      16.110  17.894  -0.520  0.00  0.00     0.030 C 
ATOM     12  N   UNL d   1      14.526  16.824  -1.497  0.00  0.00    -0.134 NA
ENDBRANCH   6   7
ENDBRANCH   5   6
ENDBRANCH   4   5
ENDBRANCH   1   4
BRANCH   2  13
ATOM     13  C   UNL d   1      14.499  12.455  -1.447  0.00  0.00     0.085 A 
ATOM     14  C   UNL d   1      14.875  12.370  -2.178  0.00  0.00     0.021 A 
ATOM     15  C   UNL d   1      14.442  12.146  -2.842  0.00  0.00     0.026 A 
ATOM     16  C   UNL d   1      13.630  12.007  -2.776  0.00  0.00     0.100 A 
ATOM     17  C   UNL d   1      13.254  12.092  -2.045  0.00  0.00     0.026 A 
ATOM     18  C   UNL d   1      13.689  12.317  -1.379  0.00  0.00     0.021 A 
BRANCH  16  19
ATOM     19  O   UNL d   1      13.191  11.779  -3.457  0.00  0.00    -0.305 OA
BRANCH  19  20
ATOM     20  C   UNL d   1      12.784  12.348  -3.898  0.00  0.00     0.123 C 
ATOM     21  C   UNL d   1      12.837  12.343  -4.721  0.00  0.00     0.029 C 
ENDBRANCH  19  20
ENDBRANCH  16  19
ENDBRANCH   2  13
TORSDOF 7
ENDMDL
MODEL 2
REMARK VINA RESULT:      33.8      1.779      3.411
REMARK  7 active torsions:
REMARK  status: ('A' for Active; 'I' for Inactive)
REMARK    1  A    between atoms: S_9  and  C_2 
REMARK    2  A    between atoms: C_6  and  C_8 
REMARK       I    between atoms: N_7  and  C_6 
REMARK    3  A    between atoms: C_11  and  N_7 
REMARK    4  A    between atoms: C_8  and  C_12 
REMARK    5  A    between atoms: C_12  and  S_9 
REMARK    6  A    between atoms: O_18  and  C_13 
REMARK    7  A    between atoms: C_20  and  O_18 
ROOT
ATOM      1  C   UNL d   1      14.723  15.575  -2.111  0.00  0.00     0.280 C 
ATOM      2  N   UNL d   1      14.314  15.749  -2.807  0.00  0.00    -0.208 NA
ATOM      3  O   UNL d   1      15.054  16.188  -1.661  0.00  0.00    -0.265 OA
ENDROOT
BRANCH   1   4
ATOM      4  C   UNL d   1      14.802  14.792  -1.862  0.00  0.00     0.070 C 
BRANCH   4   5
ATOM      5  C   UNL d   1      14.822  14.614  -1.056  0.00  0.00     0.042 C 
BRANCH   5   6
ATOM      6  S   UNL d   1      15.254  13.954  -0.783  0.00  0.00    -0.059 SA
BRANCH   6   7
ATOM      7  C   UNL d   1      14.874  13.231  -0.666  0.00  0.00     0.164 A 
ATOM      8  S   UNL d   1      14.179  13.027  -0.273  0.00  0.00    -0.039 SA
ATOM      9  C   UNL d   1      14.073  12.217  -0.337  0.00  0.00     0.134 A 
ATOM     10  N   UNL d   1      14.703  11.903  -0.772  0.00  0.00    -0.140 NA
ATOM     11  C   UNL d   1      13.437  11.780  -0.017  0.00  0.00     0.030 C 
ATOM     12  N   UNL d   1      15.201  12.540  -0.976  0.00  0.00    -0.134 NA
ENDBRANCH   6   7
ENDBRANCH   5   6
ENDBRANCH   4   5
ENDBRANCH   1   4
BRANCH   2  13
ATOM     13  C   UNL d   1      13.979  15.134  -3.263  0.00  0.00     0.085 A 
ATOM     14  C   UNL d   1      13.281  14.771  -3.010  0.00  0.00     0.021 A 
ATOM     15  C   UNL d   1      12.945  14.164  -3.456  0.00  0.00     0.026 A 
ATOM     16  C   UNL d   1      13.309  13.919  -4.156  0.00  0.00     0.100 A 
ATOM     17  C   UNL d   1      14.007  14.282  -4.409  0.00  0.00     0.026 A 
ATOM     18  C   UNL d   1      14.342  14.890  -3.962  0.00  0.00     0.021 A 
BRANCH  16  19
ATOM     19  O   UNL d   1      12.963  13.299  -4.608  0.00  0.00    -0.305 OA
BRANCH  19  20
ATOM     20  C   UNL d   1      12.917  12.534  -4.297  0.00  0.00     0.123 C 
ATOM     21  C   UNL d   1      13.330  11.919  -4.659  0.00  0.00     0.029 C 
ENDBRANCH  19  20
ENDBRANCH  16  19
ENDBRANCH   2  13
TORSDOF 7
ENDMDL
MODEL 3
REMARK VINA RESULT:      34.3      2.338      4.588
REMARK  7 active torsions:
REMARK  status: ('A' for Active; 'I' for Inactive)
REMARK    1  A    between atoms: S_9  and  C_2 
REMARK    2  A    between atoms: C_6  and  C_8 
REMARK       I    between atoms: N_7  and  C_6 
REMARK    3  A    between atoms: C_11  and  N_7 
REMARK    4  A    between atoms: C_8  and  C_12 
REMARK    5  A    between atoms: C_12  and  S_9 
REMARK    6  A    between atoms: O_18  and  C_13 
REMARK    7  A    between atoms: C_20  and  O_18 
ROOT
ATOM      1  C   UNL d   1      14.319  15.197  -3.283  0.00  0.00     0.280 C 
ATOM      2  N   UNL d   1      14.789  15.377  -2.629  0.00  0.00    -0.208 NA
ATOM      3  O   UNL d   1      14.304  15.708  -3.935  0.00  0.00    -0.265 OA
ENDROOT
BRANCH   1   4
ATOM      4  C   UNL d   1      13.862  14.509  -3.288  0.00  0.00     0.070 C 
BRANCH   4   5
ATOM      5  C   UNL d   1      13.329  14.370  -3.903  0.00  0.00     0.042 C 
BRANCH   5   6
ATOM      6  S   UNL d   1      12.805  13.721  -3.865  0.00  0.00    -0.059 SA
BRANCH   6   7
ATOM      7  C   UNL d   1      12.938  13.055  -4.333  0.00  0.00     0.164 A 
ATOM      8  S   UNL d   1      12.871  12.925  -5.145  0.00  0.00    -0.039 SA
ATOM      9  C   UNL d   1      13.077  12.146  -5.300  0.00  0.00     0.134 A 
ATOM     10  N   UNL d   1      13.276  11.779  -4.585  0.00  0.00    -0.140 NA
ATOM     11  C   UNL d   1      13.085  11.784  -6.053  0.00  0.00     0.030 C 
ATOM     12  N   UNL d   1      13.188  12.350  -3.984  0.00  0.00    -0.134 NA
ENDBRANCH   6   7
ENDBRANCH   5   6
ENDBRANCH   4   5
ENDBRANCH   1   4
BRANCH   2  13
ATOM     13  C   UNL d   1      14.806  14.863  -1.968  0.00  0.00     0.085 A 
ATOM     14  C   UNL d   1      14.985  14.064  -2.076  0.00  0.00     0.021 A 
ATOM     15  C   UNL d   1      15.004  13.553  -1.429  0.00  0.00     0.026 A 
ATOM     16  C   UNL d   1      14.843  13.843  -0.673  0.00  0.00     0.100 A 
ATOM     17  C   UNL d   1      14.663  14.642  -0.565  0.00  0.00     0.026 A 
ATOM     18  C   UNL d   1      14.645  15.153  -1.213  0.00  0.00     0.021 A 
BRANCH  16  19
ATOM     19  O   UNL d   1      14.863  13.318  -0.015  0.00  0.00    -0.305 OA
BRANCH  19  20
ATOM     20  C   UNL d   1      15.009  12.513  -0.131  0.00  0.00     0.123 C 
ATOM     21  C   UNL d   1      14.392  11.970  -0.061  0.00  0.00     0.029 C 
ENDBRANCH  19  20
ENDBRANCH  16  19
ENDBRANCH   2  13
TORSDOF 7
ENDMDL
