MODEL 1
REMARK VINA RESULT:      -5.8      0.000      0.000
REMARK  0 active torsions:
REMARK  status: ('A' for Active; 'I' for Inactive)
ROOT
ATOM      1  N   UNL d   1     -48.333  12.342  23.182  0.00  0.00    -0.169 NA
ATOM      2  C   UNL d   1     -47.829  12.971  23.012  0.00  0.00     0.199 A 
ATOM      3  C   UNL d   1     -47.020  12.933  23.168  0.00  0.00     0.130 A 
ATOM      4  N   UNL d   1     -47.192  11.613  23.677  0.00  0.00    -0.151 NA
ATOM      5  C   UNL d   1     -46.707  12.255  23.499  0.00  0.00     0.292 A 
ATOM      6  C   UNL d   1     -48.001  11.651  23.522  0.00  0.00     0.373 A 
ATOM      7  O   UNL d   1     -45.894  12.213  23.657  0.00  0.00    -0.264 OA
ATOM      8  O   UNL d   1     -48.498  11.011  23.698  0.00  0.00    -0.242 OA
ATOM      9  N   UNL d   1     -48.152  13.662  22.674  0.00  0.00    -0.126 N 
ATOM     10 BR   UNL d   1     -46.530  13.574  22.990  0.00  0.00    -0.041 Br
ENDROOT
TORSDOF 0
ENDMDL
MODEL 2
REMARK VINA RESULT:      -5.8      1.383      1.968
REMARK  0 active torsions:
REMARK  status: ('A' for Active; 'I' for Inactive)
ROOT
ATOM      1  N   UNL d   1     -47.388  13.627  22.993  0.00  0.00    -0.169 NA
ATOM      2  C   UNL d   1     -47.669  12.880  23.194  0.00  0.00     0.199 A 
ATOM      3  C   UNL d   1     -47.161  12.273  23.428  0.00  0.00     0.130 A 
ATOM      4  N   UNL d   1     -46.053  13.155  23.265  0.00  0.00    -0.151 NA
ATOM      5  C   UNL d   1     -46.358  12.415  23.461  0.00  0.00     0.292 A 
ATOM      6  C   UNL d   1     -46.561  13.761  23.031  0.00  0.00     0.373 A 
ATOM      7  O   UNL d   1     -45.844  11.807  23.696  0.00  0.00    -0.264 OA
ATOM      8  O   UNL d   1     -46.266  14.510  22.831  0.00  0.00    -0.242 OA
ATOM      9  N   UNL d   1     -48.490  12.739  23.158  0.00  0.00    -0.126 N 
ATOM     10 BR   UNL d   1     -47.463  11.530  23.626  0.00  0.00    -0.041 Br
ENDROOT
TORSDOF 0
ENDMDL
MODEL 3
REMARK VINA RESULT:      -5.7      1.192      1.674
REMARK  0 active torsions:
REMARK  status: ('A' for Active; 'I' for Inactive)
ROOT
ATOM      1  N   UNL d   1     -47.139  12.132  23.327  0.00  0.00    -0.169 NA
ATOM      2  C   UNL d   1     -47.638  12.732  23.065  0.00  0.00     0.199 A 
ATOM      3  C   UNL d   1     -47.357  13.492  22.909  0.00  0.00     0.130 A 
ATOM      4  N   UNL d   1     -46.047  13.071  23.278  0.00  0.00    -0.151 NA
ATOM      5  C   UNL d   1     -46.564  13.656  23.017  0.00  0.00     0.292 A 
ATOM      6  C   UNL d   1     -46.327  12.311  23.434  0.00  0.00     0.373 A 
ATOM      7  O   UNL d   1     -46.278  14.419  22.861  0.00  0.00    -0.264 OA
ATOM      8  O   UNL d   1     -45.815  11.714  23.698  0.00  0.00    -0.242 OA
ATOM      9  N   UNL d   1     -48.447  12.562  22.956  0.00  0.00    -0.126 N 
ATOM     10 BR   UNL d   1     -47.873  14.082  22.647  0.00  0.00    -0.041 Br
ENDROOT
TORSDOF 0
ENDMDL
MODEL 4
REMARK VINA RESULT:      -5.3      1.053      1.572
REMARK  0 active torsions:
REMARK  status: ('A' for Active; 'I' for Inactive)
ROOT
ATOM      1  N   UNL d   1     -47.464  11.501  23.582  0.00  0.00    -0.169 NA
ATOM      2  C   UNL d   1     -46.930  12.104  23.412  0.00  0.00     0.199 A 
ATOM      3  C   UNL d   1     -47.182  12.859  23.196  0.00  0.00     0.130 A 
ATOM      4  N   UNL d   1     -48.535  12.427  23.313  0.00  0.00    -0.151 NA
ATOM      5  C   UNL d   1     -47.983  13.015  23.148  0.00  0.00     0.292 A 
ATOM      6  C   UNL d   1     -48.283  11.672  23.529  0.00  0.00     0.373 A 
ATOM      7  O   UNL d   1     -48.241  13.773  22.930  0.00  0.00    -0.264 OA
ATOM      8  O   UNL d   1     -48.831  11.073  23.698  0.00  0.00    -0.242 OA
ATOM      9  N   UNL d   1     -46.114  11.942  23.462  0.00  0.00    -0.126 N 
ATOM     10 BR   UNL d   1     -46.631  13.452  23.029  0.00  0.00    -0.041 Br
ENDROOT
TORSDOF 0
ENDMDL
MODEL 5
REMARK VINA RESULT:      -5.2      1.569      2.123
REMARK  0 active torsions:
REMARK  status: ('A' for Active; 'I' for Inactive)
ROOT
ATOM      1  N   UNL d   1     -47.825  13.140  22.073  0.00  0.00    -0.169 NA
ATOM      2  C   UNL d   1     -47.465  12.788  22.724  0.00  0.00     0.199 A 
ATOM      3  C   UNL d   1     -47.740  12.078  23.041  0.00  0.00     0.130 A 
ATOM      4  N   UNL d   1     -48.763  12.045  22.049  0.00  0.00    -0.151 NA
ATOM      5  C   UNL d   1     -48.387  11.712  22.702  0.00  0.00     0.292 A 
ATOM      6  C   UNL d   1     -48.488  12.755  21.732  0.00  0.00     0.373 A 
ATOM      7  O   UNL d   1     -48.666  10.997  23.018  0.00  0.00    -0.264 OA
ATOM      8  O   UNL d   1     -48.859  13.100  21.076  0.00  0.00    -0.242 OA
ATOM      9  N   UNL d   1     -46.806  13.165  23.068  0.00  0.00    -0.126 N 
ATOM     10 BR   UNL d   1     -47.366  11.740  23.696  0.00  0.00    -0.041 Br
ENDROOT
TORSDOF 0
ENDMDL
MODEL 6
REMARK VINA RESULT:      -5.1      1.957      2.607
REMARK  0 active torsions:
REMARK  status: ('A' for Active; 'I' for Inactive)
ROOT
ATOM      1  N   UNL d   1     -48.272  11.870  22.569  0.00  0.00    -0.169 NA
ATOM      2  C   UNL d   1     -48.850  12.262  22.134  0.00  0.00     0.199 A 
ATOM      3  C   UNL d   1     -49.646  12.242  22.353  0.00  0.00     0.130 A 
ATOM      4  N   UNL d   1     -49.306  11.425  23.470  0.00  0.00    -0.151 NA
ATOM      5  C   UNL d   1     -49.867  11.824  23.019  0.00  0.00     0.292 A 
ATOM      6  C   UNL d   1     -48.511  11.445  23.251  0.00  0.00     0.373 A 
ATOM      7  O   UNL d   1     -50.666  11.803  23.242  0.00  0.00    -0.264 OA
ATOM      8  O   UNL d   1     -47.937  11.046  23.698  0.00  0.00    -0.242 OA
ATOM      9  N   UNL d   1     -48.620  12.687  21.455  0.00  0.00    -0.126 N 
ATOM     10 BR   UNL d   1     -50.212  12.642  21.903  0.00  0.00    -0.041 Br
ENDROOT
TORSDOF 0
ENDMDL
MODEL 7
REMARK VINA RESULT:      -4.8      2.658      3.175
REMARK  0 active torsions:
REMARK  status: ('A' for Active; 'I' for Inactive)
ROOT
ATOM      1  N   UNL d   1     -50.574  12.719  22.371  0.00  0.00    -0.169 NA
ATOM      2  C   UNL d   1     -49.957  12.234  22.619  0.00  0.00     0.199 A 
ATOM      3  C   UNL d   1     -49.234  12.214  22.222  0.00  0.00     0.130 A 
ATOM      4  N   UNL d   1     -49.727  13.182  21.300  0.00  0.00    -0.151 NA
ATOM      5  C   UNL d   1     -49.125  12.688  21.566  0.00  0.00     0.292 A 
ATOM      6  C   UNL d   1     -50.450  13.201  21.696  0.00  0.00     0.373 A 
ATOM      7  O   UNL d   1     -48.399  12.671  21.164  0.00  0.00    -0.264 OA
ATOM      8  O   UNL d   1     -51.064  13.695  21.437  0.00  0.00    -0.242 OA
ATOM      9  N   UNL d   1     -50.072  11.752  23.290  0.00  0.00    -0.126 N 
ATOM     10 BR   UNL d   1     -48.627  11.720  22.486  0.00  0.00    -0.041 Br
ENDROOT
TORSDOF 0
ENDMDL
MODEL 8
REMARK VINA RESULT:      -4.7      9.278      9.820
REMARK  0 active torsions:
REMARK  status: ('A' for Active; 'I' for Inactive)
ROOT
ATOM      1  N   UNL d   1     -40.201  15.765  16.798  0.00  0.00    -0.169 NA
ATOM      2  C   UNL d   1     -39.624  15.345  17.208  0.00  0.00     0.199 A 
ATOM      3  C   UNL d   1     -39.811  14.682  17.662  0.00  0.00     0.130 A 
ATOM      4  N   UNL d   1     -41.182  14.839  17.306  0.00  0.00    -0.151 NA
ATOM      5  C   UNL d   1     -40.588  14.434  17.708  0.00  0.00     0.292 A 
ATOM      6  C   UNL d   1     -40.995  15.502  16.852  0.00  0.00     0.373 A 
ATOM      7  O   UNL d   1     -40.780  13.768  18.164  0.00  0.00    -0.264 OA
ATOM      8  O   UNL d   1     -41.585  15.918  16.443  0.00  0.00    -0.242 OA
ATOM      9  N   UNL d   1     -38.832  15.601  17.159  0.00  0.00    -0.126 N 
ATOM     10 BR   UNL d   1     -39.219  14.273  18.067  0.00  0.00    -0.041 Br
ENDROOT
TORSDOF 0
ENDMDL
MODEL 9
REMARK VINA RESULT:      -4.6      2.669      3.242
REMARK  0 active torsions:
REMARK  status: ('A' for Active; 'I' for Inactive)
ROOT
ATOM      1  N   UNL d   1     -48.289  13.621  21.947  0.00  0.00    -0.169 NA
ATOM      2  C   UNL d   1     -48.525  14.262  22.405  0.00  0.00     0.199 A 
ATOM      3  C   UNL d   1     -49.303  14.537  22.399  0.00  0.00     0.130 A 
ATOM      4  N   UNL d   1     -49.642  13.521  21.459  0.00  0.00    -0.151 NA
ATOM      5  C   UNL d   1     -49.855  14.165  21.926  0.00  0.00     0.292 A 
ATOM      6  C   UNL d   1     -48.864  13.246  21.465  0.00  0.00     0.373 A 
ATOM      7  O   UNL d   1     -50.639  14.438  21.917  0.00  0.00    -0.264 OA
ATOM      8  O   UNL d   1     -48.639  12.599  20.999  0.00  0.00    -0.242 OA
ATOM      9  N   UNL d   1     -47.959  14.640  22.886  0.00  0.00    -0.126 N 
ATOM     10 BR   UNL d   1     -49.521  15.183  22.866  0.00  0.00    -0.041 Br
ENDROOT
TORSDOF 0
ENDMDL
