MODEL 1
REMARK VINA RESULT:      41.9      0.000      0.000
REMARK  1 active torsions:
REMARK  status: ('A' for Active; 'I' for Inactive)
REMARK    1  A    between atoms: C_2  and  N_1 
ROOT
ATOM      1  C   UNL d   1      58.417  49.701  51.374  0.00  0.00     0.169 A 
ATOM      2  C   UNL d   1      57.681  49.702  51.046  0.00  0.00     0.060 A 
ATOM      3  C   UNL d   1      56.999  49.705  51.550  0.00  0.00     0.115 A 
ATOM      4  S   UNL d   1      56.334  49.706  51.077  0.00  0.00    -0.068 SA
ATOM      5  C   UNL d   1      57.395  49.702  50.277  0.00  0.00     0.011 A 
ATOM      6  N   UNL d   1      58.530  49.702  52.172  0.00  0.00    -0.208 NA
ATOM      7  N   UNL d   1      57.094  49.706  52.349  0.00  0.00    -0.220 NA
ATOM      8  C   UNL d   1      56.564  49.704  50.300  0.00  0.00     0.031 A 
ATOM      9  C   UNL d   1      57.860  49.705  52.707  0.00  0.00     0.165 A 
ATOM     10  C   UNL d   1      57.783  49.699  49.542  0.00  0.00     0.001 A 
ATOM     11  C   UNL d   1      56.131  49.704  49.603  0.00  0.00     0.006 A 
ATOM     12  C   UNL d   1      57.952  49.706  53.531  0.00  0.00     0.042 C 
ATOM     13  C   UNL d   1      57.329  49.699  48.853  0.00  0.00     0.000 A 
ATOM     14  C   UNL d   1      56.485  49.701  48.875  0.00  0.00     0.001 A 
ENDROOT
BRANCH   1  15
ATOM     15  N   UNL d   1      59.090  49.698  50.891  0.00  0.00    -0.193 N 
ATOM     16  N   UNL d   1      59.076  49.706  50.074  0.00  0.00    -0.058 NA
ATOM     17  N   UNL d   1      59.865  49.700  49.794  0.00  0.00    -0.129 NA
ATOM     18  C   UNL d   1      60.366  49.688  50.452  0.00  0.00     0.122 A 
ATOM     19  C   UNL d   1      59.908  49.687  51.123  0.00  0.00     0.105 A 
ATOM     20  C   UNL d   1      61.165  49.679  50.503  0.00  0.00     0.022 A 
ATOM     21  C   UNL d   1      60.221  49.676  51.852  0.00  0.00     0.021 A 
ATOM     22  C   UNL d   1      61.043  49.666  51.929  0.00  0.00     0.002 A 
ATOM     23  C   UNL d   1      61.516  49.668  51.241  0.00  0.00     0.002 A 
ENDBRANCH   1  15
TORSDOF 1
ENDMDL
