MODEL 1
REMARK VINA RESULT:      -3.2      0.000      0.000
REMARK  3 active torsions:
REMARK  status: ('A' for Active; 'I' for Inactive)
REMARK    1  A    between atoms: C_4  and  C_1 
REMARK       I    between atoms: N_6  and  C_4 
REMARK    2  A    between atoms: C_8  and  C_5 
REMARK    3  A    between atoms: C_7  and  N_6 
ROOT
ATOM      1  C   UNL d   1      32.910  18.982 -23.108  0.00  0.00     0.192 A 
ATOM      2  C   UNL d   1      32.268  18.652 -24.354  0.00  0.00     0.296 A 
ATOM      3  O   UNL d   1      32.581  19.222 -23.837  0.00  0.00    -0.290 OA
ATOM      4  C   UNL d   1      32.280  17.849 -24.154  0.00  0.00     0.063 A 
ATOM      5  C   UNL d   1      32.612  17.617 -23.424  0.00  0.00     0.004 A 
ATOM      6  C   UNL d   1      32.925  18.178 -22.904  0.00  0.00     0.010 A 
ATOM      7  O   UNL d   1      31.943  18.889 -25.072  0.00  0.00    -0.259 OA
ATOM      8  C   UNL d   1      33.233  18.737 -22.393  0.00  0.00     0.045 C 
ATOM      9  C   UNL d   1      32.624  16.813 -23.223  0.00  0.00    -0.000 A 
ATOM     10  C   UNL d   1      31.972  17.289 -24.665  0.00  0.00     0.005 A 
ATOM     11  C   UNL d   1      32.311  16.257 -23.745  0.00  0.00    -0.000 A 
ATOM     12  C   UNL d   1      31.986  16.494 -24.462  0.00  0.00     0.000 A 
ENDROOT
BRANCH   1  13
ATOM     13  C   UNL d   1      32.991  19.794 -23.120  0.00  0.00     0.285 C 
ATOM     14  N   UNL d   1      32.823  20.234 -22.443  0.00  0.00    -0.209 NA
ATOM     15  O   UNL d   1      33.241  20.172 -23.810  0.00  0.00    -0.267 OA
BRANCH  14  16
ATOM     16  C   UNL d   1      32.906  21.053 -22.460  0.00  0.00     0.090 A 
ATOM     17  C   UNL d   1      32.738  21.491 -21.790  0.00  0.00     0.082 A 
ATOM     18  C   UNL d   1      32.821  22.312 -21.805  0.00  0.00     0.008 A 
ATOM     19  C   UNL d   1      33.072  22.689 -22.494  0.00  0.00     0.000 A 
ATOM     20  C   UNL d   1      33.241  22.241 -23.168  0.00  0.00     0.002 A 
ATOM     21  C   UNL d   1      33.156  21.425 -23.144  0.00  0.00     0.019 A 
BRANCH  17  22
ATOM     22  C   UNL d   1      32.486  21.110 -21.101  0.00  0.00     0.212 C 
ATOM     23  O   UNL d   1      33.046  20.834 -20.559  0.00  0.00    -0.644 OA
ATOM     24  O   UNL d   1      31.688  21.010 -20.958  0.00  0.00    -0.644 OA
ENDBRANCH  17  22
ENDBRANCH  14  16
ENDBRANCH   1  13
TORSDOF 3
ENDMDL
MODEL 2
REMARK VINA RESULT:      -3.0      0.917      4.416
REMARK  3 active torsions:
REMARK  status: ('A' for Active; 'I' for Inactive)
REMARK    1  A    between atoms: C_4  and  C_1 
REMARK       I    between atoms: N_6  and  C_4 
REMARK    2  A    between atoms: C_8  and  C_5 
REMARK    3  A    between atoms: C_7  and  N_6 
ROOT
ATOM      1  C   UNL d   1      33.041  19.923 -22.884  0.00  0.00     0.192 A 
ATOM      2  C   UNL d   1      32.767  20.412 -21.557  0.00  0.00     0.296 A 
ATOM      3  O   UNL d   1      32.839  19.776 -22.087  0.00  0.00    -0.290 OA
ATOM      4  C   UNL d   1      32.894  21.190 -21.813  0.00  0.00     0.063 A 
ATOM      5  C   UNL d   1      33.095  21.328 -22.611  0.00  0.00     0.004 A 
ATOM      6  C   UNL d   1      33.169  20.700 -23.144  0.00  0.00     0.010 A 
ATOM      7  O   UNL d   1      32.568  20.267 -20.773  0.00  0.00    -0.259 OA
ATOM      8  C   UNL d   1      33.240  20.075 -23.667  0.00  0.00     0.045 C 
ATOM      9  C   UNL d   1      33.222  22.105 -22.866  0.00  0.00    -0.000 A 
ATOM     10  C   UNL d   1      32.822  21.815 -21.290  0.00  0.00     0.005 A 
ATOM     11  C   UNL d   1      33.147  22.728 -22.331  0.00  0.00    -0.000 A 
ATOM     12  C   UNL d   1      32.949  22.583 -21.547  0.00  0.00     0.000 A 
ENDROOT
BRANCH   1  13
ATOM     13  C   UNL d   1      32.960  19.112 -22.832  0.00  0.00     0.285 C 
ATOM     14  N   UNL d   1      32.598  18.694 -23.444  0.00  0.00    -0.209 NA
ATOM     15  O   UNL d   1      33.241  18.713 -22.165  0.00  0.00    -0.267 OA
BRANCH  14  16
ATOM     16  C   UNL d   1      32.519  17.876 -23.386  0.00  0.00     0.090 A 
ATOM     17  C   UNL d   1      31.928  17.497 -23.803  0.00  0.00     0.082 A 
ATOM     18  C   UNL d   1      31.846  16.677 -23.747  0.00  0.00     0.008 A 
ATOM     19  C   UNL d   1      32.361  16.244 -23.271  0.00  0.00     0.000 A 
ATOM     20  C   UNL d   1      32.958  16.633 -22.851  0.00  0.00     0.002 A 
ATOM     21  C   UNL d   1      33.031  17.449 -22.914  0.00  0.00     0.019 A 
BRANCH  17  22
ATOM     22  C   UNL d   1      31.412  17.934 -24.280  0.00  0.00     0.212 C 
ATOM     23  O   UNL d   1      30.693  18.197 -23.970  0.00  0.00    -0.644 OA
ATOM     24  O   UNL d   1      31.616  18.104 -25.053  0.00  0.00    -0.644 OA
ENDBRANCH  17  22
ENDBRANCH  14  16
ENDBRANCH   1  13
TORSDOF 3
ENDMDL
MODEL 3
REMARK VINA RESULT:      -2.0      1.300      4.289
REMARK  3 active torsions:
REMARK  status: ('A' for Active; 'I' for Inactive)
REMARK    1  A    between atoms: C_4  and  C_1 
REMARK       I    between atoms: N_6  and  C_4 
REMARK    2  A    between atoms: C_8  and  C_5 
REMARK    3  A    between atoms: C_7  and  N_6 
ROOT
ATOM      1  C   UNL d   1      33.058  20.890 -21.877  0.00  0.00     0.192 A 
ATOM      2  C   UNL d   1      32.758  22.291 -22.014  0.00  0.00     0.296 A 
ATOM      3  O   UNL d   1      32.898  21.550 -22.362  0.00  0.00    -0.290 OA
ATOM      4  C   UNL d   1      32.775  22.381 -21.191  0.00  0.00     0.063 A 
ATOM      5  C   UNL d   1      32.936  21.715 -20.713  0.00  0.00     0.004 A 
ATOM      6  C   UNL d   1      33.077  20.975 -21.051  0.00  0.00     0.010 A 
ATOM      7  O   UNL d   1      32.600  22.941 -22.492  0.00  0.00    -0.259 OA
ATOM      8  C   UNL d   1      33.215  20.244 -21.392  0.00  0.00     0.045 C 
ATOM      9  C   UNL d   1      32.953  21.805 -19.890  0.00  0.00    -0.000 A 
ATOM     10  C   UNL d   1      32.637  23.111 -20.850  0.00  0.00     0.005 A 
ATOM     11  C   UNL d   1      32.812  22.545 -19.556  0.00  0.00    -0.000 A 
ATOM     12  C   UNL d   1      32.655  23.195 -20.034  0.00  0.00     0.000 A 
ENDROOT
BRANCH   1  13
ATOM     13  C   UNL d   1      33.085  20.602 -22.641  0.00  0.00     0.285 C 
ATOM     14  N   UNL d   1      32.983  19.796 -22.781  0.00  0.00    -0.209 NA
ATOM     15  O   UNL d   1      33.215  21.122 -23.270  0.00  0.00    -0.267 OA
BRANCH  14  16
ATOM     16  C   UNL d   1      33.011  19.512 -23.554  0.00  0.00     0.090 A 
ATOM     17  C   UNL d   1      32.840  18.727 -23.703  0.00  0.00     0.082 A 
ATOM     18  C   UNL d   1      32.867  18.440 -24.476  0.00  0.00     0.008 A 
ATOM     19  C   UNL d   1      33.067  18.945 -25.097  0.00  0.00     0.000 A 
ATOM     20  C   UNL d   1      33.239  19.739 -24.941  0.00  0.00     0.002 A 
ATOM     21  C   UNL d   1      33.209  20.015 -24.167  0.00  0.00     0.019 A 
BRANCH  17  22
ATOM     22  C   UNL d   1      32.640  18.223 -23.079  0.00  0.00     0.212 C 
ATOM     23  O   UNL d   1      33.237  17.823 -22.670  0.00  0.00    -0.644 OA
ATOM     24  O   UNL d   1      31.856  18.122 -22.870  0.00  0.00    -0.644 OA
ENDBRANCH  17  22
ENDBRANCH  14  16
ENDBRANCH   1  13
TORSDOF 3
ENDMDL
MODEL 4
REMARK VINA RESULT:      -1.8      1.436      4.528
REMARK  3 active torsions:
REMARK  status: ('A' for Active; 'I' for Inactive)
REMARK    1  A    between atoms: C_4  and  C_1 
REMARK       I    between atoms: N_6  and  C_4 
REMARK    2  A    between atoms: C_8  and  C_5 
REMARK    3  A    between atoms: C_7  and  N_6 
ROOT
ATOM      1  C   UNL d   1      32.623  19.016 -24.382  0.00  0.00     0.192 A 
ATOM      2  C   UNL d   1      32.982  19.070 -22.989  0.00  0.00     0.296 A 
ATOM      3  O   UNL d   1      32.786  18.625 -23.662  0.00  0.00    -0.290 OA
ATOM      4  C   UNL d   1      33.016  19.897 -23.025  0.00  0.00     0.063 A 
ATOM      5  C   UNL d   1      32.851  20.280 -23.748  0.00  0.00     0.004 A 
ATOM      6  C   UNL d   1      32.655  19.844 -24.423  0.00  0.00     0.010 A 
ATOM      7  O   UNL d   1      33.143  18.686 -22.280  0.00  0.00    -0.259 OA
ATOM      8  C   UNL d   1      32.463  19.407 -25.087  0.00  0.00     0.045 C 
ATOM      9  C   UNL d   1      32.884  21.106 -23.784  0.00  0.00    -0.000 A 
ATOM     10  C   UNL d   1      33.208  20.334 -22.361  0.00  0.00     0.005 A 
ATOM     11  C   UNL d   1      33.080  21.537 -23.109  0.00  0.00    -0.000 A 
ATOM     12  C   UNL d   1      33.241  21.153 -22.401  0.00  0.00     0.000 A 
ENDROOT
BRANCH   1  13
ATOM     13  C   UNL d   1      32.539  18.220 -24.549  0.00  0.00     0.285 C 
ATOM     14  N   UNL d   1      31.793  17.869 -24.513  0.00  0.00    -0.209 NA
ATOM     15  O   UNL d   1      33.202  17.772 -24.751  0.00  0.00    -0.267 OA
BRANCH  14  16
ATOM     16  C   UNL d   1      31.715  17.067 -24.682  0.00  0.00     0.090 A 
ATOM     17  C   UNL d   1      30.984  16.708 -24.609  0.00  0.00     0.082 A 
ATOM     18  C   UNL d   1      30.903  15.904 -24.777  0.00  0.00     0.008 A 
ATOM     19  C   UNL d   1      31.557  15.465 -25.019  0.00  0.00     0.000 A 
ATOM     20  C   UNL d   1      32.294  15.833 -25.092  0.00  0.00     0.002 A 
ATOM     21  C   UNL d   1      32.365  16.634 -24.922  0.00  0.00     0.019 A 
BRANCH  17  22
ATOM     22  C   UNL d   1      30.329  17.150 -24.366  0.00  0.00     0.212 C 
ATOM     23  O   UNL d   1      29.857  17.525 -24.932  0.00  0.00    -0.644 OA
ATOM     24  O   UNL d   1      30.152  17.215 -23.571  0.00  0.00    -0.644 OA
ENDBRANCH  17  22
ENDBRANCH  14  16
ENDBRANCH   1  13
TORSDOF 3
ENDMDL
MODEL 5
REMARK VINA RESULT:      -1.7      1.341      2.266
REMARK  3 active torsions:
REMARK  status: ('A' for Active; 'I' for Inactive)
REMARK    1  A    between atoms: C_4  and  C_1 
REMARK       I    between atoms: N_6  and  C_4 
REMARK    2  A    between atoms: C_8  and  C_5 
REMARK    3  A    between atoms: C_7  and  N_6 
ROOT
ATOM      1  C   UNL d   1      33.140  20.397 -22.770  0.00  0.00     0.192 A 
ATOM      2  C   UNL d   1      33.001  18.976 -22.579  0.00  0.00     0.296 A 
ATOM      3  O   UNL d   1      33.038  19.743 -22.261  0.00  0.00    -0.290 OA
ATOM      4  C   UNL d   1      33.064  18.856 -23.396  0.00  0.00     0.063 A 
ATOM      5  C   UNL d   1      33.166  19.515 -23.898  0.00  0.00     0.004 A 
ATOM      6  C   UNL d   1      33.204  20.281 -23.589  0.00  0.00     0.010 A 
ATOM      7  O   UNL d   1      32.900  18.332 -22.078  0.00  0.00    -0.259 OA
ATOM      8  C   UNL d   1      33.241  21.036 -23.277  0.00  0.00     0.045 C 
ATOM      9  C   UNL d   1      33.230  19.395 -24.715  0.00  0.00    -0.000 A 
ATOM     10  C   UNL d   1      33.028  18.101 -23.708  0.00  0.00     0.005 A 
ATOM     11  C   UNL d   1      33.192  18.629 -25.019  0.00  0.00    -0.000 A 
ATOM     12  C   UNL d   1      33.091  17.985 -24.518  0.00  0.00     0.000 A 
ENDROOT
BRANCH   1  13
ATOM     13  C   UNL d   1      33.100  20.717 -22.019  0.00  0.00     0.285 C 
ATOM     14  N   UNL d   1      32.919  21.515 -21.921  0.00  0.00    -0.209 NA
ATOM     15  O   UNL d   1      33.241  20.238 -21.361  0.00  0.00    -0.267 OA
BRANCH  14  16
ATOM     16  C   UNL d   1      32.879  21.832 -21.162  0.00  0.00     0.090 A 
ATOM     17  C   UNL d   1      32.669  22.615 -21.061  0.00  0.00     0.082 A 
ATOM     18  C   UNL d   1      32.629  22.935 -20.301  0.00  0.00     0.008 A 
ATOM     19  C   UNL d   1      32.801  22.465 -19.646  0.00  0.00     0.000 A 
ATOM     20  C   UNL d   1      33.012  21.673 -19.754  0.00  0.00     0.002 A 
ATOM     21  C   UNL d   1      33.050  21.364 -20.514  0.00  0.00     0.019 A 
BRANCH  17  22
ATOM     22  C   UNL d   1      32.498  23.085 -21.720  0.00  0.00     0.212 C 
ATOM     23  O   UNL d   1      33.095  23.543 -22.061  0.00  0.00    -0.644 OA
ATOM     24  O   UNL d   1      31.741  23.094 -22.028  0.00  0.00    -0.644 OA
ENDBRANCH  17  22
ENDBRANCH  14  16
ENDBRANCH   1  13
TORSDOF 3
ENDMDL
MODEL 6
REMARK VINA RESULT:      -1.5      3.156      5.249
REMARK  3 active torsions:
REMARK  status: ('A' for Active; 'I' for Inactive)
REMARK    1  A    between atoms: C_4  and  C_1 
REMARK       I    between atoms: N_6  and  C_4 
REMARK    2  A    between atoms: C_8  and  C_5 
REMARK    3  A    between atoms: C_7  and  N_6 
ROOT
ATOM      1  C   UNL d   1      30.557  17.321 -24.564  0.00  0.00     0.192 A 
ATOM      2  C   UNL d   1      31.423  16.729 -23.577  0.00  0.00     0.296 A 
ATOM      3  O   UNL d   1      30.722  16.708 -24.021  0.00  0.00    -0.290 OA
ATOM      4  C   UNL d   1      31.961  17.353 -23.668  0.00  0.00     0.063 A 
ATOM      5  C   UNL d   1      31.789  17.962 -24.213  0.00  0.00     0.004 A 
ATOM      6  C   UNL d   1      31.093  17.948 -24.658  0.00  0.00     0.010 A 
ATOM      7  O   UNL d   1      31.585  16.126 -23.043  0.00  0.00    -0.259 OA
ATOM      8  C   UNL d   1      30.403  17.928 -25.096  0.00  0.00     0.045 C 
ATOM      9  C   UNL d   1      32.326  18.586 -24.303  0.00  0.00    -0.000 A 
ATOM     10  C   UNL d   1      32.651  17.373 -23.230  0.00  0.00     0.005 A 
ATOM     11  C   UNL d   1      33.019  18.596 -23.857  0.00  0.00    -0.000 A 
ATOM     12  C   UNL d   1      33.181  17.992 -23.322  0.00  0.00     0.000 A 
ENDROOT
BRANCH   1  13
ATOM     13  C   UNL d   1      29.921  16.812 -24.620  0.00  0.00     0.285 C 
ATOM     14  N   UNL d   1      29.209  17.001 -24.248  0.00  0.00    -0.209 NA
ATOM     15  O   UNL d   1      29.993  16.111 -25.049  0.00  0.00    -0.267 OA
BRANCH  14  16
ATOM     16  C   UNL d   1      28.571  16.484 -24.307  0.00  0.00     0.090 A 
ATOM     17  C   UNL d   1      27.992  16.488 -23.730  0.00  0.00     0.082 A 
ATOM     18  C   UNL d   1      27.351  15.971 -23.788  0.00  0.00     0.008 A 
ATOM     19  C   UNL d   1      27.296  15.453 -24.427  0.00  0.00     0.000 A 
ATOM     20  C   UNL d   1      27.884  15.453 -25.008  0.00  0.00     0.002 A 
ATOM     21  C   UNL d   1      28.518  15.971 -24.942  0.00  0.00     0.019 A 
BRANCH  17  22
ATOM     22  C   UNL d   1      28.050  17.009 -23.091  0.00  0.00     0.212 C 
ATOM     23  O   UNL d   1      27.856  17.806 -23.194  0.00  0.00    -0.644 OA
ATOM     24  O   UNL d   1      28.299  16.735 -22.362  0.00  0.00    -0.644 OA
ENDBRANCH  17  22
ENDBRANCH  14  16
ENDBRANCH   1  13
TORSDOF 3
ENDMDL
MODEL 7
REMARK VINA RESULT:      -0.5      2.437      3.614
REMARK  3 active torsions:
REMARK  status: ('A' for Active; 'I' for Inactive)
REMARK    1  A    between atoms: C_4  and  C_1 
REMARK       I    between atoms: N_6  and  C_4 
REMARK    2  A    between atoms: C_8  and  C_5 
REMARK    3  A    between atoms: C_7  and  N_6 
ROOT
ATOM      1  C   UNL d   1      30.436  16.952 -24.210  0.00  0.00     0.192 A 
ATOM      2  C   UNL d   1      29.203  17.629 -23.902  0.00  0.00     0.296 A 
ATOM      3  O   UNL d   1      30.001  17.660 -24.130  0.00  0.00    -0.290 OA
ATOM      4  C   UNL d   1      28.836  16.901 -23.753  0.00  0.00     0.063 A 
ATOM      5  C   UNL d   1      29.278  16.198 -23.834  0.00  0.00     0.004 A 
ATOM      6  C   UNL d   1      30.073  16.221 -24.061  0.00  0.00     0.010 A 
ATOM      7  O   UNL d   1      28.775  18.326 -23.824  0.00  0.00    -0.259 OA
ATOM      8  C   UNL d   1      30.858  16.251 -24.286  0.00  0.00     0.045 C 
ATOM      9  C   UNL d   1      28.911  15.471 -23.685  0.00  0.00    -0.000 A 
ATOM     10  C   UNL d   1      28.050  16.872 -23.528  0.00  0.00     0.005 A 
ATOM     11  C   UNL d   1      28.118  15.452 -23.459  0.00  0.00    -0.000 A 
ATOM     12  C   UNL d   1      27.690  16.150 -23.381  0.00  0.00     0.000 A 
ENDROOT
BRANCH   1  13
ATOM     13  C   UNL d   1      30.964  17.547 -24.396  0.00  0.00     0.285 C 
ATOM     14  N   UNL d   1      31.647  17.648 -23.946  0.00  0.00    -0.209 NA
ATOM     15  O   UNL d   1      30.810  18.046 -25.036  0.00  0.00    -0.267 OA
BRANCH  14  16
ATOM     16  C   UNL d   1      32.176  18.249 -24.138  0.00  0.00     0.090 A 
ATOM     17  C   UNL d   1      32.683  18.540 -23.568  0.00  0.00     0.082 A 
ATOM     18  C   UNL d   1      33.214  19.143 -23.758  0.00  0.00     0.008 A 
ATOM     19  C   UNL d   1      33.231  19.450 -24.523  0.00  0.00     0.000 A 
ATOM     20  C   UNL d   1      32.715  19.153 -25.097  0.00  0.00     0.002 A 
ATOM     21  C   UNL d   1      32.191  18.552 -24.898  0.00  0.00     0.019 A 
BRANCH  17  22
ATOM     22  C   UNL d   1      32.664  18.230 -22.801  0.00  0.00     0.212 C 
ATOM     23  O   UNL d   1      33.066  17.527 -22.635  0.00  0.00    -0.644 OA
ATOM     24  O   UNL d   1      32.249  18.619 -22.214  0.00  0.00    -0.644 OA
ENDBRANCH  17  22
ENDBRANCH  14  16
ENDBRANCH   1  13
TORSDOF 3
ENDMDL
