MODEL 1
REMARK VINA RESULT:      -9.8      0.000      0.000
REMARK  5 active torsions:
REMARK  status: ('A' for Active; 'I' for Inactive)
REMARK    1  A    between atoms: C_12  and  C_3 
REMARK    2  A    between atoms: C_14  and  N_5 
REMARK    3  A    between atoms: C_11  and  C_6 
REMARK    4  A    between atoms: O_25  and  C_12 
REMARK    5  A    between atoms: C_24  and  C_14 
ROOT
ATOM      1  C   UNL d   1      52.944  32.256  53.362  0.00  0.00     0.080 A 
ATOM      2  C   UNL d   1      53.458  31.640  53.567  0.00  0.00     0.267 A 
ATOM      3  C   UNL d   1      52.606  33.651  53.363  0.00  0.00     0.106 A 
ATOM      4  C   UNL d   1      52.244  32.094  52.944  0.00  0.00     0.108 A 
ATOM      5  N   UNL d   1      53.272  30.858  53.354  0.00  0.00    -0.271 N 
ATOM      6  C   UNL d   1      53.120  33.034  53.569  0.00  0.00     0.015 A 
ATOM      7  C   UNL d   1      51.914  33.487  52.949  0.00  0.00     0.208 A 
ATOM      8  O   UNL d   1      51.724  32.704  52.734  0.00  0.00    -0.288 OA
ATOM      9  C   UNL d   1      52.060  31.317  52.732  0.00  0.00     0.043 A 
ATOM     10  C   UNL d   1      52.571  30.696  52.936  0.00  0.00     0.069 A 
ATOM     11  O   UNL d   1      54.152  31.800  53.982  0.00  0.00    -0.267 OA
ATOM     12  N   UNL d   1      51.396  34.101  52.742  0.00  0.00    -0.121 N 
ATOM     13  C   UNL d   1      52.386  29.924  52.724  0.00  0.00     0.019 C 
ENDROOT
BRANCH   6  14
ATOM     14  C   UNL d   1      53.813  33.199  53.983  0.00  0.00     0.001 A 
ATOM     15  C   UNL d   1      53.803  33.199  54.809  0.00  0.00     0.012 A 
ATOM     16  C   UNL d   1      54.496  33.364  55.224  0.00  0.00     0.068 A 
ATOM     17 CL   UNL d   1      54.489  33.364  56.046  0.00  0.00    -0.082 Cl
ATOM     18  C   UNL d   1      55.193  33.528  54.821  0.00  0.00     0.068 A 
ATOM     19  C   UNL d   1      55.193  33.526  53.985  0.00  0.00     0.012 A 
ATOM     20 CL   UNL d   1      55.887  33.694  55.232  0.00  0.00    -0.082 Cl
ATOM     21  C   UNL d   1      54.499  33.361  53.573  0.00  0.00     0.001 A 
ENDBRANCH   6  14
BRANCH   3  22
ATOM     22  C   UNL d   1      52.784  34.421  53.571  0.00  0.00     0.299 C 
ATOM     23  O   UNL d   1      53.286  34.873  53.098  0.00  0.00    -0.259 OA
BRANCH  22  24
ATOM     24  O   UNL d   1      52.464  34.753  54.252  0.00  0.00    -0.296 OA
ATOM     25  C   UNL d   1      52.393  35.574  54.324  0.00  0.00     0.185 C 
ENDBRANCH  22  24
ENDBRANCH   3  22
BRANCH   5  26
ATOM     26  C   UNL d   1      53.773  30.244  53.553  0.00  0.00     0.108 C 
BRANCH  26  27
ATOM     27  C   UNL d   1      53.591  29.744  54.179  0.00  0.00     0.118 A 
ATOM     28  O   UNL d   1      53.305  29.970  54.909  0.00  0.00    -0.304 OA
ATOM     29  C   UNL d   1      53.199  29.295  55.366  0.00  0.00     0.123 A 
ATOM     30  C   UNL d   1      53.421  28.639  54.916  0.00  0.00     0.029 A 
ATOM     31  C   UNL d   1      53.665  28.922  54.178  0.00  0.00     0.028 A 
ENDBRANCH  26  27
ENDBRANCH   5  26
TORSDOF 5
ENDMDL
MODEL 2
REMARK VINA RESULT:      -8.2      1.880      2.808
REMARK  5 active torsions:
REMARK  status: ('A' for Active; 'I' for Inactive)
REMARK    1  A    between atoms: C_12  and  C_3 
REMARK    2  A    between atoms: C_14  and  N_5 
REMARK    3  A    between atoms: C_11  and  C_6 
REMARK    4  A    between atoms: O_25  and  C_12 
REMARK    5  A    between atoms: C_24  and  C_14 
ROOT
ATOM      1  C   UNL d   1      53.308  32.923  53.583  0.00  0.00     0.080 A 
ATOM      2  C   UNL d   1      52.925  32.315  53.171  0.00  0.00     0.267 A 
ATOM      3  C   UNL d   1      53.335  34.271  54.075  0.00  0.00     0.106 A 
ATOM      4  C   UNL d   1      54.057  32.793  53.920  0.00  0.00     0.108 A 
ATOM      5  N   UNL d   1      53.292  31.573  53.095  0.00  0.00    -0.271 N 
ATOM      6  C   UNL d   1      52.953  33.663  53.664  0.00  0.00     0.015 A 
ATOM      7  C   UNL d   1      54.076  34.138  54.408  0.00  0.00     0.208 A 
ATOM      8  O   UNL d   1      54.448  33.395  54.334  0.00  0.00    -0.288 OA
ATOM      9  C   UNL d   1      54.420  32.055  53.844  0.00  0.00     0.043 A 
ATOM     10  C   UNL d   1      54.041  31.442  53.432  0.00  0.00     0.069 A 
ATOM     11  O   UNL d   1      52.183  32.445  52.837  0.00  0.00    -0.267 OA
ATOM     12  N   UNL d   1      54.464  34.744  54.821  0.00  0.00    -0.121 N 
ATOM     13  C   UNL d   1      54.404  30.709  53.358  0.00  0.00     0.019 C 
ENDROOT
BRANCH   6  14
ATOM     14  C   UNL d   1      52.211  33.797  53.331  0.00  0.00     0.001 A 
ATOM     15  C   UNL d   1      52.155  34.069  52.553  0.00  0.00     0.012 A 
ATOM     16  C   UNL d   1      51.414  34.203  52.220  0.00  0.00     0.068 A 
ATOM     17 CL   UNL d   1      51.356  34.473  51.446  0.00  0.00    -0.082 Cl
ATOM     18  C   UNL d   1      50.731  34.068  52.658  0.00  0.00     0.068 A 
ATOM     19  C   UNL d   1      50.796  33.793  53.444  0.00  0.00     0.012 A 
ATOM     20 CL   UNL d   1      49.988  34.201  52.329  0.00  0.00    -0.082 Cl
ATOM     21  C   UNL d   1      51.540  33.660  53.774  0.00  0.00     0.001 A 
ENDBRANCH   6  14
BRANCH   3  22
ATOM     22  C   UNL d   1      52.979  35.003  54.153  0.00  0.00     0.299 C 
ATOM     23  O   UNL d   1      53.009  35.547  53.534  0.00  0.00    -0.259 OA
BRANCH  22  24
ATOM     24  O   UNL d   1      52.589  35.204  54.849  0.00  0.00    -0.296 OA
ATOM     25  C   UNL d   1      52.555  35.992  55.098  0.00  0.00     0.185 C 
ENDBRANCH  22  24
ENDBRANCH   3  22
BRANCH   5  26
ATOM     26  C   UNL d   1      52.921  30.967  52.690  0.00  0.00     0.108 C 
BRANCH  26  27
ATOM     27  C   UNL d   1      52.530  30.372  53.100  0.00  0.00     0.118 A 
ATOM     28  O   UNL d   1      51.777  30.413  53.411  0.00  0.00    -0.304 OA
ATOM     29  C   UNL d   1      51.606  29.696  53.774  0.00  0.00     0.123 A 
ATOM     30  C   UNL d   1      52.261  29.200  53.690  0.00  0.00     0.029 A 
ATOM     31  C   UNL d   1      52.834  29.624  53.270  0.00  0.00     0.028 A 
ENDBRANCH  26  27
ENDBRANCH   5  26
TORSDOF 5
ENDMDL
MODEL 3
REMARK VINA RESULT:      -6.9      0.779      3.634
REMARK  5 active torsions:
REMARK  status: ('A' for Active; 'I' for Inactive)
REMARK    1  A    between atoms: C_12  and  C_3 
REMARK    2  A    between atoms: C_14  and  N_5 
REMARK    3  A    between atoms: C_11  and  C_6 
REMARK    4  A    between atoms: O_25  and  C_12 
REMARK    5  A    between atoms: C_24  and  C_14 
ROOT
ATOM      1  C   UNL d   1      52.647  32.766  53.147  0.00  0.00     0.080 A 
ATOM      2  C   UNL d   1      52.769  33.584  53.192  0.00  0.00     0.267 A 
ATOM      3  C   UNL d   1      53.081  31.423  53.407  0.00  0.00     0.106 A 
ATOM      4  C   UNL d   1      51.957  32.466  52.790  0.00  0.00     0.108 A 
ATOM      5  N   UNL d   1      52.201  34.105  52.880  0.00  0.00    -0.271 N 
ATOM      6  C   UNL d   1      53.204  32.241  53.453  0.00  0.00     0.015 A 
ATOM      7  C   UNL d   1      52.398  31.130  53.054  0.00  0.00     0.208 A 
ATOM      8  O   UNL d   1      51.826  31.649  52.740  0.00  0.00    -0.288 OA
ATOM      9  C   UNL d   1      51.394  32.985  52.481  0.00  0.00     0.043 A 
ATOM     10  C   UNL d   1      51.512  33.805  52.524  0.00  0.00     0.069 A 
ATOM     11  O   UNL d   1      53.452  33.881  53.545  0.00  0.00    -0.267 OA
ATOM     12  N   UNL d   1      52.271  30.311  53.007  0.00  0.00    -0.121 N 
ATOM     13  C   UNL d   1      50.950  34.319  52.216  0.00  0.00     0.019 C 
ENDROOT
BRANCH   6  14
ATOM     14  C   UNL d   1      53.888  32.534  53.806  0.00  0.00     0.001 A 
ATOM     15  C   UNL d   1      53.898  32.675  54.620  0.00  0.00     0.012 A 
ATOM     16  C   UNL d   1      54.582  32.967  54.975  0.00  0.00     0.068 A 
ATOM     17 CL   UNL d   1      54.594  33.108  55.784  0.00  0.00    -0.082 Cl
ATOM     18  C   UNL d   1      55.252  33.119  54.523  0.00  0.00     0.068 A 
ATOM     19  C   UNL d   1      55.232  32.974  53.700  0.00  0.00     0.012 A 
ATOM     20 CL   UNL d   1      55.936  33.412  54.873  0.00  0.00    -0.082 Cl
ATOM     21  C   UNL d   1      54.547  32.681  53.349  0.00  0.00     0.001 A 
ENDBRANCH   6  14
BRANCH   3  22
ATOM     22  C   UNL d   1      53.636  30.906  53.712  0.00  0.00     0.299 C 
ATOM     23  O   UNL d   1      54.332  30.753  53.298  0.00  0.00    -0.259 OA
BRANCH  22  24
ATOM     24  O   UNL d   1      53.506  30.535  54.434  0.00  0.00    -0.296 OA
ATOM     25  C   UNL d   1      53.702  29.737  54.536  0.00  0.00     0.185 C 
ENDBRANCH  22  24
ENDBRANCH   3  22
BRANCH   5  26
ATOM     26  C   UNL d   1      52.314  34.913  52.921  0.00  0.00     0.108 C 
BRANCH  26  27
ATOM     27  C   UNL d   1      52.300  35.299  53.647  0.00  0.00     0.118 A 
ATOM     28  O   UNL d   1      51.701  35.265  54.199  0.00  0.00    -0.304 OA
ATOM     29  C   UNL d   1      51.914  35.732  54.841  0.00  0.00     0.123 A 
ATOM     30  C   UNL d   1      52.655  36.061  54.689  0.00  0.00     0.029 A 
ATOM     31  C   UNL d   1      52.892  35.790  53.944  0.00  0.00     0.028 A 
ENDBRANCH  26  27
ENDBRANCH   5  26
TORSDOF 5
ENDMDL
