MODEL 1
REMARK VINA RESULT:      -9.5      0.000      0.000
REMARK  0 active torsions:
REMARK  status: ('A' for Active; 'I' for Inactive)
ROOT
ATOM      1  N   UNL d   1      52.734  33.783  53.589  0.00  0.00    -0.300 N 
ATOM      2  C   UNL d   1      52.762  32.487  53.002  0.00  0.00     0.295 A 
ATOM      3  N   UNL d   1      53.388  32.284  53.512  0.00  0.00    -0.205 NA
ATOM      4  C   UNL d   1      52.432  33.242  53.039  0.00  0.00     0.123 A 
ATOM      5  C   UNL d   1      53.342  33.585  54.086  0.00  0.00     0.082 A 
ATOM      6  C   UNL d   1      53.673  32.839  54.052  0.00  0.00     0.101 A 
ATOM      7  O   UNL d   1      52.467  31.960  52.464  0.00  0.00    -0.264 OA
ATOM      8  C   UNL d   1      52.311  34.470  53.505  0.00  0.00     0.080 A 
ATOM      9  C   UNL d   1      51.819  33.611  52.620  0.00  0.00     0.024 A 
ATOM     10  C   UNL d   1      53.627  34.149  54.629  0.00  0.00     0.019 A 
ATOM     11  C   UNL d   1      54.299  32.636  54.563  0.00  0.00     0.021 A 
ATOM     12  C   UNL d   1      51.749  34.392  52.922  0.00  0.00     0.021 A 
ATOM     13  C   UNL d   1      54.253  33.946  55.140  0.00  0.00     0.002 A 
ATOM     14  C   UNL d   1      54.574  33.199  55.097  0.00  0.00     0.002 A 
ENDROOT
TORSDOF 0
ENDMDL
MODEL 2
REMARK VINA RESULT:      -9.3      0.853      1.937
REMARK  0 active torsions:
REMARK  status: ('A' for Active; 'I' for Inactive)
ROOT
ATOM      1  N   UNL d   1      53.453  31.927  53.761  0.00  0.00    -0.300 N 
ATOM      2  C   UNL d   1      52.579  32.690  52.937  0.00  0.00     0.295 A 
ATOM      3  N   UNL d   1      52.816  33.377  53.345  0.00  0.00    -0.205 NA
ATOM      4  C   UNL d   1      52.900  31.960  53.146  0.00  0.00     0.123 A 
ATOM      5  C   UNL d   1      53.683  32.594  54.158  0.00  0.00     0.082 A 
ATOM      6  C   UNL d   1      53.369  33.321  53.955  0.00  0.00     0.101 A 
ATOM      7  O   UNL d   1      52.039  32.720  52.336  0.00  0.00    -0.264 OA
ATOM      8  C   UNL d   1      53.671  31.151  53.846  0.00  0.00     0.080 A 
ATOM      9  C   UNL d   1      52.786  31.191  52.858  0.00  0.00     0.024 A 
ATOM     10  C   UNL d   1      54.241  32.534  54.773  0.00  0.00     0.019 A 
ATOM     11  C   UNL d   1      53.605  34.008  54.363  0.00  0.00     0.021 A 
ATOM     12  C   UNL d   1      53.280  30.682  53.309  0.00  0.00     0.021 A 
ATOM     13  C   UNL d   1      54.478  33.220  55.182  0.00  0.00     0.002 A 
ATOM     14  C   UNL d   1      54.157  33.938  54.970  0.00  0.00     0.002 A 
ENDROOT
TORSDOF 0
ENDMDL
MODEL 3
REMARK VINA RESULT:      -9.2      0.687      2.360
REMARK  0 active torsions:
REMARK  status: ('A' for Active; 'I' for Inactive)
ROOT
ATOM      1  N   UNL d   1      53.409  33.530  54.173  0.00  0.00    -0.300 N 
ATOM      2  C   UNL d   1      53.455  32.205  53.656  0.00  0.00     0.295 A 
ATOM      3  N   UNL d   1      52.842  32.404  53.128  0.00  0.00    -0.205 NA
ATOM      4  C   UNL d   1      53.741  32.771  54.183  0.00  0.00     0.123 A 
ATOM      5  C   UNL d   1      52.813  33.724  53.660  0.00  0.00     0.082 A 
ATOM      6  C   UNL d   1      52.526  33.167  53.136  0.00  0.00     0.101 A 
ATOM      7  O   UNL d   1      53.780  31.465  53.666  0.00  0.00    -0.264 OA
ATOM      8  C   UNL d   1      53.791  33.965  54.740  0.00  0.00     0.080 A 
ATOM      9  C   UNL d   1      54.331  32.753  54.765  0.00  0.00     0.024 A 
ATOM     10  C   UNL d   1      52.497  34.494  53.671  0.00  0.00     0.019 A 
ATOM     11  C   UNL d   1      51.913  33.366  52.608  0.00  0.00     0.021 A 
ATOM     12  C   UNL d   1      54.357  33.516  55.115  0.00  0.00     0.021 A 
ATOM     13  C   UNL d   1      51.884  34.694  53.144  0.00  0.00     0.002 A 
ATOM     14  C   UNL d   1      51.607  34.130  52.626  0.00  0.00     0.002 A 
ENDROOT
TORSDOF 0
ENDMDL
MODEL 4
REMARK VINA RESULT:      -9.2      1.167      2.547
REMARK  0 active torsions:
REMARK  status: ('A' for Active; 'I' for Inactive)
ROOT
ATOM      1  N   UNL d   1      53.767  32.827  54.274  0.00  0.00    -0.300 N 
ATOM      2  C   UNL d   1      52.868  33.757  53.681  0.00  0.00     0.295 A 
ATOM      3  N   UNL d   1      52.554  33.139  53.219  0.00  0.00    -0.205 NA
ATOM      4  C   UNL d   1      53.479  33.601  54.213  0.00  0.00     0.123 A 
ATOM      5  C   UNL d   1      53.462  32.226  53.825  0.00  0.00     0.082 A 
ATOM      6  C   UNL d   1      52.856  32.375  53.297  0.00  0.00     0.101 A 
ATOM      7  O   UNL d   1      52.588  34.513  53.623  0.00  0.00    -0.264 OA
ATOM      8  C   UNL d   1      54.357  32.834  54.830  0.00  0.00     0.080 A 
ATOM      9  C   UNL d   1      53.903  34.078  54.741  0.00  0.00     0.024 A 
ATOM     10  C   UNL d   1      53.770  31.456  53.906  0.00  0.00     0.019 A 
ATOM     11  C   UNL d   1      52.543  31.757  52.835  0.00  0.00     0.021 A 
ATOM     12  C   UNL d   1      54.460  33.583  55.130  0.00  0.00     0.021 A 
ATOM     13  C   UNL d   1      53.456  30.838  53.444  0.00  0.00     0.002 A 
ATOM     14  C   UNL d   1      52.853  31.000  52.921  0.00  0.00     0.002 A 
ENDROOT
TORSDOF 0
ENDMDL
