MODEL 1
REMARK VINA RESULT:      60.3      0.000      0.000
REMARK  6 active torsions:
REMARK  status: ('A' for Active; 'I' for Inactive)
REMARK    1  A    between atoms: C_10  and  C_3 
REMARK    2  A    between atoms: N_12  and  C_4 
REMARK    3  A    between atoms: N_11  and  C_20 
REMARK    4  A    between atoms: C_25  and  N_12 
REMARK    5  A    between atoms: C_20  and  C_21 
REMARK    6  A    between atoms: C_21  and  C_25 
ROOT
ATOM      1  C   UNL d   1     -54.964-101.160 -41.673  0.00  0.00     0.168 A 
ATOM      2  N   UNL d   1     -54.879-101.696 -41.018  0.00  0.00    -0.184 N 
ATOM      3  C   UNL d   1     -55.047-101.450 -42.425  0.00  0.00     0.057 A 
ATOM      4  C   UNL d   1     -54.797-101.392 -40.277  0.00  0.00     0.218 A 
ATOM      5  N   UNL d   1     -54.967-102.792 -41.920  0.00  0.00    -0.160 NA
ATOM      6  N   UNL d   1     -54.961-100.357 -41.543  0.00  0.00    -0.227 NA
ATOM      7  C   UNL d   1     -54.793-100.581 -40.135  0.00  0.00     0.071 A 
ATOM      8  C   UNL d   1     -55.050-102.273 -42.555  0.00  0.00     0.124 A 
ATOM      9  C   UNL d   1     -54.877-100.054 -40.780  0.00  0.00     0.087 A 
ATOM     10  C   UNL d   1     -54.874 -99.205 -40.641  0.00  0.00     0.021 C 
ENDROOT
BRANCH   4  11
ATOM     11  N   UNL d   1     -54.712-101.929 -39.613  0.00  0.00    -0.380 NA
BRANCH  11  12
ATOM     12  C   UNL d   1     -54.737-102.506 -38.976  0.00  0.00     0.164 C 
BRANCH  12  13
ATOM     13  C   UNL d   1     -55.200-102.360 -38.276  0.00  0.00     0.054 C 
BRANCH  13  14
ATOM     14  C   UNL d   1     -54.988-102.721 -37.527  0.00  0.00     0.083 C 
BRANCH  14  15
ATOM     15  N   UNL d   1     -54.921-102.225 -36.821  0.00  0.00    -0.299 N 
ATOM     16  C   UNL d   1     -54.957-102.591 -36.035  0.00  0.00     0.107 A 
ATOM     17  C   UNL d   1     -54.890-102.095 -35.337  0.00  0.00     0.142 A 
ATOM     18  O   UNL d   1     -54.789-101.248 -35.413  0.00  0.00    -0.300 OA
ATOM     19  C   UNL d   1     -54.754-100.887 -36.195  0.00  0.00     0.142 A 
ATOM     20  C   UNL d   1     -54.820-101.378 -36.905  0.00  0.00     0.107 A 
ENDBRANCH  14  15
ENDBRANCH  13  14
ENDBRANCH  12  13
ENDBRANCH  11  12
ENDBRANCH   4  11
BRANCH   3  21
ATOM     21  C   UNL d   1     -55.129-100.931 -43.061  0.00  0.00     0.005 A 
ATOM     22  C   UNL d   1     -54.771-100.201 -43.036  0.00  0.00     0.001 A 
ATOM     23  C   UNL d   1     -54.852 -99.690 -43.661  0.00  0.00     0.011 A 
ATOM     24  C   UNL d   1     -55.292 -99.901 -44.321  0.00  0.00     0.058 A 
ATOM     25  C   UNL d   1     -55.651-100.633 -44.345  0.00  0.00     0.011 A 
ATOM     26 CL   UNL d   1     -55.378 -99.358 -44.985  0.00  0.00    -0.082 Cl
ATOM     27  C   UNL d   1     -55.569-101.152 -43.710  0.00  0.00     0.001 A 
ENDBRANCH   3  21
TORSDOF 6
ENDMDL
