MODEL 1
REMARK VINA RESULT:      63.6      0.000      0.000
REMARK  5 active torsions:
REMARK  status: ('A' for Active; 'I' for Inactive)
REMARK    1  A    between atoms: C_6  and  N_1 
REMARK    2  A    between atoms: C_7  and  C_3 
REMARK    3  A    between atoms: C_10  and  C_7 
REMARK    4  A    between atoms: C_16  and  C_8 
REMARK    5  A    between atoms: C_14  and  C_18 
ROOT
ATOM      1  N   UNL d   1      14.466  17.682  -5.347  0.00  0.00    -0.252 N 
ATOM      2  C   UNL d   1      14.904  17.416  -4.707  0.00  0.00     0.203 A 
ATOM      3  C   UNL d   1      14.374  16.357  -5.308  0.00  0.00     0.091 A 
ATOM      4  C   UNL d   1      14.136  17.029  -5.723  0.00  0.00     0.272 A 
ATOM      5  S   UNL d   1      14.849  16.600  -4.680  0.00  0.00    -0.043 SA
ATOM      6  N   UNL d   1      15.330  17.893  -4.178  0.00  0.00    -0.121 N 
ATOM      7  O   UNL d   1      13.656  17.039  -6.388  0.00  0.00    -0.266 OA
ENDROOT
BRANCH   3   8
ATOM      8  C   UNL d   1      14.174  15.577  -5.487  0.00  0.00     0.036 C 
BRANCH   8   9
ATOM      9  C   UNL d   1      13.744  15.114  -4.947  0.00  0.00     0.101 A 
ATOM     10  O   UNL d   1      13.873  14.310  -4.804  0.00  0.00    -0.307 OA
ATOM     11  C   UNL d   1      13.329  14.060  -4.230  0.00  0.00     0.100 A 
ATOM     12  C   UNL d   1      12.866  14.719  -4.023  0.00  0.00     0.027 A 
ATOM     13  C   UNL d   1      13.129  15.363  -4.470  0.00  0.00     0.027 A 
BRANCH  11  14
ATOM     14  C   UNL d   1      13.262  13.305  -3.925  0.00  0.00     0.023 A 
ATOM     15  C   UNL d   1      13.606  13.115  -3.205  0.00  0.00     0.008 A 
ATOM     16  C   UNL d   1      13.532  12.345  -2.902  0.00  0.00     0.065 A 
ATOM     17  C   UNL d   1      13.122  11.781  -3.312  0.00  0.00     0.006 A 
ATOM     18  C   UNL d   1      12.771  11.956  -4.034  0.00  0.00     0.000 A 
ATOM     19  C   UNL d   1      12.847  12.727  -4.335  0.00  0.00     0.002 A 
BRANCH  16  20
ATOM     20  C   UNL d   1      13.890  12.158  -2.162  0.00  0.00     0.211 C 
ATOM     21  O   UNL d   1      14.699  12.247  -2.062  0.00  0.00    -0.644 OA
ATOM     22  O   UNL d   1      13.432  11.888  -1.542  0.00  0.00    -0.644 OA
ENDBRANCH  16  20
ENDBRANCH  11  14
ENDBRANCH   8   9
ENDBRANCH   3   8
BRANCH   1  23
ATOM     23  C   UNL d   1      14.374  18.474  -5.574  0.00  0.00     0.071 A 
ATOM     24  C   UNL d   1      14.986  19.017  -5.433  0.00  0.00     0.044 A 
ATOM     25  C   UNL d   1      14.901  19.816  -5.659  0.00  0.00     0.121 A 
ATOM     26  O   UNL d   1      15.413  20.464  -5.586  0.00  0.00    -0.299 OA
ATOM     27  C   UNL d   1      14.209  20.061  -6.022  0.00  0.00     0.119 A 
ATOM     28  C   UNL d   1      15.026  21.116  -5.910  0.00  0.00     0.304 A 
ATOM     29  O   UNL d   1      14.278  20.873  -6.183  0.00  0.00    -0.300 OA
ATOM     30  C   UNL d   1      13.599  19.531  -6.165  0.00  0.00     0.028 A 
ATOM     31  C   UNL d   1      13.681  18.733  -5.941  0.00  0.00     0.020 A 
ENDBRANCH   1  23
TORSDOF 5
ENDMDL
MODEL 2
REMARK VINA RESULT:      64.0      2.545      4.304
REMARK  5 active torsions:
REMARK  status: ('A' for Active; 'I' for Inactive)
REMARK    1  A    between atoms: C_6  and  N_1 
REMARK    2  A    between atoms: C_7  and  C_3 
REMARK    3  A    between atoms: C_10  and  C_7 
REMARK    4  A    between atoms: C_16  and  C_8 
REMARK    5  A    between atoms: C_14  and  C_18 
ROOT
ATOM      1  N   UNL d   1      13.478  13.410  -4.497  0.00  0.00    -0.252 N 
ATOM      2  C   UNL d   1      13.401  12.789  -5.027  0.00  0.00     0.203 A 
ATOM      3  C   UNL d   1      13.128  12.327  -3.812  0.00  0.00     0.091 A 
ATOM      4  C   UNL d   1      13.310  13.129  -3.743  0.00  0.00     0.272 A 
ATOM      5  S   UNL d   1      13.185  12.120  -4.608  0.00  0.00    -0.043 SA
ATOM      6  N   UNL d   1      13.520  12.833  -5.847  0.00  0.00    -0.121 N 
ATOM      7  O   UNL d   1      13.320  13.561  -3.046  0.00  0.00    -0.266 OA
ENDROOT
BRANCH   3   8
ATOM      8  C   UNL d   1      12.925  11.818  -3.196  0.00  0.00     0.036 C 
BRANCH   8   9
ATOM      9  C   UNL d   1      13.174  11.970  -2.418  0.00  0.00     0.101 A 
ATOM     10  O   UNL d   1      13.880  12.346  -2.211  0.00  0.00    -0.307 OA
ATOM     11  C   UNL d   1      13.917  12.388  -1.384  0.00  0.00     0.100 A 
ATOM     12  C   UNL d   1      13.226  12.034  -1.086  0.00  0.00     0.027 A 
ATOM     13  C   UNL d   1      12.775  11.779  -1.731  0.00  0.00     0.027 A 
BRANCH  11  14
ATOM     14  C   UNL d   1      14.521  12.717  -0.943  0.00  0.00     0.023 A 
ATOM     15  C   UNL d   1      14.604  13.531  -0.892  0.00  0.00     0.008 A 
ATOM     16  C   UNL d   1      15.221  13.857  -0.442  0.00  0.00     0.065 A 
ATOM     17  C   UNL d   1      15.742  13.376  -0.051  0.00  0.00     0.006 A 
ATOM     18  C   UNL d   1      15.672  12.558  -0.092  0.00  0.00     0.000 A 
ATOM     19  C   UNL d   1      15.054  12.235  -0.543  0.00  0.00     0.002 A 
BRANCH  16  20
ATOM     20  C   UNL d   1      15.299  14.696  -0.396  0.00  0.00     0.211 C 
ATOM     21  O   UNL d   1      14.654  15.178  -0.551  0.00  0.00    -0.644 OA
ATOM     22  O   UNL d   1      16.016  15.030  -0.196  0.00  0.00    -0.644 OA
ENDBRANCH  16  20
ENDBRANCH  11  14
ENDBRANCH   8   9
ENDBRANCH   3   8
BRANCH   1  23
ATOM     23  C   UNL d   1      13.689  14.188  -4.692  0.00  0.00     0.071 A 
ATOM     24  C   UNL d   1      14.097  14.654  -4.139  0.00  0.00     0.044 A 
ATOM     25  C   UNL d   1      14.313  15.439  -4.327  0.00  0.00     0.121 A 
ATOM     26  O   UNL d   1      14.714  16.017  -3.889  0.00  0.00    -0.299 OA
ATOM     27  C   UNL d   1      14.120  15.745  -5.062  0.00  0.00     0.119 A 
ATOM     28  C   UNL d   1      14.767  16.688  -4.365  0.00  0.00     0.304 A 
ATOM     29  O   UNL d   1      14.400  16.526  -5.095  0.00  0.00    -0.300 OA
ATOM     30  C   UNL d   1      13.717  15.291  -5.614  0.00  0.00     0.028 A 
ATOM     31  C   UNL d   1      13.500  14.508  -5.429  0.00  0.00     0.020 A 
ENDBRANCH   1  23
TORSDOF 5
ENDMDL
MODEL 3
REMARK VINA RESULT:      64.8      1.355      2.499
REMARK  5 active torsions:
REMARK  status: ('A' for Active; 'I' for Inactive)
REMARK    1  A    between atoms: C_6  and  N_1 
REMARK    2  A    between atoms: C_7  and  C_3 
REMARK    3  A    between atoms: C_10  and  C_7 
REMARK    4  A    between atoms: C_16  and  C_8 
REMARK    5  A    between atoms: C_14  and  C_18 
ROOT
ATOM      1  N   UNL d   1      14.028  15.565  -4.574  0.00  0.00    -0.252 N 
ATOM      2  C   UNL d   1      14.026  15.365  -3.778  0.00  0.00     0.203 A 
ATOM      3  C   UNL d   1      13.563  14.325  -4.462  0.00  0.00     0.091 A 
ATOM      4  C   UNL d   1      13.742  14.923  -5.001  0.00  0.00     0.272 A 
ATOM      5  S   UNL d   1      13.740  14.602  -3.706  0.00  0.00    -0.043 SA
ATOM      6  N   UNL d   1      14.272  15.854  -3.154  0.00  0.00    -0.121 N 
ATOM      7  O   UNL d   1      13.649  14.880  -5.815  0.00  0.00    -0.266 OA
ENDROOT
BRANCH   3   8
ATOM      8  C   UNL d   1      13.260  13.580  -4.643  0.00  0.00     0.036 C 
BRANCH   8   9
ATOM      9  C   UNL d   1      13.259  12.972  -4.076  0.00  0.00     0.101 A 
ATOM     10  O   UNL d   1      13.499  13.055  -3.291  0.00  0.00    -0.307 OA
ATOM     11  C   UNL d   1      13.411  12.321  -2.915  0.00  0.00     0.100 A 
ATOM     12  C   UNL d   1      13.114  11.787  -3.479  0.00  0.00     0.027 A 
ATOM     13  C   UNL d   1      13.024  12.197  -4.191  0.00  0.00     0.027 A 
BRANCH  11  14
ATOM     14  C   UNL d   1      13.585  12.153  -2.134  0.00  0.00     0.023 A 
ATOM     15  C   UNL d   1      14.358  12.183  -1.863  0.00  0.00     0.008 A 
ATOM     16  C   UNL d   1      14.526  12.011  -1.069  0.00  0.00     0.065 A 
ATOM     17  C   UNL d   1      13.929  11.814  -0.558  0.00  0.00     0.006 A 
ATOM     18  C   UNL d   1      13.149  11.780  -0.813  0.00  0.00     0.000 A 
ATOM     19  C   UNL d   1      12.985  11.952  -1.609  0.00  0.00     0.002 A 
BRANCH  16  20
ATOM     20  C   UNL d   1      15.324  12.044  -0.799  0.00  0.00     0.211 C 
ATOM     21  O   UNL d   1      15.929  12.220  -1.325  0.00  0.00    -0.644 OA
ATOM     22  O   UNL d   1      15.498  11.901  -0.014  0.00  0.00    -0.644 OA
ENDBRANCH  16  20
ENDBRANCH  11  14
ENDBRANCH   8   9
ENDBRANCH   3   8
BRANCH   1  23
ATOM     23  C   UNL d   1      14.277  16.290  -4.890  0.00  0.00     0.071 A 
ATOM     24  C   UNL d   1      13.742  16.756  -5.320  0.00  0.00     0.044 A 
ATOM     25  C   UNL d   1      13.984  17.488  -5.642  0.00  0.00     0.121 A 
ATOM     26  O   UNL d   1      13.574  18.054  -6.086  0.00  0.00    -0.299 OA
ATOM     27  C   UNL d   1      14.755  17.742  -5.529  0.00  0.00     0.119 A 
ATOM     28  C   UNL d   1      14.104  18.665  -6.248  0.00  0.00     0.304 A 
ATOM     29  O   UNL d   1      14.839  18.478  -5.905  0.00  0.00    -0.300 OA
ATOM     30  C   UNL d   1      15.290  17.287  -5.105  0.00  0.00     0.028 A 
ATOM     31  C   UNL d   1      15.050  16.557  -4.783  0.00  0.00     0.020 A 
ENDBRANCH   1  23
TORSDOF 5
ENDMDL
MODEL 4
REMARK VINA RESULT:      64.9      3.065      5.702
REMARK  5 active torsions:
REMARK  status: ('A' for Active; 'I' for Inactive)
REMARK    1  A    between atoms: C_6  and  N_1 
REMARK    2  A    between atoms: C_7  and  C_3 
REMARK    3  A    between atoms: C_10  and  C_7 
REMARK    4  A    between atoms: C_16  and  C_8 
REMARK    5  A    between atoms: C_14  and  C_18 
ROOT
ATOM      1  N   UNL d   1      14.151  12.567  -1.591  0.00  0.00    -0.252 N 
ATOM      2  C   UNL d   1      13.549  12.122  -1.256  0.00  0.00     0.203 A 
ATOM      3  C   UNL d   1      13.440  12.028  -2.576  0.00  0.00     0.091 A 
ATOM      4  C   UNL d   1      14.087  12.512  -2.409  0.00  0.00     0.272 A 
ATOM      5  S   UNL d   1      13.109  11.788  -1.860  0.00  0.00    -0.043 SA
ATOM      6  N   UNL d   1      13.410  12.027  -0.443  0.00  0.00    -0.121 N 
ATOM      7  O   UNL d   1      14.576  12.870  -2.963  0.00  0.00    -0.266 OA
ENDROOT
BRANCH   3   8
ATOM      8  C   UNL d   1      13.169  11.818  -3.326  0.00  0.00     0.036 C 
BRANCH   8   9
ATOM      9  C   UNL d   1      13.143  12.376  -3.941  0.00  0.00     0.101 A 
ATOM     10  O   UNL d   1      13.342  13.174  -3.866  0.00  0.00    -0.307 OA
ATOM     11  C   UNL d   1      13.241  13.536  -4.606  0.00  0.00     0.100 A 
ATOM     12  C   UNL d   1      12.977  12.950  -5.134  0.00  0.00     0.027 A 
ATOM     13  C   UNL d   1      12.920  12.240  -4.716  0.00  0.00     0.027 A 
BRANCH  11  14
ATOM     14  C   UNL d   1      13.375  14.322  -4.782  0.00  0.00     0.023 A 
ATOM     15  C   UNL d   1      14.110  14.659  -4.648  0.00  0.00     0.008 A 
ATOM     16  C   UNL d   1      14.238  15.459  -4.830  0.00  0.00     0.065 A 
ATOM     17  C   UNL d   1      13.641  15.910  -5.140  0.00  0.00     0.006 A 
ATOM     18  C   UNL d   1      12.899  15.587  -5.280  0.00  0.00     0.000 A 
ATOM     19  C   UNL d   1      12.774  14.786  -5.097  0.00  0.00     0.002 A 
BRANCH  16  20
ATOM     20  C   UNL d   1      14.998  15.798  -4.689  0.00  0.00     0.211 C 
ATOM     21  O   UNL d   1      15.151  16.182  -3.980  0.00  0.00    -0.644 OA
ATOM     22  O   UNL d   1      15.582  15.745  -5.256  0.00  0.00    -0.644 OA
ENDBRANCH  16  20
ENDBRANCH  11  14
ENDBRANCH   8   9
ENDBRANCH   3   8
BRANCH   1  23
ATOM     23  C   UNL d   1      14.723  12.998  -1.174  0.00  0.00     0.071 A 
ATOM     24  C   UNL d   1      14.853  13.797  -1.360  0.00  0.00     0.044 A 
ATOM     25  C   UNL d   1      15.428  14.238  -0.945  0.00  0.00     0.121 A 
ATOM     26  O   UNL d   1      15.669  15.028  -1.014  0.00  0.00    -0.299 OA
ATOM     27  C   UNL d   1      15.863  13.876  -0.352  0.00  0.00     0.119 A 
ATOM     28  C   UNL d   1      16.261  15.151  -0.454  0.00  0.00     0.304 A 
ATOM     29  O   UNL d   1      16.386  14.439  -0.039  0.00  0.00    -0.300 OA
ATOM     30  C   UNL d   1      15.741  13.087  -0.162  0.00  0.00     0.028 A 
ATOM     31  C   UNL d   1      15.167  12.645  -0.575  0.00  0.00     0.020 A 
ENDBRANCH   1  23
TORSDOF 5
ENDMDL
