MODEL 1
REMARK VINA RESULT:      28.9      0.000      0.000
REMARK  5 active torsions:
REMARK  status: ('A' for Active; 'I' for Inactive)
REMARK    1  A    between atoms: C_13  and  C_5 
REMARK    2  A    between atoms: C_16  and  C_13 
REMARK    3  A    between atoms: C_19  and  C_16 
REMARK    4  A    between atoms: C_17  and  C_18 
REMARK    5  A    between atoms: C_18  and  C_19 
ROOT
ATOM      1  C   UNL d   1      14.225  14.050  -2.290  0.00  0.00     0.111 A 
ATOM      2  C   UNL d   1      14.215  12.903  -1.416  0.00  0.00     0.062 A 
ATOM      3  C   UNL d   1      14.755  14.420  -1.798  0.00  0.00     0.213 A 
ATOM      4  C   UNL d   1      14.773  13.306  -0.908  0.00  0.00     0.105 A 
ATOM      5  C   UNL d   1      13.946  13.276  -2.101  0.00  0.00     0.018 A 
ATOM      6  O   UNL d   1      15.041  14.034  -1.078  0.00  0.00    -0.287 OA
ATOM      7  C   UNL d   1      13.957  14.424  -2.976  0.00  0.00     0.105 C 
ATOM      8  C   UNL d   1      13.957  12.153  -1.214  0.00  0.00     0.198 A 
ATOM      9  N   UNL d   1      13.681  14.805  -3.676  0.00  0.00    -0.191 NA
ATOM     10  N   UNL d   1      15.052  15.215  -1.978  0.00  0.00    -0.120 N 
ATOM     11  O   UNL d   1      13.410  11.779  -1.729  0.00  0.00    -0.286 OA
ATOM     12  C   UNL d   1      15.045  12.922  -0.210  0.00  0.00     0.025 A 
ATOM     13  C   UNL d   1      14.230  11.782  -0.526  0.00  0.00     0.042 A 
ATOM     14  C   UNL d   1      14.773  12.162  -0.021  0.00  0.00     0.005 A 
ENDROOT
BRANCH   5  15
ATOM     15  C   UNL d   1      13.420  12.908  -2.590  0.00  0.00     0.001 C 
BRANCH  15  16
ATOM     16  C   UNL d   1      13.655  12.595  -3.300  0.00  0.00     0.000 C 
BRANCH  16  17
ATOM     17  C   UNL d   1      13.201  11.996  -3.708  0.00  0.00     0.000 C 
BRANCH  17  18
ATOM     18  C   UNL d   1      13.412  11.780  -4.468  0.00  0.00     0.000 C 
BRANCH  18  19
ATOM     19  C   UNL d   1      12.988  12.100  -5.097  0.00  0.00     0.000 C 
ATOM     20  C   UNL d   1      13.111  11.828  -5.847  0.00  0.00     0.000 C 
ENDBRANCH  18  19
ENDBRANCH  17  18
ENDBRANCH  16  17
ENDBRANCH  15  16
ENDBRANCH   5  15
TORSDOF 5
ENDMDL
MODEL 2
REMARK VINA RESULT:      30.1      1.546      3.663
REMARK  5 active torsions:
REMARK  status: ('A' for Active; 'I' for Inactive)
REMARK    1  A    between atoms: C_13  and  C_5 
REMARK    2  A    between atoms: C_16  and  C_13 
REMARK    3  A    between atoms: C_19  and  C_16 
REMARK    4  A    between atoms: C_17  and  C_18 
REMARK    5  A    between atoms: C_18  and  C_19 
ROOT
ATOM      1  C   UNL d   1      14.325  12.828  -1.246  0.00  0.00     0.111 A 
ATOM      2  C   UNL d   1      13.874  12.837  -2.615  0.00  0.00     0.062 A 
ATOM      3  C   UNL d   1      13.893  12.155  -1.108  0.00  0.00     0.213 A 
ATOM      4  C   UNL d   1      13.424  12.128  -2.455  0.00  0.00     0.105 A 
ATOM      5  C   UNL d   1      14.320  13.181  -2.012  0.00  0.00     0.018 A 
ATOM      6  O   UNL d   1      13.423  11.788  -1.737  0.00  0.00    -0.287 OA
ATOM      7  C   UNL d   1      14.771  13.172  -0.642  0.00  0.00     0.105 C 
ATOM      8  C   UNL d   1      13.855  13.164  -3.366  0.00  0.00     0.198 A 
ATOM      9  N   UNL d   1      15.227  13.524  -0.025  0.00  0.00    -0.191 NA
ATOM     10  N   UNL d   1      13.888  11.779  -0.326  0.00  0.00    -0.120 N 
ATOM     11  O   UNL d   1      14.305  13.859  -3.498  0.00  0.00    -0.286 OA
ATOM     12  C   UNL d   1      12.970  11.779  -3.072  0.00  0.00     0.025 A 
ATOM     13  C   UNL d   1      13.406  12.815  -3.968  0.00  0.00     0.042 A 
ATOM     14  C   UNL d   1      12.963  12.124  -3.827  0.00  0.00     0.005 A 
ENDROOT
BRANCH   5  15
ATOM     15  C   UNL d   1      14.749  13.850  -2.149  0.00  0.00     0.001 C 
BRANCH  15  16
ATOM     16  C   UNL d   1      14.502  14.572  -1.873  0.00  0.00     0.000 C 
BRANCH  16  17
ATOM     17  C   UNL d   1      14.812  15.308  -2.178  0.00  0.00     0.000 C 
BRANCH  17  18
ATOM     18  C   UNL d   1      15.202  15.820  -1.672  0.00  0.00     0.000 C 
BRANCH  18  19
ATOM     19  C   UNL d   1      14.932  16.595  -1.617  0.00  0.00     0.000 C 
ATOM     20  C   UNL d   1      15.162  17.060  -0.998  0.00  0.00     0.000 C 
ENDBRANCH  18  19
ENDBRANCH  17  18
ENDBRANCH  16  17
ENDBRANCH  15  16
ENDBRANCH   5  15
TORSDOF 5
ENDMDL
MODEL 3
REMARK VINA RESULT:      31.2      1.089      3.366
REMARK  5 active torsions:
REMARK  status: ('A' for Active; 'I' for Inactive)
REMARK    1  A    between atoms: C_13  and  C_5 
REMARK    2  A    between atoms: C_16  and  C_13 
REMARK    3  A    between atoms: C_19  and  C_16 
REMARK    4  A    between atoms: C_17  and  C_18 
REMARK    5  A    between atoms: C_18  and  C_19 
ROOT
ATOM      1  C   UNL d   1      13.833  14.124  -3.113  0.00  0.00     0.111 A 
ATOM      2  C   UNL d   1      13.311  12.939  -3.748  0.00  0.00     0.062 A 
ATOM      3  C   UNL d   1      13.886  14.488  -3.837  0.00  0.00     0.213 A 
ATOM      4  C   UNL d   1      13.372  13.336  -4.503  0.00  0.00     0.105 A 
ATOM      5  C   UNL d   1      13.541  13.334  -3.061  0.00  0.00     0.018 A 
ATOM      6  O   UNL d   1      13.646  14.079  -4.562  0.00  0.00    -0.287 OA
ATOM      7  C   UNL d   1      14.063  14.520  -2.426  0.00  0.00     0.105 C 
ATOM      8  C   UNL d   1      13.025  12.172  -3.719  0.00  0.00     0.198 A 
ATOM      9  N   UNL d   1      14.298  14.923  -1.723  0.00  0.00    -0.191 NA
ATOM     10  N   UNL d   1      14.184  15.299  -3.908  0.00  0.00    -0.120 N 
ATOM     11  O   UNL d   1      12.974  11.805  -2.966  0.00  0.00    -0.286 OA
ATOM     12  C   UNL d   1      13.137  12.930  -5.202  0.00  0.00     0.025 A 
ATOM     13  C   UNL d   1      12.795  11.780  -4.411  0.00  0.00     0.042 A 
ATOM     14  C   UNL d   1      12.850  12.154  -5.154  0.00  0.00     0.005 A 
ENDROOT
BRANCH   5  15
ATOM     15  C   UNL d   1      13.489  12.972  -2.342  0.00  0.00     0.001 C 
BRANCH  15  16
ATOM     16  C   UNL d   1      14.110  12.548  -2.039  0.00  0.00     0.000 C 
BRANCH  16  17
ATOM     17  C   UNL d   1      14.182  12.377  -1.204  0.00  0.00     0.000 C 
BRANCH  17  18
ATOM     18  C   UNL d   1      14.686  11.780  -0.958  0.00  0.00     0.000 C 
BRANCH  18  19
ATOM     19  C   UNL d   1      15.042  11.849  -0.219  0.00  0.00     0.000 C 
ATOM     20  C   UNL d   1      15.706  12.299  -0.132  0.00  0.00     0.000 C 
ENDBRANCH  18  19
ENDBRANCH  17  18
ENDBRANCH  16  17
ENDBRANCH  15  16
ENDBRANCH   5  15
TORSDOF 5
ENDMDL
MODEL 4
REMARK VINA RESULT:      31.6      1.284      3.052
REMARK  5 active torsions:
REMARK  status: ('A' for Active; 'I' for Inactive)
REMARK    1  A    between atoms: C_13  and  C_5 
REMARK    2  A    between atoms: C_16  and  C_13 
REMARK    3  A    between atoms: C_19  and  C_16 
REMARK    4  A    between atoms: C_17  and  C_18 
REMARK    5  A    between atoms: C_18  and  C_19 
ROOT
ATOM      1  C   UNL d   1      13.816  12.851  -2.803  0.00  0.00     0.111 A 
ATOM      2  C   UNL d   1      14.449  12.860  -1.507  0.00  0.00     0.062 A 
ATOM      3  C   UNL d   1      13.430  12.163  -2.610  0.00  0.00     0.213 A 
ATOM      4  C   UNL d   1      14.036  12.135  -1.318  0.00  0.00     0.105 A 
ATOM      5  C   UNL d   1      14.337  13.211  -2.245  0.00  0.00     0.018 A 
ATOM      6  O   UNL d   1      13.544  11.789  -1.837  0.00  0.00    -0.287 OA
ATOM      7  C   UNL d   1      13.703  13.202  -3.542  0.00  0.00     0.105 C 
ATOM      8  C   UNL d   1      14.950  13.193  -0.952  0.00  0.00     0.198 A 
ATOM      9  N   UNL d   1      13.589  13.562  -4.296  0.00  0.00    -0.191 NA
ATOM     10  N   UNL d   1      12.892  11.779  -3.171  0.00  0.00    -0.120 N 
ATOM     11  O   UNL d   1      15.343  13.904  -1.162  0.00  0.00    -0.286 OA
ATOM     12  C   UNL d   1      14.152  11.779  -0.565  0.00  0.00     0.025 A 
ATOM     13  C   UNL d   1      15.059  12.837  -0.213  0.00  0.00     0.042 A 
ATOM     14  C   UNL d   1      14.664  12.131  -0.014  0.00  0.00     0.005 A 
ENDROOT
BRANCH   5  15
ATOM     15  C   UNL d   1      14.720  13.895  -2.437  0.00  0.00     0.001 C 
BRANCH  15  16
ATOM     16  C   UNL d   1      14.393  14.619  -2.275  0.00  0.00     0.000 C 
BRANCH  16  17
ATOM     17  C   UNL d   1      14.717  15.347  -2.588  0.00  0.00     0.000 C 
BRANCH  17  18
ATOM     18  C   UNL d   1      14.626  16.041  -2.164  0.00  0.00     0.000 C 
BRANCH  18  19
ATOM     19  C   UNL d   1      14.985  16.723  -2.452  0.00  0.00     0.000 C 
ATOM     20  C   UNL d   1      15.165  17.329  -1.949  0.00  0.00     0.000 C 
ENDBRANCH  18  19
ENDBRANCH  17  18
ENDBRANCH  16  17
ENDBRANCH  15  16
ENDBRANCH   5  15
TORSDOF 5
ENDMDL
