MODEL 1
REMARK VINA RESULT:      62.1      0.000      0.000
REMARK  6 active torsions:
REMARK  status: ('A' for Active; 'I' for Inactive)
REMARK    1  A    between atoms: C_8  and  C_1 
REMARK    2  A    between atoms: C_6  and  O_10 
REMARK    3  A    between atoms: C_7  and  C_6 
REMARK    4  A    between atoms: C_18  and  C_8 
REMARK    5  A    between atoms: O_10  and  C_12 
REMARK    6  A    between atoms: O_20  and  C_13 
ROOT
ATOM      1  C   UNL d   1     -54.919-102.102 -40.558  0.00  0.00     0.139 A 
ATOM      2  C   UNL d   1     -54.800-100.818 -40.909  0.00  0.00     0.064 A 
ATOM      3  C   UNL d   1     -54.820-101.335 -40.262  0.00  0.00     0.220 A 
ATOM      4  C   UNL d   1     -54.885-101.260 -41.601  0.00  0.00     0.105 A 
ATOM      5  O   UNL d   1     -54.959-102.055 -41.384  0.00  0.00    -0.304 OA
ATOM      6  C   UNL d   1     -54.884-100.878 -42.328  0.00  0.00     0.050 A 
ATOM      7  C   UNL d   1     -54.715 -99.998 -40.948  0.00  0.00     0.007 A 
ATOM      8  C   UNL d   1     -54.799-100.066 -42.364  0.00  0.00     0.105 A 
ATOM      9  O   UNL d   1     -54.755-101.129 -39.466  0.00  0.00    -0.284 OA
ATOM     10  C   UNL d   1     -54.714 -99.621 -41.683  0.00  0.00     0.025 A 
ENDROOT
BRANCH   8  11
ATOM     11  O   UNL d   1     -54.799 -99.689 -43.097  0.00  0.00    -0.273 OA
BRANCH  11  12
ATOM     12  C   UNL d   1     -55.106-100.066 -43.768  0.00  0.00     0.302 C 
ATOM     13  O   UNL d   1     -55.115-100.892 -43.797  0.00  0.00    -0.259 OA
BRANCH  12  14
ATOM     14  C   UNL d   1     -55.401 -99.635 -44.401  0.00  0.00     0.086 A 
ATOM     15  C   UNL d   1     -56.152 -99.272 -44.338  0.00  0.00     0.099 A 
ATOM     16  C   UNL d   1     -56.446 -98.841 -44.971  0.00  0.00     0.024 A 
ATOM     17  C   UNL d   1     -56.015 -98.761 -45.664  0.00  0.00     0.002 A 
ATOM     18  C   UNL d   1     -55.261 -99.126 -45.726  0.00  0.00     0.000 A 
ATOM     19  C   UNL d   1     -54.962 -99.559 -45.094  0.00  0.00     0.007 A 
BRANCH  15  20
ATOM     20  O   UNL d   1     -56.580 -99.357 -43.637  0.00  0.00    -0.328 OA
ATOM     21  C   UNL d   1     -57.113 -98.763 -43.419  0.00  0.00     0.181 C 
ENDBRANCH  15  20
ENDBRANCH  12  14
ENDBRANCH  11  12
ENDBRANCH   8  11
BRANCH   1  22
ATOM     22  C   UNL d   1     -54.968-102.794 -40.110  0.00  0.00     0.028 C 
BRANCH  22  23
ATOM     23  C   UNL d   1     -55.285-102.776 -39.346  0.00  0.00     0.005 A 
ATOM     24  C   UNL d   1     -56.093-102.878 -39.242  0.00  0.00     0.021 A 
ATOM     25  C   UNL d   1     -56.415-102.861 -38.485  0.00  0.00     0.099 A 
ATOM     26  N   UNL d   1     -55.925-102.741 -37.825  0.00  0.00    -0.242 NA
ATOM     27  C   UNL d   1     -55.109-102.639 -37.935  0.00  0.00     0.099 A 
ATOM     28  C   UNL d   1     -54.793-102.657 -38.698  0.00  0.00     0.021 A 
ENDBRANCH  22  23
ENDBRANCH   1  22
TORSDOF 6
ENDMDL
