MODEL 1
REMARK VINA RESULT:      45.2      0.000      0.000
REMARK  7 active torsions:
REMARK  status: ('A' for Active; 'I' for Inactive)
REMARK    1  A    between atoms: C_13  and  N_2 
REMARK    2  A    between atoms: C_7  and  C_4 
REMARK    3  A    between atoms: O_19  and  C_7 
REMARK    4  A    between atoms: C_9  and  C_18 
REMARK    5  A    between atoms: C_20  and  C_13 
REMARK    6  A    between atoms: O_16  and  C_15 
REMARK    7  A    between atoms: C_18  and  O_16 
ROOT
ATOM      1  C   UNL d   1      46.307 -18.344  43.992  0.00  0.00     0.265 A 
ATOM      2  N   UNL d   1      46.159 -17.533  44.026  0.00  0.00    -0.272 N 
ATOM      3  C   UNL d   1      46.403 -18.713  43.265  0.00  0.00     0.059 A 
ATOM      4  C   UNL d   1      46.351 -18.274  42.568  0.00  0.00     0.029 A 
ATOM      5  C   UNL d   1      46.204 -17.467  42.599  0.00  0.00     0.021 A 
ATOM      6  C   UNL d   1      46.108 -17.094  43.329  0.00  0.00     0.083 A 
ATOM      7  O   UNL d   1      46.359 -18.783  44.689  0.00  0.00    -0.267 OA
ATOM      8  C   UNL d   1      46.447 -18.646  41.838  0.00  0.00     0.100 A 
ATOM      9  C   UNL d   1      46.551 -19.524  43.231  0.00  0.00     0.005 A 
ATOM     10  C   UNL d   1      46.647 -19.897  42.501  0.00  0.00     0.002 A 
ATOM     11  C   UNL d   1      46.595 -19.458  41.804  0.00  0.00     0.025 A 
ENDROOT
BRANCH   8  12
ATOM     12  O   UNL d   1      46.396 -18.208  41.141  0.00  0.00    -0.303 OA
BRANCH  12  13
ATOM     13  C   UNL d   1      45.892 -18.454  40.535  0.00  0.00     0.147 C 
BRANCH  13  14
ATOM     14  C   UNL d   1      45.755 -17.961  39.888  0.00  0.00     0.125 A 
ATOM     15  O   UNL d   1      45.054 -17.729  39.506  0.00  0.00    -0.300 OA
ATOM     16  C   UNL d   1      45.267 -17.225  38.886  0.00  0.00     0.163 A 
ATOM     17  C   UNL d   1      46.078 -17.144  38.881  0.00  0.00     0.032 A 
ATOM     18  C   UNL d   1      46.384 -17.600  39.503  0.00  0.00     0.029 A 
BRANCH  16  19
ATOM     19  C   UNL d   1      44.740 -16.856  38.351  0.00  0.00     0.319 C 
ATOM     20  O   UNL d   1      43.932 -16.936  38.450  0.00  0.00    -0.257 OA
BRANCH  19  21
ATOM     21  O   UNL d   1      45.040 -16.405  37.712  0.00  0.00    -0.294 OA
ATOM     22  C   UNL d   1      44.525 -16.021  37.193  0.00  0.00     0.185 C 
ENDBRANCH  19  21
ENDBRANCH  16  19
ENDBRANCH  13  14
ENDBRANCH  12  13
ENDBRANCH   8  12
BRANCH   2  23
ATOM     23  C   UNL d   1      46.062 -17.161  44.766  0.00  0.00     0.083 C 
BRANCH  23  24
ATOM     24  C   UNL d   1      45.835 -16.369  44.807  0.00  0.00     0.018 A 
ATOM     25  C   UNL d   1      45.042 -16.177  44.913  0.00  0.00     0.002 A 
ATOM     26  C   UNL d   1      44.815 -15.385  44.954  0.00  0.00     0.000 A 
ATOM     27  C   UNL d   1      45.383 -14.789  44.890  0.00  0.00     0.000 A 
ATOM     28  C   UNL d   1      46.173 -14.987  44.785  0.00  0.00     0.000 A 
ATOM     29  C   UNL d   1      46.400 -15.779  44.744  0.00  0.00     0.002 A 
ENDBRANCH  23  24
ENDBRANCH   2  23
TORSDOF 7
ENDMDL
