MODEL 1
REMARK VINA RESULT:      29.1      0.000      0.000
REMARK  4 active torsions:
REMARK  status: ('A' for Active; 'I' for Inactive)
REMARK       I    between atoms: C_5  and  N_1 
REMARK    1  A    between atoms: N_3  and  C_8 
REMARK    2  A    between atoms: C_7  and  C_5 
REMARK    3  A    between atoms: C_11  and  C_7 
REMARK    4  A    between atoms: C_15  and  C_11 
ROOT
ATOM      1  N   UNL d   1     -57.196 -98.781 -44.453  0.00  0.00    -0.256 N 
ATOM      2  C   UNL d   1     -57.313 -98.792 -45.276  0.00  0.00     0.185 A 
ATOM      3  N   UNL d   1     -58.117 -98.790 -45.385  0.00  0.00    -0.224 NA
ATOM      4  C   UNL d   1     -56.458 -98.778 -44.055  0.00  0.00     0.266 C 
ATOM      5  C   UNL d   1     -57.932 -98.773 -44.097  0.00  0.00     0.086 A 
ATOM      6  C   UNL d   1     -58.506 -98.779 -44.671  0.00  0.00     0.099 A 
ATOM      7  O   UNL d   1     -56.416 -98.767 -43.219  0.00  0.00    -0.267 OA
ATOM      8  C   UNL d   1     -58.145 -98.761 -43.294  0.00  0.00     0.019 A 
ATOM      9  C   UNL d   1     -59.297 -98.773 -44.467  0.00  0.00     0.021 A 
ATOM     10  C   UNL d   1     -58.949 -98.755 -43.069  0.00  0.00     0.002 A 
ATOM     11  C   UNL d   1     -59.551 -98.761 -43.674  0.00  0.00     0.002 A 
ENDROOT
BRANCH   4  12
ATOM     12  C   UNL d   1     -55.760 -98.787 -44.485  0.00  0.00     0.061 C 
BRANCH  12  13
ATOM     13  C   UNL d   1     -55.066 -99.051 -44.126  0.00  0.00     0.005 C 
BRANCH  13  14
ATOM     14  C   UNL d   1     -54.969 -99.857 -43.983  0.00  0.00     0.002 A 
ATOM     15  C   UNL d   1     -55.004-100.396 -44.625  0.00  0.00     0.024 A 
ATOM     16  C   UNL d   1     -54.910-101.192 -44.489  0.00  0.00     0.127 A 
ATOM     17  C   UNL d   1     -54.779-101.471 -43.719  0.00  0.00     0.024 A 
ATOM     18  C   UNL d   1     -54.746-100.938 -43.091  0.00  0.00     0.002 A 
ATOM     19  C   UNL d   1     -54.840-100.126 -43.216  0.00  0.00     0.000 A 
BRANCH  16  20
ATOM     20  N   UNL d   1     -54.938-101.747 -45.095  0.00  0.00    -0.114 N 
ATOM     21  O   UNL d   1     -55.202-101.519 -45.854  0.00  0.00    -0.532 OA
ATOM     22  O   UNL d   1     -54.711-102.517 -44.958  0.00  0.00    -0.532 OA
ENDBRANCH  16  20
ENDBRANCH  13  14
ENDBRANCH  12  13
ENDBRANCH   4  12
TORSDOF 4
ENDMDL
