MODEL 1
REMARK VINA RESULT:      -2.6      0.000      0.000
REMARK  3 active torsions:
REMARK  status: ('A' for Active; 'I' for Inactive)
REMARK    1  A    between atoms: C_6  and  N_1 
REMARK    2  A    between atoms: C_7  and  O_10 
REMARK    3  A    between atoms: O_10  and  C_13 
ROOT
ATOM      1  C   UNL d   1      30.856  17.023 -24.343  0.00  0.00     0.070 A 
ATOM      2  C   UNL d   1      31.225  16.770 -23.639  0.00  0.00     0.020 A 
ATOM      3  C   UNL d   1      31.188  17.636 -24.786  0.00  0.00     0.020 A 
ATOM      4  C   UNL d   1      32.256  17.759 -23.843  0.00  0.00     0.105 A 
ATOM      5  C   UNL d   1      31.883  18.006 -24.543  0.00  0.00     0.026 A 
ATOM      6  C   UNL d   1      31.922  17.140 -23.395  0.00  0.00     0.026 A 
ENDROOT
BRANCH   1   7
ATOM      7  N   UNL d   1      30.165  16.656 -24.585  0.00  0.00    -0.242 N 
ATOM      8  C   UNL d   1      29.375  16.949 -24.524  0.00  0.00     0.267 A 
ATOM      9  C   UNL d   1      28.885  16.390 -24.837  0.00  0.00     0.066 A 
ATOM     10  O   UNL d   1      29.132  17.668 -24.208  0.00  0.00    -0.267 OA
ATOM     11  C   UNL d   1      29.312  15.756 -25.094  0.00  0.00     0.066 A 
ATOM     12  C   UNL d   1      30.122  15.935 -24.930  0.00  0.00     0.267 A 
ATOM     13  O   UNL d   1      30.774  15.453 -25.094  0.00  0.00    -0.267 OA
ENDBRANCH   1   7
BRANCH   4  14
ATOM     14  O   UNL d   1      32.931  18.118 -23.607  0.00  0.00    -0.260 OA
BRANCH  14  15
ATOM     15  C   UNL d   1      32.899  18.752 -23.096  0.00  0.00     0.391 C 
ATOM     16  F   UNL d   1      32.883  18.630 -22.299  0.00  0.00    -0.145 F 
ATOM     17  F   UNL d   1      32.883  19.511 -23.390  0.00  0.00    -0.145 F 
ENDBRANCH  14  15
ENDBRANCH   4  14
TORSDOF 3
ENDMDL
MODEL 2
REMARK VINA RESULT:      -2.3      1.524      1.746
REMARK  3 active torsions:
REMARK  status: ('A' for Active; 'I' for Inactive)
REMARK    1  A    between atoms: C_6  and  N_1 
REMARK    2  A    between atoms: C_7  and  O_10 
REMARK    3  A    between atoms: O_10  and  C_13 
ROOT
ATOM      1  C   UNL d   1      30.221  16.062 -23.776  0.00  0.00     0.070 A 
ATOM      2  C   UNL d   1      30.810  15.471 -23.747  0.00  0.00     0.020 A 
ATOM      3  C   UNL d   1      30.434  16.852 -23.891  0.00  0.00     0.020 A 
ATOM      4  C   UNL d   1      31.815  16.487 -23.950  0.00  0.00     0.105 A 
ATOM      5  C   UNL d   1      31.223  17.069 -23.978  0.00  0.00     0.026 A 
ATOM      6  C   UNL d   1      31.602  15.690 -23.834  0.00  0.00     0.026 A 
ENDROOT
BRANCH   1   7
ATOM      7  N   UNL d   1      29.435  15.846 -23.690  0.00  0.00    -0.242 N 
ATOM      8  C   UNL d   1      28.843  15.799 -24.290  0.00  0.00     0.267 A 
ATOM      9  C   UNL d   1      28.159  15.562 -23.937  0.00  0.00     0.066 A 
ATOM     10  O   UNL d   1      28.930  15.961 -25.092  0.00  0.00    -0.267 OA
ATOM     11  C   UNL d   1      28.275  15.454 -23.146  0.00  0.00     0.066 A 
ATOM     12  C   UNL d   1      29.088  15.637 -23.000  0.00  0.00     0.267 A 
ATOM     13  O   UNL d   1      29.474  15.608 -22.269  0.00  0.00    -0.267 OA
ENDBRANCH   1   7
BRANCH   4  14
ATOM     14  O   UNL d   1      32.582  16.698 -24.034  0.00  0.00    -0.260 OA
BRANCH  14  15
ATOM     15  C   UNL d   1      32.953  17.129 -23.451  0.00  0.00     0.391 C 
ATOM     16  F   UNL d   1      33.240  16.759 -22.794  0.00  0.00    -0.145 F 
ATOM     17  F   UNL d   1      33.036  17.935 -23.529  0.00  0.00    -0.145 F 
ENDBRANCH  14  15
ENDBRANCH   4  14
TORSDOF 3
ENDMDL
MODEL 3
REMARK VINA RESULT:      -2.3      4.108      6.098
REMARK  3 active torsions:
REMARK  status: ('A' for Active; 'I' for Inactive)
REMARK    1  A    between atoms: C_6  and  N_1 
REMARK    2  A    between atoms: C_7  and  O_10 
REMARK    3  A    between atoms: O_10  and  C_13 
ROOT
ATOM      1  C   UNL d   1      32.706  21.830 -21.257  0.00  0.00     0.070 A 
ATOM      2  C   UNL d   1      32.537  21.084 -20.921  0.00  0.00     0.020 A 
ATOM      3  C   UNL d   1      33.049  21.876 -22.006  0.00  0.00     0.020 A 
ATOM      4  C   UNL d   1      33.065  20.450 -22.105  0.00  0.00     0.105 A 
ATOM      5  C   UNL d   1      33.230  21.196 -22.432  0.00  0.00     0.026 A 
ATOM      6  C   UNL d   1      32.719  20.401 -21.348  0.00  0.00     0.026 A 
ENDROOT
BRANCH   1   7
ATOM      7  N   UNL d   1      32.526  22.507 -20.832  0.00  0.00    -0.242 N 
ATOM      8  C   UNL d   1      32.062  23.166 -21.084  0.00  0.00     0.267 A 
ATOM      9  C   UNL d   1      32.042  23.695 -20.476  0.00  0.00     0.066 A 
ATOM     10  O   UNL d   1      31.691  23.268 -21.811  0.00  0.00    -0.267 OA
ATOM     11  C   UNL d   1      32.466  23.414 -19.849  0.00  0.00     0.066 A 
ATOM     12  C   UNL d   1      32.768  22.661 -20.086  0.00  0.00     0.267 A 
ATOM     13  O   UNL d   1      33.239  22.156 -19.629  0.00  0.00    -0.267 OA
ENDBRANCH   1   7
BRANCH   4  14
ATOM     14  O   UNL d   1      33.241  19.789 -22.519  0.00  0.00    -0.260 OA
BRANCH  14  15
ATOM     15  C   UNL d   1      32.730  19.519 -23.093  0.00  0.00     0.391 C 
ATOM     16  F   UNL d   1      32.116  19.035 -22.894  0.00  0.00    -0.145 F 
ATOM     17  F   UNL d   1      32.837  19.738 -23.870  0.00  0.00    -0.145 F 
ENDBRANCH  14  15
ENDBRANCH   4  14
TORSDOF 3
ENDMDL
MODEL 4
REMARK VINA RESULT:      -2.2      2.136      3.702
REMARK  3 active torsions:
REMARK  status: ('A' for Active; 'I' for Inactive)
REMARK    1  A    between atoms: C_6  and  N_1 
REMARK    2  A    between atoms: C_7  and  O_10 
REMARK    3  A    between atoms: O_10  and  C_13 
ROOT
ATOM      1  C   UNL d   1      32.272  17.963 -23.728  0.00  0.00     0.070 A 
ATOM      2  C   UNL d   1      31.507  17.925 -24.061  0.00  0.00     0.020 A 
ATOM      3  C   UNL d   1      32.637  17.275 -23.454  0.00  0.00     0.020 A 
ATOM      4  C   UNL d   1      31.496  16.500 -23.833  0.00  0.00     0.105 A 
ATOM      5  C   UNL d   1      32.257  16.546 -23.503  0.00  0.00     0.026 A 
ATOM      6  C   UNL d   1      31.126  17.194 -24.110  0.00  0.00     0.026 A 
ENDROOT
BRANCH   1   7
ATOM      7  N   UNL d   1      32.650  18.688 -23.679  0.00  0.00    -0.242 N 
ATOM      8  C   UNL d   1      32.889  19.100 -22.981  0.00  0.00     0.267 A 
ATOM      9  C   UNL d   1      33.237  19.788 -23.215  0.00  0.00     0.066 A 
ATOM     10  O   UNL d   1      32.794  18.859 -22.201  0.00  0.00    -0.267 OA
ATOM     11  C   UNL d   1      33.236  19.844 -24.020  0.00  0.00     0.066 A 
ATOM     12  C   UNL d   1      32.861  19.141 -24.304  0.00  0.00     0.267 A 
ATOM     13  O   UNL d   1      32.728  18.942 -25.096  0.00  0.00    -0.267 OA
ENDBRANCH   1   7
BRANCH   4  14
ATOM     14  O   UNL d   1      31.127  15.792 -23.881  0.00  0.00    -0.260 OA
BRANCH  14  15
ATOM     15  C   UNL d   1      30.463  15.647 -23.432  0.00  0.00     0.391 C 
ATOM     16  F   UNL d   1      29.733  15.653 -23.776  0.00  0.00    -0.145 F 
ATOM     17  F   UNL d   1      30.534  15.495 -22.636  0.00  0.00    -0.145 F 
ENDBRANCH  14  15
ENDBRANCH   4  14
TORSDOF 3
ENDMDL
MODEL 5
REMARK VINA RESULT:      -2.0      5.638      7.241
REMARK  3 active torsions:
REMARK  status: ('A' for Active; 'I' for Inactive)
REMARK    1  A    between atoms: C_6  and  N_1 
REMARK    2  A    between atoms: C_7  and  O_10 
REMARK    3  A    between atoms: O_10  and  C_13 
ROOT
ATOM      1  C   UNL d   1      32.722  22.395 -20.210  0.00  0.00     0.070 A 
ATOM      2  C   UNL d   1      32.198  23.041 -20.129  0.00  0.00     0.020 A 
ATOM      3  C   UNL d   1      33.236  22.202 -19.593  0.00  0.00     0.020 A 
ATOM      4  C   UNL d   1      32.723  23.280 -18.806  0.00  0.00     0.105 A 
ATOM      5  C   UNL d   1      33.241  22.636 -18.894  0.00  0.00     0.026 A 
ATOM      6  C   UNL d   1      32.203  23.477 -19.428  0.00  0.00     0.026 A 
ENDROOT
BRANCH   1   7
ATOM      7  N   UNL d   1      32.717  21.963 -20.905  0.00  0.00    -0.242 N 
ATOM      8  C   UNL d   1      32.545  21.141 -21.002  0.00  0.00     0.267 A 
ATOM      9  C   UNL d   1      32.611  20.971 -21.787  0.00  0.00     0.066 A 
ATOM     10  O   UNL d   1      32.346  20.600 -20.416  0.00  0.00    -0.267 OA
ATOM     11  C   UNL d   1      32.815  21.633 -22.200  0.00  0.00     0.066 A 
ATOM     12  C   UNL d   1      32.880  22.256 -21.632  0.00  0.00     0.267 A 
ATOM     13  O   UNL d   1      33.078  23.044 -21.788  0.00  0.00    -0.267 OA
ENDBRANCH   1   7
BRANCH   4  14
ATOM     14  O   UNL d   1      32.728  23.702 -18.127  0.00  0.00    -0.260 OA
BRANCH  14  15
ATOM     15  C   UNL d   1      32.447  23.370 -17.438  0.00  0.00     0.391 C 
ATOM     16  F   UNL d   1      32.884  22.817 -17.047  0.00  0.00    -0.145 F 
ATOM     17  F   UNL d   1      31.723  23.597 -17.142  0.00  0.00    -0.145 F 
ENDBRANCH  14  15
ENDBRANCH   4  14
TORSDOF 3
ENDMDL
MODEL 6
REMARK VINA RESULT:      -1.0      3.328      4.418
REMARK  3 active torsions:
REMARK  status: ('A' for Active; 'I' for Inactive)
REMARK    1  A    between atoms: C_6  and  N_1 
REMARK    2  A    between atoms: C_7  and  O_10 
REMARK    3  A    between atoms: O_10  and  C_13 
ROOT
ATOM      1  C   UNL d   1      32.912  20.038 -22.533  0.00  0.00     0.070 A 
ATOM      2  C   UNL d   1      33.241  20.744 -22.836  0.00  0.00     0.020 A 
ATOM      3  C   UNL d   1      32.585  20.029 -21.775  0.00  0.00     0.020 A 
ATOM      4  C   UNL d   1      32.903  21.412 -21.603  0.00  0.00     0.105 A 
ATOM      5  C   UNL d   1      32.578  20.707 -21.308  0.00  0.00     0.026 A 
ATOM      6  C   UNL d   1      33.233  21.424 -22.368  0.00  0.00     0.026 A 
ENDROOT
BRANCH   1   7
ATOM      7  N   UNL d   1      32.920  19.364 -22.997  0.00  0.00    -0.242 N 
ATOM      8  C   UNL d   1      32.776  19.306 -23.827  0.00  0.00     0.267 A 
ATOM      9  C   UNL d   1      32.845  18.529 -24.031  0.00  0.00     0.066 A 
ATOM     10  O   UNL d   1      32.597  19.917 -24.347  0.00  0.00    -0.267 OA
ATOM     11  C   UNL d   1      33.025  18.085 -23.382  0.00  0.00     0.066 A 
ATOM     12  C   UNL d   1      33.070  18.624 -22.732  0.00  0.00     0.267 A 
ATOM     13  O   UNL d   1      33.240  18.430 -21.946  0.00  0.00    -0.267 OA
ENDBRANCH   1   7
BRANCH   4  14
ATOM     14  O   UNL d   1      32.895  22.071 -21.149  0.00  0.00    -0.260 OA
BRANCH  14  15
ATOM     15  C   UNL d   1      32.187  22.393 -20.909  0.00  0.00     0.391 C 
ATOM     16  F   UNL d   1      31.836  22.973 -21.346  0.00  0.00    -0.145 F 
ATOM     17  F   UNL d   1      31.831  22.129 -20.226  0.00  0.00    -0.145 F 
ENDBRANCH  14  15
ENDBRANCH   4  14
TORSDOF 3
ENDMDL
