MODEL 1
REMARK VINA RESULT:      -3.1      0.000      0.000
REMARK  2 active torsions:
REMARK  status: ('A' for Active; 'I' for Inactive)
REMARK    1  A    between atoms: C_7  and  N_2 
REMARK    2  A    between atoms: C_9  and  C_5 
ROOT
ATOM      1  C   UNL d   1      32.434  22.368 -20.122  0.00  0.00     0.208 A 
ATOM      2  N   UNL d   1      32.714  23.014 -20.558  0.00  0.00    -0.266 N 
ATOM      3  N   UNL d   1      32.452  22.394 -19.302  0.00  0.00    -0.199 NA
ATOM      4  N   UNL d   1      33.025  23.701 -19.342  0.00  0.00    -0.206 NA
ATOM      5  C   UNL d   1      32.745  23.056 -18.906  0.00  0.00     0.167 A 
ATOM      6  C   UNL d   1      33.005  23.672 -20.165  0.00  0.00     0.186 A 
ATOM      7  S   UNL d   1      32.137  21.696 -20.497  0.00  0.00    -0.038 SA
ENDROOT
BRANCH   2   8
ATOM      8  C   UNL d   1      32.697  22.990 -21.371  0.00  0.00     0.068 A 
ATOM      9  C   UNL d   1      33.189  22.494 -21.770  0.00  0.00     0.018 A 
ATOM     10  C   UNL d   1      33.185  22.456 -22.615  0.00  0.00     0.002 A 
ATOM     11  C   UNL d   1      32.666  22.939 -23.026  0.00  0.00     0.000 A 
ATOM     12  C   UNL d   1      32.161  23.448 -22.619  0.00  0.00     0.002 A 
ATOM     13  C   UNL d   1      32.648  22.915 -23.861  0.00  0.00     0.000 C 
ATOM     14  C   UNL d   1      32.178  23.473 -21.782  0.00  0.00     0.018 A 
ENDBRANCH   2   8
BRANCH   5  15
ATOM     15  C   UNL d   1      32.759  23.072 -18.102  0.00  0.00     0.036 A 
ATOM     16  C   UNL d   1      32.305  23.628 -17.688  0.00  0.00     0.003 A 
ATOM     17  C   UNL d   1      32.313  23.652 -16.868  0.00  0.00     0.000 A 
ATOM     18  C   UNL d   1      32.787  23.106 -16.441  0.00  0.00     0.000 A 
ATOM     19  C   UNL d   1      33.240  22.551 -16.845  0.00  0.00     0.000 A 
ATOM     20  C   UNL d   1      33.233  22.526 -17.674  0.00  0.00     0.003 A 
ENDBRANCH   5  15
TORSDOF 2
ENDMDL
MODEL 2
REMARK VINA RESULT:      -2.0      4.391      5.583
REMARK  2 active torsions:
REMARK  status: ('A' for Active; 'I' for Inactive)
REMARK    1  A    between atoms: C_7  and  N_2 
REMARK    2  A    between atoms: C_9  and  C_5 
ROOT
ATOM      1  C   UNL d   1      32.515  19.049 -23.583  0.00  0.00     0.208 A 
ATOM      2  N   UNL d   1      32.844  18.385 -23.214  0.00  0.00    -0.266 N 
ATOM      3  N   UNL d   1      32.533  19.776 -23.202  0.00  0.00    -0.199 NA
ATOM      4  N   UNL d   1      33.205  19.190 -22.087  0.00  0.00    -0.206 NA
ATOM      5  C   UNL d   1      32.875  19.854 -22.456  0.00  0.00     0.167 A 
ATOM      6  C   UNL d   1      33.185  18.462 -22.472  0.00  0.00     0.186 A 
ATOM      7  S   UNL d   1      32.167  18.995 -24.329  0.00  0.00    -0.038 SA
ENDROOT
BRANCH   2   8
ATOM      8  C   UNL d   1      32.827  17.664 -23.590  0.00  0.00     0.068 A 
ATOM      9  C   UNL d   1      32.406  17.056 -23.276  0.00  0.00     0.018 A 
ATOM     10  C   UNL d   1      32.377  16.299 -23.653  0.00  0.00     0.002 A 
ATOM     11  C   UNL d   1      32.790  16.195 -24.353  0.00  0.00     0.000 A 
ATOM     12  C   UNL d   1      33.223  16.818 -24.676  0.00  0.00     0.002 A 
ATOM     13  C   UNL d   1      32.774  15.455 -24.740  0.00  0.00     0.000 C 
ATOM     14  C   UNL d   1      33.241  17.560 -24.289  0.00  0.00     0.018 A 
ENDBRANCH   2   8
BRANCH   5  15
ATOM     15  C   UNL d   1      32.888  20.570 -22.090  0.00  0.00     0.036 A 
ATOM     16  C   UNL d   1      33.223  21.227 -22.468  0.00  0.00     0.003 A 
ATOM     17  C   UNL d   1      33.241  21.960 -22.102  0.00  0.00     0.000 A 
ATOM     18  C   UNL d   1      32.915  22.050 -21.333  0.00  0.00     0.000 A 
ATOM     19  C   UNL d   1      32.581  21.403 -20.952  0.00  0.00     0.000 A 
ATOM     20  C   UNL d   1      32.563  20.660 -21.321  0.00  0.00     0.003 A 
ENDBRANCH   5  15
TORSDOF 2
ENDMDL
MODEL 3
REMARK VINA RESULT:      -1.9      2.803      3.777
REMARK  2 active torsions:
REMARK  status: ('A' for Active; 'I' for Inactive)
REMARK    1  A    between atoms: C_7  and  N_2 
REMARK    2  A    between atoms: C_9  and  C_5 
ROOT
ATOM      1  C   UNL d   1      33.079  20.887 -22.532  0.00  0.00     0.208 A 
ATOM      2  N   UNL d   1      32.982  20.135 -22.199  0.00  0.00    -0.266 N 
ATOM      3  N   UNL d   1      33.015  21.553 -22.058  0.00  0.00    -0.199 NA
ATOM      4  N   UNL d   1      32.756  20.733 -20.918  0.00  0.00    -0.206 NA
ATOM      5  C   UNL d   1      32.854  21.484 -21.252  0.00  0.00     0.167 A 
ATOM      6  C   UNL d   1      32.822  20.066 -21.398  0.00  0.00     0.186 A 
ATOM      7  S   UNL d   1      33.241  20.980 -23.336  0.00  0.00    -0.038 SA
ENDROOT
BRANCH   2   8
ATOM      8  C   UNL d   1      33.046  19.474 -22.668  0.00  0.00     0.068 A 
ATOM      9  C   UNL d   1      32.993  19.541 -23.468  0.00  0.00     0.018 A 
ATOM     10  C   UNL d   1      33.057  18.863 -23.971  0.00  0.00     0.002 A 
ATOM     11  C   UNL d   1      33.175  18.130 -23.626  0.00  0.00     0.000 A 
ATOM     12  C   UNL d   1      33.229  18.059 -22.807  0.00  0.00     0.002 A 
ATOM     13  C   UNL d   1      33.240  17.450 -24.108  0.00  0.00     0.000 C 
ATOM     14  C   UNL d   1      33.163  18.740 -22.323  0.00  0.00     0.018 A 
ENDBRANCH   2   8
BRANCH   5  15
ATOM     15  C   UNL d   1      32.792  22.142 -20.794  0.00  0.00     0.036 A 
ATOM     16  C   UNL d   1      33.204  22.193 -20.077  0.00  0.00     0.003 A 
ATOM     17  C   UNL d   1      33.147  22.860 -19.604  0.00  0.00     0.000 A 
ATOM     18  C   UNL d   1      32.665  23.503 -19.849  0.00  0.00     0.000 A 
ATOM     19  C   UNL d   1      32.253  23.461 -20.559  0.00  0.00     0.000 A 
ATOM     20  C   UNL d   1      32.310  22.785 -21.038  0.00  0.00     0.003 A 
ENDBRANCH   5  15
TORSDOF 2
ENDMDL
MODEL 4
REMARK VINA RESULT:      -1.6      6.994      8.449
REMARK  2 active torsions:
REMARK  status: ('A' for Active; 'I' for Inactive)
REMARK    1  A    between atoms: C_7  and  N_2 
REMARK    2  A    between atoms: C_9  and  C_5 
ROOT
ATOM      1  C   UNL d   1      29.676  17.459 -24.654  0.00  0.00     0.208 A 
ATOM      2  N   UNL d   1      29.653  16.847 -24.096  0.00  0.00    -0.266 N 
ATOM      3  N   UNL d   1      30.394  17.804 -24.848  0.00  0.00    -0.199 NA
ATOM      4  N   UNL d   1      31.072  16.938 -23.937  0.00  0.00    -0.206 NA
ATOM      5  C   UNL d   1      31.095  17.550 -24.495  0.00  0.00     0.167 A 
ATOM      6  C   UNL d   1      30.349  16.594 -23.745  0.00  0.00     0.186 A 
ATOM      7  S   UNL d   1      28.987  17.729 -25.020  0.00  0.00    -0.038 SA
ENDROOT
BRANCH   2   8
ATOM      8  C   UNL d   1      28.941  16.503 -23.903  0.00  0.00     0.068 A 
ATOM      9  C   UNL d   1      28.491  16.814 -23.313  0.00  0.00     0.018 A 
ATOM     10  C   UNL d   1      27.749  16.470 -23.099  0.00  0.00     0.002 A 
ATOM     11  C   UNL d   1      27.493  15.807 -23.506  0.00  0.00     0.000 A 
ATOM     12  C   UNL d   1      27.953  15.487 -24.111  0.00  0.00     0.002 A 
ATOM     13  C   UNL d   1      26.762  15.453 -23.308  0.00  0.00     0.000 C 
ATOM     14  C   UNL d   1      28.686  15.841 -24.310  0.00  0.00     0.018 A 
ENDBRANCH   2   8
BRANCH   5  15
ATOM     15  C   UNL d   1      31.795  17.895 -24.691  0.00  0.00     0.036 A 
ATOM     16  C   UNL d   1      31.833  18.709 -24.837  0.00  0.00     0.003 A 
ATOM     17  C   UNL d   1      32.542  19.068 -25.038  0.00  0.00     0.000 A 
ATOM     18  C   UNL d   1      33.241  18.605 -25.097  0.00  0.00     0.000 A 
ATOM     19  C   UNL d   1      33.211  17.797 -24.954  0.00  0.00     0.000 A 
ATOM     20  C   UNL d   1      32.493  17.432 -24.750  0.00  0.00     0.003 A 
ENDBRANCH   5  15
TORSDOF 2
ENDMDL
MODEL 5
REMARK VINA RESULT:      -1.6      3.241      5.299
REMARK  2 active torsions:
REMARK  status: ('A' for Active; 'I' for Inactive)
REMARK    1  A    between atoms: C_7  and  N_2 
REMARK    2  A    between atoms: C_9  and  C_5 
ROOT
ATOM      1  C   UNL d   1      33.045  20.062 -21.723  0.00  0.00     0.208 A 
ATOM      2  N   UNL d   1      32.884  20.741 -22.170  0.00  0.00    -0.266 N 
ATOM      3  N   UNL d   1      33.058  19.329 -22.090  0.00  0.00    -0.199 NA
ATOM      4  N   UNL d   1      32.752  19.936 -23.345  0.00  0.00    -0.206 NA
ATOM      5  C   UNL d   1      32.913  19.258 -22.899  0.00  0.00     0.167 A 
ATOM      6  C   UNL d   1      32.739  20.671 -22.973  0.00  0.00     0.186 A 
ATOM      7  S   UNL d   1      33.193  20.110 -20.913  0.00  0.00    -0.038 SA
ENDROOT
BRANCH   2   8
ATOM      8  C   UNL d   1      32.870  21.469 -21.807  0.00  0.00     0.068 A 
ATOM      9  C   UNL d   1      32.501  21.559 -21.099  0.00  0.00     0.018 A 
ATOM     10  C   UNL d   1      32.477  22.310 -20.708  0.00  0.00     0.002 A 
ATOM     11  C   UNL d   1      32.840  22.950 -21.067  0.00  0.00     0.000 A 
ATOM     12  C   UNL d   1      33.220  22.859 -21.793  0.00  0.00     0.002 A 
ATOM     13  C   UNL d   1      32.827  23.698 -20.695  0.00  0.00     0.000 C 
ATOM     14  C   UNL d   1      33.234  22.109 -22.166  0.00  0.00     0.018 A 
ENDBRANCH   2   8
BRANCH   5  15
ATOM     15  C   UNL d   1      32.928  18.534 -23.250  0.00  0.00     0.036 A 
ATOM     16  C   UNL d   1      32.648  18.440 -24.024  0.00  0.00     0.003 A 
ATOM     17  C   UNL d   1      32.660  17.706 -24.390  0.00  0.00     0.000 A 
ATOM     18  C   UNL d   1      32.960  17.040 -23.976  0.00  0.00     0.000 A 
ATOM     19  C   UNL d   1      33.240  17.126 -23.208  0.00  0.00     0.000 A 
ATOM     20  C   UNL d   1      33.228  17.868 -22.837  0.00  0.00     0.003 A 
ENDBRANCH   5  15
TORSDOF 2
ENDMDL
MODEL 6
REMARK VINA RESULT:      -1.5      2.379      4.908
REMARK  2 active torsions:
REMARK  status: ('A' for Active; 'I' for Inactive)
REMARK    1  A    between atoms: C_7  and  N_2 
REMARK    2  A    between atoms: C_9  and  C_5 
ROOT
ATOM      1  C   UNL d   1      33.027  21.626 -21.866  0.00  0.00     0.208 A 
ATOM      2  N   UNL d   1      33.042  21.397 -21.070  0.00  0.00    -0.266 N 
ATOM      3  N   UNL d   1      33.037  21.053 -22.453  0.00  0.00    -0.199 NA
ATOM      4  N   UNL d   1      33.078  20.023 -21.466  0.00  0.00    -0.206 NA
ATOM      5  C   UNL d   1      33.062  20.251 -22.261  0.00  0.00     0.167 A 
ATOM      6  C   UNL d   1      33.068  20.601 -20.879  0.00  0.00     0.186 A 
ATOM      7  S   UNL d   1      33.001  22.422 -22.081  0.00  0.00    -0.038 SA
ENDROOT
BRANCH   2   8
ATOM      8  C   UNL d   1      33.033  21.964 -20.486  0.00  0.00     0.068 A 
ATOM      9  C   UNL d   1      32.843  22.724 -20.667  0.00  0.00     0.018 A 
ATOM     10  C   UNL d   1      32.828  23.327 -20.072  0.00  0.00     0.002 A 
ATOM     11  C   UNL d   1      33.012  23.120 -19.301  0.00  0.00     0.000 A 
ATOM     12  C   UNL d   1      33.206  22.341 -19.115  0.00  0.00     0.002 A 
ATOM     13  C   UNL d   1      33.002  23.702 -18.701  0.00  0.00     0.000 C 
ATOM     14  C   UNL d   1      33.217  21.758 -19.716  0.00  0.00     0.018 A 
ENDBRANCH   2   8
BRANCH   5  15
ATOM     15  C   UNL d   1      33.072  19.697 -22.843  0.00  0.00     0.036 A 
ATOM     16  C   UNL d   1      32.930  18.900 -22.664  0.00  0.00     0.003 A 
ATOM     17  C   UNL d   1      32.938  18.329 -23.251  0.00  0.00     0.000 A 
ATOM     18  C   UNL d   1      33.091  18.551 -24.047  0.00  0.00     0.000 A 
ATOM     19  C   UNL d   1      33.232  19.339 -24.232  0.00  0.00     0.000 A 
ATOM     20  C   UNL d   1      33.225  19.919 -23.639  0.00  0.00     0.003 A 
ENDBRANCH   5  15
TORSDOF 2
ENDMDL
