MODEL 1
REMARK VINA RESULT:      55.9      0.000      0.000
REMARK  7 active torsions:
REMARK  status: ('A' for Active; 'I' for Inactive)
REMARK    1  A    between atoms: N_2  and  S_1 
REMARK    2  A    between atoms: C_6  and  S_1 
REMARK    3  A    between atoms: C_11  and  C_3 
REMARK    4  A    between atoms: C_4  and  C_5 
REMARK       I    between atoms: N_7  and  C_4 
REMARK       I    between atoms: C_5  and  N_10 
REMARK    5  A    between atoms: C_19  and  N_7 
REMARK    6  A    between atoms: N_10  and  C_11 
REMARK    7  A    between atoms: O_23  and  C_18 
ROOT
ATOM      1  N   UNL d   1     -54.936-101.853 -44.203  0.00  0.00    -0.209 N 
ATOM      2  C   UNL d   1     -55.059-101.179 -44.666  0.00  0.00     0.197 A 
ATOM      3  O   UNL d   1     -55.100-101.232 -45.482  0.00  0.00    -0.287 OA
ATOM      4  C   UNL d   1     -54.853-102.592 -44.572  0.00  0.00     0.096 A 
ATOM      5  C   UNL d   1     -54.894-102.646 -45.389  0.00  0.00     0.047 A 
ATOM      6  C   UNL d   1     -55.016-101.972 -45.844  0.00  0.00     0.126 A 
ENDROOT
BRANCH   2   7
ATOM      7  C   UNL d   1     -55.143-100.437 -44.297  0.00  0.00     0.146 C 
BRANCH   7   8
ATOM      8  N   UNL d   1     -55.894-100.125 -44.163  0.00  0.00    -0.199 NA
ATOM      9  C   UNL d   1     -56.258 -99.673 -44.738  0.00  0.00     0.337 C 
ATOM     10  O   UNL d   1     -55.876 -99.523 -45.457  0.00  0.00    -0.260 OA
BRANCH   9  11
ATOM     11  C   UNL d   1     -57.010 -99.361 -44.603  0.00  0.00     0.337 C 
ATOM     12  N   UNL d   1     -57.461 -99.629 -43.970  0.00  0.00    -0.204 NA
ATOM     13  O   UNL d   1     -57.311 -98.778 -45.106  0.00  0.00    -0.260 OA
BRANCH  12  14
ATOM     14  C   UNL d   1     -58.215 -99.316 -43.835  0.00  0.00     0.085 A 
ATOM     15  C   UNL d   1     -58.519 -99.519 -43.105  0.00  0.00     0.019 A 
ATOM     16  C   UNL d   1     -59.267 -99.171 -43.051  0.00  0.00     0.002 A 
ATOM     17  C   UNL d   1     -59.416 -98.759 -43.744  0.00  0.00     0.002 A 
ATOM     18  C   UNL d   1     -58.751 -98.851 -44.241  0.00  0.00     0.019 A 
ENDBRANCH  12  14
ENDBRANCH   9  11
ENDBRANCH   7   8
ENDBRANCH   2   7
BRANCH   1  19
ATOM     19  S   UNL d   1     -54.897-101.788 -43.382  0.00  0.00     0.273 S 
ATOM     20  O   UNL d   1     -55.081-102.594 -43.315  0.00  0.00    -0.200 OA
ATOM     21  O   UNL d   1     -54.715-100.985 -43.450  0.00  0.00    -0.200 OA
BRANCH  19  22
ATOM     22  C   UNL d   1     -54.860-101.731 -42.560  0.00  0.00     0.104 A 
ATOM     23  C   UNL d   1     -54.795-102.416 -42.107  0.00  0.00     0.015 A 
ATOM     24  C   UNL d   1     -54.757-102.360 -41.283  0.00  0.00     0.025 A 
ATOM     25  C   UNL d   1     -54.786-101.628 -40.916  0.00  0.00     0.094 A 
ATOM     26  C   UNL d   1     -54.852-100.933 -41.363  0.00  0.00     0.025 A 
ATOM     27  C   UNL d   1     -54.889-100.985 -42.191  0.00  0.00     0.015 A 
BRANCH  25  28
ATOM     28  O   UNL d   1     -54.748-101.574 -40.089  0.00  0.00    -0.328 OA
ATOM     29  C   UNL d   1     -54.734-102.259 -39.630  0.00  0.00     0.181 C 
ENDBRANCH  25  28
ENDBRANCH  19  22
ENDBRANCH   1  19
TORSDOF 7
ENDMDL
