MODEL 1
REMARK VINA RESULT:      -7.8      0.000      0.000
REMARK  1 active torsions:
REMARK  status: ('A' for Active; 'I' for Inactive)
REMARK    1  A    between atoms: C_4  and  C_1 
ROOT
ATOM      1  C   UNL d   1     -48.675  12.989  22.947  0.00  0.00     0.163 A 
ATOM      2  N   UNL d   1     -48.042  12.460  22.941  0.00  0.00    -0.225 NA
ATOM      3  N   UNL d   1     -48.366  13.762  22.935  0.00  0.00    -0.225 NA
ATOM      4  C   UNL d   1     -47.340  12.897  22.925  0.00  0.00     0.101 A 
ATOM      5  C   UNL d   1     -47.541  13.705  22.920  0.00  0.00     0.101 A 
ATOM      6  C   UNL d   1     -46.541  12.670  22.913  0.00  0.00     0.021 A 
ATOM      7  C   UNL d   1     -46.940  14.278  22.904  0.00  0.00     0.021 A 
ATOM      8  C   UNL d   1     -46.151  14.050  22.892  0.00  0.00     0.002 A 
ATOM      9  C   UNL d   1     -45.952  13.249  22.897  0.00  0.00     0.002 A 
ENDROOT
BRANCH   1  10
ATOM     10  C   UNL d   1     -49.475  12.791  22.964  0.00  0.00     0.046 A 
ATOM     11  C   UNL d   1     -49.892  12.734  22.262  0.00  0.00     0.061 A 
ATOM     12 CL   UNL d   1     -49.505  12.878  21.541  0.00  0.00    -0.082 Cl
ATOM     13  C   UNL d   1     -50.680  12.538  22.278  0.00  0.00     0.011 A 
ATOM     14  C   UNL d   1     -51.064  12.396  22.996  0.00  0.00     0.001 A 
ATOM     15  C   UNL d   1     -50.642  12.454  23.698  0.00  0.00     0.000 A 
ATOM     16  C   UNL d   1     -49.843  12.652  23.682  0.00  0.00     0.004 A 
ENDBRANCH   1  10
TORSDOF 1
ENDMDL
MODEL 2
REMARK VINA RESULT:      -7.5      1.248      3.291
REMARK  1 active torsions:
REMARK  status: ('A' for Active; 'I' for Inactive)
REMARK    1  A    between atoms: C_4  and  C_1 
ROOT
ATOM      1  C   UNL d   1     -48.668  12.813  22.841  0.00  0.00     0.163 A 
ATOM      2  N   UNL d   1     -49.186  13.286  23.274  0.00  0.00    -0.225 NA
ATOM      3  N   UNL d   1     -48.987  12.712  22.079  0.00  0.00    -0.225 NA
ATOM      4  C   UNL d   1     -49.826  13.482  22.788  0.00  0.00     0.101 A 
ATOM      5  C   UNL d   1     -49.702  13.125  22.045  0.00  0.00     0.101 A 
ATOM      6  C   UNL d   1     -50.508  13.938  22.918  0.00  0.00     0.021 A 
ATOM      7  C   UNL d   1     -50.262  13.228  21.441  0.00  0.00     0.021 A 
ATOM      8  C   UNL d   1     -50.935  13.679  21.573  0.00  0.00     0.002 A 
ATOM      9  C   UNL d   1     -51.058  14.033  22.308  0.00  0.00     0.002 A 
ENDROOT
BRANCH   1  10
ATOM     10  C   UNL d   1     -47.958  12.494  23.113  0.00  0.00     0.046 A 
ATOM     11  C   UNL d   1     -47.272  12.936  23.066  0.00  0.00     0.061 A 
ATOM     12 CL   UNL d   1     -47.298  13.702  22.745  0.00  0.00    -0.082 Cl
ATOM     13  C   UNL d   1     -46.572  12.622  23.334  0.00  0.00     0.011 A 
ATOM     14  C   UNL d   1     -46.548  11.860  23.653  0.00  0.00     0.001 A 
ATOM     15  C   UNL d   1     -47.240  11.419  23.698  0.00  0.00     0.000 A 
ATOM     16  C   UNL d   1     -47.948  11.737  23.426  0.00  0.00     0.004 A 
ENDBRANCH   1  10
TORSDOF 1
ENDMDL
