MODEL 1
REMARK VINA RESULT:      -2.0      0.000      0.000
REMARK  1 active torsions:
REMARK  status: ('A' for Active; 'I' for Inactive)
REMARK    1  A    between atoms: C_13  and  C_7 
ROOT
ATOM      1  C   UNL d   1      31.176  15.939 -23.370  0.00  0.00     0.120 A 
ATOM      2  C   UNL d   1      31.629  16.600 -23.563  0.00  0.00     0.058 A 
ATOM      3  N   UNL d   1      31.635  15.453 -22.889  0.00  0.00    -0.195 NA
ATOM      4  S   UNL d   1      30.413  15.869 -23.653  0.00  0.00    -0.072 SA
ATOM      5  C   UNL d   1      30.099  16.455 -24.129  0.00  0.00     0.009 A 
ATOM      6  C   UNL d   1      30.551  17.119 -24.325  0.00  0.00    -0.015 A 
ATOM      7  C   UNL d   1      31.315  17.186 -24.039  0.00  0.00     0.005 A 
ATOM      8  C   UNL d   1      32.375  15.811 -22.784  0.00  0.00     0.311 A 
ATOM      9  S   UNL d   1      32.363  16.525 -23.207  0.00  0.00    -0.024 SA
ATOM     10  C   UNL d   1      30.233  17.710 -24.806  0.00  0.00     0.045 A 
ATOM     11  C   UNL d   1      29.328  16.383 -24.415  0.00  0.00     0.050 A 
ATOM     12  C   UNL d   1      29.946  16.926 -24.470  0.00  0.00     0.018 A 
ATOM     13  O   UNL d   1      33.008  15.515 -22.342  0.00  0.00    -0.258 OA
ATOM     14  C   UNL d   1      29.462  17.637 -25.092  0.00  0.00    -0.026 A 
ATOM     15  C   UNL d   1      29.010  16.974 -24.896  0.00  0.00    -0.026 A 
ENDROOT
BRANCH   7  16
ATOM     16  C   UNL d   1      31.767  17.844 -24.232  0.00  0.00     0.001 A 
ATOM     17  C   UNL d   1      32.251  17.830 -24.906  0.00  0.00     0.003 A 
ATOM     18  C   UNL d   1      32.700  18.485 -25.097  0.00  0.00     0.042 A 
ATOM     19  C   UNL d   1      32.675  19.167 -24.620  0.00  0.00     0.196 A 
ATOM     20  C   UNL d   1      32.186  19.171 -23.948  0.00  0.00     0.042 A 
ATOM     21  O   UNL d   1      33.128  19.827 -24.815  0.00  0.00    -0.287 OA
ATOM     22  C   UNL d   1      31.739  18.512 -23.761  0.00  0.00     0.003 A 
ENDBRANCH   7  16
TORSDOF 1
ENDMDL
MODEL 2
REMARK VINA RESULT:       0.9      3.586      5.007
REMARK  1 active torsions:
REMARK  status: ('A' for Active; 'I' for Inactive)
REMARK    1  A    between atoms: C_13  and  C_7 
ROOT
ATOM      1  C   UNL d   1      33.156  19.889 -23.289  0.00  0.00     0.120 A 
ATOM      2  C   UNL d   1      32.977  20.267 -22.579  0.00  0.00     0.058 A 
ATOM      3  N   UNL d   1      33.233  19.084 -23.131  0.00  0.00    -0.195 NA
ATOM      4  S   UNL d   1      33.224  20.322 -23.978  0.00  0.00    -0.072 SA
ATOM      5  C   UNL d   1      33.114  21.133 -23.962  0.00  0.00     0.009 A 
ATOM      6  C   UNL d   1      32.935  21.515 -23.252  0.00  0.00    -0.015 A 
ATOM      7  C   UNL d   1      32.868  21.077 -22.563  0.00  0.00     0.005 A 
ATOM      8  C   UNL d   1      33.102  18.962 -22.322  0.00  0.00     0.311 A 
ATOM      9  S   UNL d   1      32.944  19.702 -21.985  0.00  0.00    -0.024 SA
ATOM     10  C   UNL d   1      32.825  22.333 -23.238  0.00  0.00     0.045 A 
ATOM     11  C   UNL d   1      33.183  21.569 -24.659  0.00  0.00     0.050 A 
ATOM     12  C   UNL d   1      33.020  21.718 -23.865  0.00  0.00     0.018 A 
ATOM     13  O   UNL d   1      33.125  18.238 -21.923  0.00  0.00    -0.258 OA
ATOM     14  C   UNL d   1      32.894  22.770 -23.935  0.00  0.00    -0.026 A 
ATOM     15  C   UNL d   1      33.073  22.388 -24.645  0.00  0.00    -0.026 A 
ENDROOT
BRANCH   7  16
ATOM     16  C   UNL d   1      32.690  21.454 -21.856  0.00  0.00     0.001 A 
ATOM     17  C   UNL d   1      31.950  21.334 -21.499  0.00  0.00     0.003 A 
ATOM     18  C   UNL d   1      31.774  21.710 -20.795  0.00  0.00     0.042 A 
ATOM     19  C   UNL d   1      32.332  22.211 -20.433  0.00  0.00     0.196 A 
ATOM     20  C   UNL d   1      33.069  22.324 -20.799  0.00  0.00     0.042 A 
ATOM     21  O   UNL d   1      32.152  22.589 -19.723  0.00  0.00    -0.287 OA
ATOM     22  C   UNL d   1      33.241  21.945 -21.504  0.00  0.00     0.003 A 
ENDBRANCH   7  16
TORSDOF 1
ENDMDL
MODEL 3
REMARK VINA RESULT:       0.9      4.572      6.144
REMARK  1 active torsions:
REMARK  status: ('A' for Active; 'I' for Inactive)
REMARK    1  A    between atoms: C_13  and  C_7 
ROOT
ATOM      1  C   UNL d   1      32.680  20.824 -20.616  0.00  0.00     0.120 A 
ATOM      2  C   UNL d   1      32.680  21.236 -21.331  0.00  0.00     0.058 A 
ATOM      3  N   UNL d   1      32.676  20.019 -20.792  0.00  0.00    -0.195 NA
ATOM      4  S   UNL d   1      32.685  21.231 -19.909  0.00  0.00    -0.072 SA
ATOM      5  C   UNL d   1      32.688  22.049 -19.909  0.00  0.00     0.009 A 
ATOM      6  C   UNL d   1      32.688  22.465 -20.623  0.00  0.00    -0.015 A 
ATOM      7  C   UNL d   1      32.683  22.054 -21.331  0.00  0.00     0.005 A 
ATOM      8  C   UNL d   1      32.673  19.931 -21.615  0.00  0.00     0.311 A 
ATOM      9  S   UNL d   1      32.675  20.692 -21.944  0.00  0.00    -0.024 SA
ATOM     10  C   UNL d   1      32.692  23.291 -20.622  0.00  0.00     0.045 A 
ATOM     11  C   UNL d   1      32.693  22.460 -19.193  0.00  0.00     0.050 A 
ATOM     12  C   UNL d   1      32.691  22.644 -19.997  0.00  0.00     0.018 A 
ATOM     13  O   UNL d   1      32.668  19.218 -22.035  0.00  0.00    -0.258 OA
ATOM     14  C   UNL d   1      32.696  23.702 -19.906  0.00  0.00    -0.026 A 
ATOM     15  C   UNL d   1      32.697  23.286 -19.192  0.00  0.00    -0.026 A 
ENDROOT
BRANCH   7  16
ATOM     16  C   UNL d   1      32.683  22.464 -22.042  0.00  0.00     0.001 A 
ATOM     17  C   UNL d   1      32.120  23.059 -22.175  0.00  0.00     0.003 A 
ATOM     18  C   UNL d   1      32.120  23.467 -22.883  0.00  0.00     0.042 A 
ATOM     19  C   UNL d   1      32.681  23.289 -23.471  0.00  0.00     0.196 A 
ATOM     20  C   UNL d   1      33.240  22.691 -23.328  0.00  0.00     0.042 A 
ATOM     21  O   UNL d   1      32.679  23.702 -24.185  0.00  0.00    -0.287 OA
ATOM     22  C   UNL d   1      33.236  22.286 -22.618  0.00  0.00     0.003 A 
ENDBRANCH   7  16
TORSDOF 1
ENDMDL
