MODEL 1
REMARK VINA RESULT:      39.7      0.000      0.000
REMARK  3 active torsions:
REMARK  status: ('A' for Active; 'I' for Inactive)
REMARK    1  A    between atoms: C_4  and  C_1 
REMARK       I    between atoms: N_8  and  C_1 
REMARK    2  A    between atoms: S_14  and  C_2 
REMARK    3  A    between atoms: C_10  and  N_8 
ROOT
ATOM      1  C   UNL d   1      13.086  12.404  -4.978  0.00  0.00     0.136 A 
ATOM      2  N   UNL d   1      12.944  11.809  -4.424  0.00  0.00    -0.232 NA
ATOM      3  S   UNL d   1      13.412  13.053  -4.638  0.00  0.00    -0.060 SA
ATOM      4  C   UNL d   1      13.485  12.873  -3.830  0.00  0.00     0.051 A 
ATOM      5  C   UNL d   1      13.195  12.104  -3.704  0.00  0.00     0.089 A 
ATOM      6  C   UNL d   1      13.777  13.309  -3.197  0.00  0.00     0.027 A 
ATOM      7  C   UNL d   1      13.783  12.982  -2.430  0.00  0.00     0.085 A 
ATOM      8  C   UNL d   1      13.201  11.781  -2.946  0.00  0.00     0.021 A 
ATOM      9  C   UNL d   1      13.493  12.217  -2.313  0.00  0.00     0.021 A 
ENDROOT
BRANCH   7  10
ATOM     10  N   UNL d   1      14.080  13.426  -1.787  0.00  0.00    -0.208 NA
ATOM     11  C   UNL d   1      14.709  13.944  -1.915  0.00  0.00     0.283 C 
ATOM     12  O   UNL d   1      15.047  14.034  -2.652  0.00  0.00    -0.265 OA
BRANCH  11  13
ATOM     13  C   UNL d   1      15.004  14.385  -1.274  0.00  0.00     0.113 A 
ATOM     14  C   UNL d   1      14.908  15.204  -1.274  0.00  0.00     0.147 A 
ATOM     15  F   UNL d   1      14.517  15.597  -1.909  0.00  0.00    -0.204 F 
ATOM     16  C   UNL d   1      15.207  15.650  -0.627  0.00  0.00     0.030 A 
ATOM     17  C   UNL d   1      15.586  15.253  -0.015  0.00  0.00     0.005 A 
ATOM     18  C   UNL d   1      15.681  14.445  -0.015  0.00  0.00     0.030 A 
ATOM     19  C   UNL d   1      15.382  13.998  -0.662  0.00  0.00     0.147 A 
ATOM     20  F   UNL d   1      15.472  13.169  -0.676  0.00  0.00    -0.204 F 
ENDBRANCH  11  13
ENDBRANCH   7  10
BRANCH   1  21
ATOM     21  S   UNL d   1      12.913  12.335  -5.775  0.00  0.00    -0.087 SA
ATOM     22  C   UNL d   1      13.413  11.914  -6.260  0.00  0.00     0.076 C 
ENDBRANCH   1  21
TORSDOF 3
ENDMDL
