MODEL 1
REMARK VINA RESULT:     123.1      0.000      0.000
REMARK  5 active torsions:
REMARK  status: ('A' for Active; 'I' for Inactive)
REMARK       I    between atoms: C_4  and  N_1 
REMARK    1  A    between atoms: C_8  and  C_3 
REMARK    2  A    between atoms: C_9  and  C_4 
REMARK    3  A    between atoms: S_5  and  N_10 
REMARK    4  A    between atoms: C_11  and  C_6 
REMARK    5  A    between atoms: N_10  and  C_22 
ROOT
ATOM      1  N   UNL d   1     -56.210-100.895 -43.595  0.00  0.00    -0.193 N 
ATOM      2  N   UNL d   1     -55.769-101.364 -43.074  0.00  0.00    -0.163 NA
ATOM      3  C   UNL d   1     -56.708-100.413 -43.138  0.00  0.00     0.090 A 
ATOM      4  C   UNL d   1     -56.158-100.910 -44.418  0.00  0.00     0.303 C 
ATOM      5  C   UNL d   1     -55.992-101.174 -42.303  0.00  0.00     0.103 A 
ATOM      6  C   UNL d   1     -56.570-100.587 -42.348  0.00  0.00     0.040 A 
ATOM      7  O   UNL d   1     -56.639-100.404 -44.863  0.00  0.00    -0.263 OA
ENDROOT
BRANCH   5   8
ATOM      8  C   UNL d   1     -55.691-101.509 -41.616  0.00  0.00     0.019 A 
ATOM      9  C   UNL d   1     -56.065-102.155 -41.282  0.00  0.00     0.003 A 
ATOM     10  C   UNL d   1     -55.763-102.493 -40.589  0.00  0.00     0.020 A 
ATOM     11  C   UNL d   1     -55.083-102.177 -40.236  0.00  0.00     0.093 A 
ATOM     12  C   UNL d   1     -54.711-101.524 -40.580  0.00  0.00     0.020 A 
ATOM     13  C   UNL d   1     -55.009-101.190 -41.264  0.00  0.00     0.003 A 
BRANCH  11  14
ATOM     14  N   UNL d   1     -54.788-102.518 -39.547  0.00  0.00    -0.162 NA
BRANCH  14  15
ATOM     15  S   UNL d   1     -55.024-102.252 -38.810  0.00  0.00     0.266 S 
ATOM     16  O   UNL d   1     -55.282-101.608 -39.262  0.00  0.00    -0.203 OA
ATOM     17  O   UNL d   1     -55.360-101.729 -38.266  0.00  0.00    -0.203 OA
ATOM     18  C   UNL d   1     -54.777-102.879 -38.340  0.00  0.00     0.165 C 
ENDBRANCH  14  15
ENDBRANCH  11  14
ENDBRANCH   5   8
BRANCH   3  19
ATOM     19  C   UNL d   1     -57.238 -99.864 -43.431  0.00  0.00     0.045 A 
ATOM     20  C   UNL d   1     -57.026 -99.434 -44.117  0.00  0.00     0.141 A 
ATOM     21  F   UNL d   1     -56.296 -99.570 -44.478  0.00  0.00    -0.204 F 
ATOM     22  C   UNL d   1     -57.557 -98.874 -44.423  0.00  0.00     0.030 A 
ATOM     23  C   UNL d   1     -58.246 -98.755 -44.070  0.00  0.00     0.002 A 
ATOM     24  C   UNL d   1     -58.458 -99.185 -43.384  0.00  0.00     0.000 A 
ATOM     25  C   UNL d   1     -57.979 -99.749 -43.036  0.00  0.00     0.004 A 
ENDBRANCH   3  19
BRANCH   4  26
ATOM     26  C   UNL d   1     -55.640-101.417 -44.785  0.00  0.00     0.158 A 
ATOM     27  O   UNL d   1     -55.139-101.226 -45.434  0.00  0.00    -0.300 OA
ATOM     28  C   UNL d   1     -54.711-101.907 -45.623  0.00  0.00     0.123 A 
ATOM     29  C   UNL d   1     -54.937-102.504 -45.108  0.00  0.00     0.029 A 
ATOM     30  C   UNL d   1     -55.509-102.188 -44.598  0.00  0.00     0.032 A 
ENDBRANCH   4  26
TORSDOF 5
ENDMDL
