MODEL 1
REMARK VINA RESULT:      74.7      0.000      0.000
REMARK  5 active torsions:
REMARK  status: ('A' for Active; 'I' for Inactive)
REMARK    1  A    between atoms: C_22  and  N_10 
REMARK    2  A    between atoms: C_19  and  N_13 
REMARK    3  A    between atoms: N_14  and  C_26 
REMARK    4  A    between atoms: C_25  and  C_22 
REMARK    5  A    between atoms: C_26  and  C_25 
ROOT
ATOM      1  C   UNL d   1     -47.511  31.211  34.968  0.00  0.00     0.173 A 
ATOM      2  C   UNL d   1     -48.110  31.011  34.474  0.00  0.00     0.191 A 
ATOM      3  C   UNL d   1     -48.187  29.718  35.059  0.00  0.00     0.722 A 
ATOM      4  N   UNL d   1     -47.571  29.913  35.571  0.00  0.00    -0.131 N 
ATOM      5  N   UNL d   1     -48.456  30.267  34.510  0.00  0.00    -0.042 NA
ATOM      6  N   UNL d   1     -48.389  31.547  33.923  0.00  0.00    -0.240 N 
ATOM      7  N   UNL d   1     -47.401  32.495  34.421  0.00  0.00    -0.223 N 
ATOM      8  C   UNL d   1     -48.034  32.294  33.894  0.00  0.00     0.343 A 
ATOM      9  C   UNL d   1     -47.139  31.943  34.963  0.00  0.00     0.288 A 
ATOM     10  N   UNL d   1     -48.533  28.967  35.098  0.00  0.00    -0.139 N 
ATOM     11  C   UNL d   1     -47.648  28.611  36.160  0.00  0.00     0.116 A 
ATOM     12  C   UNL d   1     -48.264  28.415  35.648  0.00  0.00     0.100 A 
ATOM     13  O   UNL d   1     -48.337  32.842  33.313  0.00  0.00    -0.245 OA
ATOM     14  O   UNL d   1     -46.523  32.138  35.475  0.00  0.00    -0.265 OA
ATOM     15  C   UNL d   1     -49.005  31.352  33.410  0.00  0.00     0.105 C 
ATOM     16  C   UNL d   1     -47.054  33.231  34.388  0.00  0.00     0.107 C 
ATOM     17  C   UNL d   1     -48.627  27.669  35.668  0.00  0.00     0.021 C 
ENDROOT
BRANCH  10  18
ATOM     18  C   UNL d   1     -49.150  28.769  34.587  0.00  0.00     0.100 C 
BRANCH  18  19
ATOM     19  C   UNL d   1     -49.241  27.987  34.323  0.00  0.00     0.039 C 
BRANCH  19  20
ATOM     20  C   UNL d   1     -49.680  27.830  33.657  0.00  0.00     0.082 C 
BRANCH  20  21
ATOM     21  N   UNL d   1     -50.107  27.129  33.599  0.00  0.00    -0.300 N 
ATOM     22  C   UNL d   1     -49.725  26.437  33.363  0.00  0.00     0.100 A 
ATOM     23  C   UNL d   1     -50.153  25.741  33.306  0.00  0.00     0.100 A 
ATOM     24  N   UNL d   1     -50.954  25.734  33.484  0.00  0.00    -0.301 N 
ATOM     25  C   UNL d   1     -51.326  26.424  33.718  0.00  0.00     0.100 A 
ATOM     26  C   UNL d   1     -50.902  27.130  33.777  0.00  0.00     0.100 A 
BRANCH  24  27
ATOM     27  C   UNL d   1     -51.381  25.034  33.427  0.00  0.00     0.064 A 
ATOM     28  C   UNL d   1     -52.197  25.051  33.404  0.00  0.00     0.018 A 
ATOM     29  C   UNL d   1     -52.628  24.359  33.347  0.00  0.00     0.002 A 
ATOM     30  C   UNL d   1     -52.230  23.636  33.313  0.00  0.00     0.000 A 
ATOM     31  C   UNL d   1     -51.402  23.616  33.336  0.00  0.00     0.002 A 
ATOM     32  C   UNL d   1     -50.983  24.311  33.393  0.00  0.00     0.018 A 
ENDBRANCH  24  27
ENDBRANCH  20  21
ENDBRANCH  19  20
ENDBRANCH  18  19
ENDBRANCH  10  18
TORSDOF 5
ENDMDL
