MODEL 1
REMARK VINA RESULT:      -3.3      0.000      0.000
REMARK  5 active torsions:
REMARK  status: ('A' for Active; 'I' for Inactive)
REMARK    1  A    between atoms: C_2  and  C_1 
REMARK    2  A    between atoms: C_3  and  C_1 
REMARK    3  A    between atoms: C_4  and  C_2 
REMARK    4  A    between atoms: C_6  and  C_3 
REMARK    5  A    between atoms: P_5  and  C_4 
ROOT
ATOM      1  C   UNL d   1      29.626  16.227 -23.787  0.00  0.00     0.389 C 
ATOM      2  F   UNL d   1      29.455  16.525 -24.532  0.00  0.00    -0.191 F 
ATOM      3  F   UNL d   1      29.804  15.921 -23.024  0.00  0.00    -0.191 F 
ENDROOT
BRANCH   1   4
ATOM      4  C   UNL d   1      30.453  16.221 -23.977  0.00  0.00     0.387 C 
ATOM      5  F   UNL d   1      30.260  16.225 -24.780  0.00  0.00    -0.190 F 
ATOM      6  F   UNL d   1      30.642  16.216 -23.154  0.00  0.00    -0.190 F 
BRANCH   4   7
ATOM      7  C   UNL d   1      31.252  16.215 -24.170  0.00  0.00     0.329 C 
ATOM      8  O   UNL d   1      31.607  15.537 -24.486  0.00  0.00    -0.275 OA
BRANCH   7   9
ATOM      9  P   UNL d   1      31.723  16.900 -24.050  0.00  0.00     0.339 P 
ATOM     10  O   UNL d   1      31.504  17.190 -24.785  0.00  0.00    -0.634 OA
ATOM     11  O   UNL d   1      31.947  16.610 -23.305  0.00  0.00    -0.634 OA
ATOM     12  O   UNL d   1      32.185  17.559 -23.917  0.00  0.00    -0.634 OA
ENDBRANCH   7   9
ENDBRANCH   4   7
ENDBRANCH   1   4
BRANCH   1  13
ATOM     13  C   UNL d   1      28.827  16.229 -23.595  0.00  0.00     0.393 C 
ATOM     14  F   UNL d   1      28.891  15.453 -23.321  0.00  0.00    -0.188 F 
ATOM     15  F   UNL d   1      28.754  17.020 -23.871  0.00  0.00    -0.188 F 
BRANCH  13  16
ATOM     16  C   UNL d   1      28.025  16.227 -23.400  0.00  0.00     0.322 C 
ATOM     17  F   UNL d   1      27.578  15.542 -23.514  0.00  0.00    -0.171 F 
ATOM     18  F   UNL d   1      27.666  16.905 -23.092  0.00  0.00    -0.171 F 
ENDBRANCH  13  16
ENDBRANCH   1  13
TORSDOF 5
ENDMDL
MODEL 2
REMARK VINA RESULT:      -3.3      1.979      3.060
REMARK  5 active torsions:
REMARK  status: ('A' for Active; 'I' for Inactive)
REMARK    1  A    between atoms: C_2  and  C_1 
REMARK    2  A    between atoms: C_3  and  C_1 
REMARK    3  A    between atoms: C_4  and  C_2 
REMARK    4  A    between atoms: C_6  and  C_3 
REMARK    5  A    between atoms: P_5  and  C_4 
ROOT
ATOM      1  C   UNL d   1      30.947  16.600 -23.790  0.00  0.00     0.389 C 
ATOM      2  F   UNL d   1      30.895  17.142 -24.403  0.00  0.00    -0.191 F 
ATOM      3  F   UNL d   1      30.997  16.042 -23.162  0.00  0.00    -0.191 F 
ENDROOT
BRANCH   1   4
ATOM      4  C   UNL d   1      30.163  16.326 -23.963  0.00  0.00     0.387 C 
ATOM      5  F   UNL d   1      30.247  16.602 -24.737  0.00  0.00    -0.190 F 
ATOM      6  F   UNL d   1      30.084  16.048 -23.170  0.00  0.00    -0.190 F 
BRANCH   4   7
ATOM      7  C   UNL d   1      29.404  16.065 -24.140  0.00  0.00     0.329 C 
ATOM      8  O   UNL d   1      29.282  15.453 -24.682  0.00  0.00    -0.275 OA
BRANCH   7   9
ATOM      9  P   UNL d   1      28.736  16.417 -23.770  0.00  0.00     0.339 P 
ATOM     10  O   UNL d   1      28.729  17.015 -24.333  0.00  0.00    -0.634 OA
ATOM     11  O   UNL d   1      28.740  15.814 -23.199  0.00  0.00    -0.634 OA
ATOM     12  O   UNL d   1      28.088  16.746 -23.399  0.00  0.00    -0.634 OA
ENDBRANCH   7   9
ENDBRANCH   4   7
ENDBRANCH   1   4
BRANCH   1  13
ATOM     13  C   UNL d   1      31.707  16.858 -23.615  0.00  0.00     0.393 C 
ATOM     14  F   UNL d   1      31.970  16.075 -23.605  0.00  0.00    -0.188 F 
ATOM     15  F   UNL d   1      31.447  17.657 -23.624  0.00  0.00    -0.188 F 
BRANCH  13  16
ATOM     16  C   UNL d   1      32.472  17.112 -23.440  0.00  0.00     0.322 C 
ATOM     17  F   UNL d   1      32.584  17.741 -22.916  0.00  0.00    -0.171 F 
ATOM     18  F   UNL d   1      33.127  16.743 -23.784  0.00  0.00    -0.171 F 
ENDBRANCH  13  16
ENDBRANCH   1  13
TORSDOF 5
ENDMDL
MODEL 3
REMARK VINA RESULT:      -3.1      1.296      1.808
REMARK  5 active torsions:
REMARK  status: ('A' for Active; 'I' for Inactive)
REMARK    1  A    between atoms: C_2  and  C_1 
REMARK    2  A    between atoms: C_3  and  C_1 
REMARK    3  A    between atoms: C_4  and  C_2 
REMARK    4  A    between atoms: C_6  and  C_3 
REMARK    5  A    between atoms: P_5  and  C_4 
ROOT
ATOM      1  C   UNL d   1      30.572  17.233 -24.360  0.00  0.00     0.389 C 
ATOM      2  F   UNL d   1      30.566  17.755 -24.992  0.00  0.00    -0.191 F 
ATOM      3  F   UNL d   1      30.583  16.698 -23.711  0.00  0.00    -0.191 F 
ENDROOT
BRANCH   1   4
ATOM      4  C   UNL d   1      31.405  17.360 -24.261  0.00  0.00     0.387 C 
ATOM      5  F   UNL d   1      31.426  17.738 -24.995  0.00  0.00    -0.190 F 
ATOM      6  F   UNL d   1      31.376  16.973 -23.511  0.00  0.00    -0.190 F 
BRANCH   4   7
ATOM      7  C   UNL d   1      32.213  17.488 -24.174  0.00  0.00     0.329 C 
ATOM      8  O   UNL d   1      32.762  17.011 -24.568  0.00  0.00    -0.275 OA
BRANCH   7   9
ATOM      9  P   UNL d   1      32.494  18.108 -23.682  0.00  0.00     0.339 P 
ATOM     10  O   UNL d   1      32.520  17.598 -23.040  0.00  0.00    -0.634 OA
ATOM     11  O   UNL d   1      32.469  18.628 -24.330  0.00  0.00    -0.634 OA
ATOM     12  O   UNL d   1      32.767  18.721 -23.218  0.00  0.00    -0.634 OA
ENDBRANCH   7   9
ENDBRANCH   4   7
ENDBRANCH   1   4
BRANCH   1  13
ATOM     13  C   UNL d   1      29.765  17.104 -24.448  0.00  0.00     0.393 C 
ATOM     14  F   UNL d   1      29.618  17.892 -24.253  0.00  0.00    -0.188 F 
ATOM     15  F   UNL d   1      29.908  16.300 -24.648  0.00  0.00    -0.188 F 
BRANCH  13  16
ATOM     16  C   UNL d   1      28.955  16.978 -24.536  0.00  0.00     0.322 C 
ATOM     17  F   UNL d   1      28.420  17.463 -24.133  0.00  0.00    -0.171 F 
ATOM     18  F   UNL d   1      28.674  16.372 -25.022  0.00  0.00    -0.171 F 
ENDBRANCH  13  16
ENDBRANCH   1  13
TORSDOF 5
ENDMDL
MODEL 4
REMARK VINA RESULT:      -0.9      2.334      3.537
REMARK  5 active torsions:
REMARK  status: ('A' for Active; 'I' for Inactive)
REMARK    1  A    between atoms: C_2  and  C_1 
REMARK    2  A    between atoms: C_3  and  C_1 
REMARK    3  A    between atoms: C_4  and  C_2 
REMARK    4  A    between atoms: C_6  and  C_3 
REMARK    5  A    between atoms: P_5  and  C_4 
ROOT
ATOM      1  C   UNL d   1      32.125  17.618 -23.608  0.00  0.00     0.389 C 
ATOM      2  F   UNL d   1      32.707  17.174 -23.239  0.00  0.00    -0.191 F 
ATOM      3  F   UNL d   1      31.526  18.071 -23.988  0.00  0.00    -0.191 F 
ENDROOT
BRANCH   1   4
ATOM      4  C   UNL d   1      31.736  16.906 -23.857  0.00  0.00     0.387 C 
ATOM      5  F   UNL d   1      31.027  17.325 -23.919  0.00  0.00    -0.190 F 
ATOM      6  F   UNL d   1      32.465  16.485 -23.791  0.00  0.00    -0.190 F 
BRANCH   4   7
ATOM      7  C   UNL d   1      31.352  16.221 -24.098  0.00  0.00     0.329 C 
ATOM      8  O   UNL d   1      31.501  15.891 -24.842  0.00  0.00    -0.275 OA
BRANCH   7   9
ATOM      9  P   UNL d   1      30.798  15.844 -23.592  0.00  0.00     0.339 P 
ATOM     10  O   UNL d   1      31.406  15.458 -23.200  0.00  0.00    -0.634 OA
ATOM     11  O   UNL d   1      30.179  16.233 -23.986  0.00  0.00    -0.634 OA
ATOM     12  O   UNL d   1      30.246  15.486 -23.108  0.00  0.00    -0.634 OA
ENDBRANCH   7   9
ENDBRANCH   4   7
ENDBRANCH   1   4
BRANCH   1  13
ATOM     13  C   UNL d   1      32.494  18.314 -23.372  0.00  0.00     0.393 C 
ATOM     14  F   UNL d   1      32.511  18.039 -22.593  0.00  0.00    -0.188 F 
ATOM     15  F   UNL d   1      32.481  18.599 -24.163  0.00  0.00    -0.188 F 
BRANCH  13  16
ATOM     16  C   UNL d   1      32.865  19.010 -23.130  0.00  0.00     0.322 C 
ATOM     17  F   UNL d   1      32.860  19.220 -22.331  0.00  0.00    -0.171 F 
ATOM     18  F   UNL d   1      33.241  19.498 -23.681  0.00  0.00    -0.171 F 
ENDBRANCH  13  16
ENDBRANCH   1  13
TORSDOF 5
ENDMDL
