MODEL 1
REMARK VINA RESULT:      -8.3      0.000      0.000
REMARK  4 active torsions:
REMARK  status: ('A' for Active; 'I' for Inactive)
REMARK    1  A    between atoms: C_10  and  C_1 
REMARK       I    between atoms: C_5  and  N_3 
REMARK    2  A    between atoms: O_18  and  C_5 
REMARK    3  A    between atoms: N_9  and  C_10 
REMARK    4  A    between atoms: C_22  and  O_18 
ROOT
ATOM      1  C   UNL d   1      52.202  33.749  53.126  0.00  0.00     0.059 A 
ATOM      2  C   UNL d   1      53.207  33.271  54.020  0.00  0.00     0.121 A 
ATOM      3  C   UNL d   1      52.592  33.119  53.486  0.00  0.00     0.214 A 
ATOM      4  C   UNL d   1      53.429  34.054  54.190  0.00  0.00     0.032 A 
ATOM      5  C   UNL d   1      53.038  34.685  53.830  0.00  0.00     0.059 A 
ATOM      6  C   UNL d   1      52.424  34.533  53.297  0.00  0.00     0.016 A 
ATOM      7  N   UNL d   1      53.598  32.654  54.380  0.00  0.00    -0.241 NA
ATOM      8 CL   UNL d   1      53.260  35.469  54.001  0.00  0.00    -0.082 Cl
ATOM      9  O   UNL d   1      52.374  32.348  53.318  0.00  0.00    -0.285 OA
ATOM     10  C   UNL d   1      54.036  34.205  54.718  0.00  0.00     0.004 A 
ATOM     11  C   UNL d   1      54.214  32.791  54.915  0.00  0.00     0.099 A 
ATOM     12  C   UNL d   1      54.439  33.573  55.089  0.00  0.00     0.021 A 
ENDROOT
BRANCH   1  13
ATOM     13  C   UNL d   1      51.588  33.611  52.593  0.00  0.00     0.084 C 
BRANCH  13  14
ATOM     14  N   UNL d   1      50.885  34.025  52.641  0.00  0.00    -0.300 N 
ATOM     15  C   UNL d   1      50.542  34.196  53.368  0.00  0.00     0.100 A 
ATOM     16  C   UNL d   1      49.839  34.610  53.415  0.00  0.00     0.104 A 
ATOM     17  N   UNL d   1      49.463  34.861  52.717  0.00  0.00    -0.249 N 
ATOM     18  C   UNL d   1      49.807  34.689  51.978  0.00  0.00     0.104 A 
ATOM     19  C   UNL d   1      48.749  35.281  52.762  0.00  0.00     0.378 C 
ATOM     20  C   UNL d   1      50.509  34.276  51.943  0.00  0.00     0.100 A 
ATOM     21  O   UNL d   1      48.419  35.445  53.489  0.00  0.00    -0.237 OA
BRANCH  19  22
ATOM     22  O   UNL d   1      48.381  35.527  52.078  0.00  0.00    -0.257 OA
BRANCH  22  23
ATOM     23  C   UNL d   1      47.628  35.881  52.111  0.00  0.00     0.128 C 
ATOM     24  C   UNL d   1      47.066  36.036  51.614  0.00  0.00     0.029 C 
ENDBRANCH  22  23
ENDBRANCH  19  22
ENDBRANCH  13  14
ENDBRANCH   1  13
TORSDOF 4
ENDMDL
MODEL 2
REMARK VINA RESULT:      -8.3      2.840      4.841
REMARK  4 active torsions:
REMARK  status: ('A' for Active; 'I' for Inactive)
REMARK    1  A    between atoms: C_10  and  C_1 
REMARK       I    between atoms: C_5  and  N_3 
REMARK    2  A    between atoms: O_18  and  C_5 
REMARK    3  A    between atoms: N_9  and  C_10 
REMARK    4  A    between atoms: C_22  and  O_18 
ROOT
ATOM      1  C   UNL d   1      53.471  33.385  53.454  0.00  0.00     0.059 A 
ATOM      2  C   UNL d   1      52.978  34.627  53.954  0.00  0.00     0.121 A 
ATOM      3  C   UNL d   1      52.978  34.040  53.371  0.00  0.00     0.214 A 
ATOM      4  C   UNL d   1      53.474  34.556  54.619  0.00  0.00     0.032 A 
ATOM      5  C   UNL d   1      53.967  33.900  54.701  0.00  0.00     0.059 A 
ATOM      6  C   UNL d   1      53.966  33.314  54.118  0.00  0.00     0.016 A 
ATOM      7  N   UNL d   1      52.494  35.277  53.880  0.00  0.00    -0.241 NA
ATOM      8 CL   UNL d   1      54.463  33.829  55.366  0.00  0.00    -0.082 Cl
ATOM      9  O   UNL d   1      52.490  34.110  52.717  0.00  0.00    -0.285 OA
ATOM     10  C   UNL d   1      53.475  35.136  55.196  0.00  0.00     0.004 A 
ATOM     11  C   UNL d   1      52.485  35.872  54.456  0.00  0.00     0.099 A 
ATOM     12  C   UNL d   1      52.978  35.805  55.122  0.00  0.00     0.021 A 
ENDROOT
BRANCH   1  13
ATOM     13  C   UNL d   1      53.479  32.793  52.879  0.00  0.00     0.084 C 
BRANCH  13  14
ATOM     14  N   UNL d   1      53.325  32.014  53.071  0.00  0.00    -0.300 N 
ATOM     15  C   UNL d   1      52.600  31.670  52.899  0.00  0.00     0.100 A 
ATOM     16  C   UNL d   1      52.446  30.890  53.092  0.00  0.00     0.104 A 
ATOM     17  N   UNL d   1      53.033  30.437  53.468  0.00  0.00    -0.249 N 
ATOM     18  C   UNL d   1      53.770  30.783  53.644  0.00  0.00     0.104 A 
ATOM     19  C   UNL d   1      52.880  29.647  53.665  0.00  0.00     0.378 C 
ATOM     20  C   UNL d   1      53.913  31.560  53.448  0.00  0.00     0.100 A 
ATOM     21  O   UNL d   1      52.156  29.317  53.488  0.00  0.00    -0.237 OA
BRANCH  19  22
ATOM     22  O   UNL d   1      53.456  29.203  54.034  0.00  0.00    -0.257 OA
BRANCH  22  23
ATOM     23  C   UNL d   1      53.245  28.626  54.596  0.00  0.00     0.128 C 
ATOM     24  C   UNL d   1      53.607  28.216  55.132  0.00  0.00     0.029 C 
ENDBRANCH  22  23
ENDBRANCH  19  22
ENDBRANCH  13  14
ENDBRANCH   1  13
TORSDOF 4
ENDMDL
MODEL 3
REMARK VINA RESULT:      -7.8      1.256      1.648
REMARK  4 active torsions:
REMARK  status: ('A' for Active; 'I' for Inactive)
REMARK    1  A    between atoms: C_10  and  C_1 
REMARK       I    between atoms: C_5  and  N_3 
REMARK    2  A    between atoms: O_18  and  C_5 
REMARK    3  A    between atoms: N_9  and  C_10 
REMARK    4  A    between atoms: C_22  and  O_18 
ROOT
ATOM      1  C   UNL d   1      52.706  33.737  53.040  0.00  0.00     0.059 A 
ATOM      2  C   UNL d   1      53.494  33.340  54.161  0.00  0.00     0.121 A 
ATOM      3  C   UNL d   1      53.184  33.938  53.680  0.00  0.00     0.214 A 
ATOM      4  C   UNL d   1      53.323  32.542  53.999  0.00  0.00     0.032 A 
ATOM      5  C   UNL d   1      52.844  32.341  53.359  0.00  0.00     0.059 A 
ATOM      6  C   UNL d   1      52.535  32.939  52.878  0.00  0.00     0.016 A 
ATOM      7  N   UNL d   1      53.967  33.530  54.796  0.00  0.00    -0.241 NA
ATOM      8 CL   UNL d   1      52.673  31.543  53.196  0.00  0.00    -0.082 Cl
ATOM      9  O   UNL d   1      53.352  34.724  53.839  0.00  0.00    -0.285 OA
ATOM     10  C   UNL d   1      53.628  31.950  54.475  0.00  0.00     0.004 A 
ATOM     11  C   UNL d   1      54.283  32.942  55.285  0.00  0.00     0.099 A 
ATOM     12  C   UNL d   1      54.115  32.143  55.127  0.00  0.00     0.021 A 
ENDROOT
BRANCH   1  13
ATOM     13  C   UNL d   1      52.391  34.324  52.553  0.00  0.00     0.084 C 
BRANCH  13  14
ATOM     14  N   UNL d   1      51.584  34.438  52.494  0.00  0.00    -0.300 N 
ATOM     15  C   UNL d   1      51.166  34.186  51.833  0.00  0.00     0.100 A 
ATOM     16  C   UNL d   1      50.359  34.300  51.775  0.00  0.00     0.104 A 
ATOM     17  N   UNL d   1      49.953  34.678  52.395  0.00  0.00    -0.249 N 
ATOM     18  C   UNL d   1      50.373  34.935  53.067  0.00  0.00     0.104 A 
ATOM     19  C   UNL d   1      49.134  34.796  52.339  0.00  0.00     0.378 C 
ATOM     20  C   UNL d   1      51.177  34.816  53.114  0.00  0.00     0.100 A 
ATOM     21  O   UNL d   1      48.732  34.541  51.677  0.00  0.00    -0.237 OA
BRANCH  19  22
ATOM     22  O   UNL d   1      48.736  35.166  52.946  0.00  0.00    -0.257 OA
BRANCH  22  23
ATOM     23  C   UNL d   1      48.007  35.542  52.803  0.00  0.00     0.128 C 
ATOM     24  C   UNL d   1      47.514  35.967  53.206  0.00  0.00     0.029 C 
ENDBRANCH  22  23
ENDBRANCH  19  22
ENDBRANCH  13  14
ENDBRANCH   1  13
TORSDOF 4
ENDMDL
MODEL 4
REMARK VINA RESULT:      -7.6      1.871      5.229
REMARK  4 active torsions:
REMARK  status: ('A' for Active; 'I' for Inactive)
REMARK    1  A    between atoms: C_10  and  C_1 
REMARK       I    between atoms: C_5  and  N_3 
REMARK    2  A    between atoms: O_18  and  C_5 
REMARK    3  A    between atoms: N_9  and  C_10 
REMARK    4  A    between atoms: C_22  and  O_18 
ROOT
ATOM      1  C   UNL d   1      49.634  34.921  52.694  0.00  0.00     0.059 A 
ATOM      2  C   UNL d   1      48.341  35.447  52.397  0.00  0.00     0.121 A 
ATOM      3  C   UNL d   1      48.977  35.363  52.921  0.00  0.00     0.214 A 
ATOM      4  C   UNL d   1      48.366  35.086  51.648  0.00  0.00     0.032 A 
ATOM      5  C   UNL d   1      49.024  34.643  51.422  0.00  0.00     0.059 A 
ATOM      6  C   UNL d   1      49.659  34.560  51.945  0.00  0.00     0.016 A 
ATOM      7  N   UNL d   1      47.688  35.882  52.613  0.00  0.00    -0.241 NA
ATOM      8 CL   UNL d   1      49.050  34.283  50.672  0.00  0.00    -0.082 Cl
ATOM      9  O   UNL d   1      48.952  35.718  53.659  0.00  0.00    -0.285 OA
ATOM     10  C   UNL d   1      47.739  35.168  51.130  0.00  0.00     0.004 A 
ATOM     11  C   UNL d   1      47.046  35.974  52.100  0.00  0.00     0.099 A 
ATOM     12  C   UNL d   1      47.066  35.615  51.350  0.00  0.00     0.021 A 
ENDROOT
BRANCH   1  13
ATOM     13  C   UNL d   1      50.274  34.830  53.207  0.00  0.00     0.084 C 
BRANCH  13  14
ATOM     14  N   UNL d   1      50.813  34.224  53.109  0.00  0.00    -0.300 N 
ATOM     15  C   UNL d   1      51.534  34.353  52.736  0.00  0.00     0.100 A 
ATOM     16  C   UNL d   1      52.073  33.747  52.637  0.00  0.00     0.104 A 
ATOM     17  N   UNL d   1      51.890  32.986  52.919  0.00  0.00    -0.249 N 
ATOM     18  C   UNL d   1      51.160  32.851  53.297  0.00  0.00     0.104 A 
ATOM     19  C   UNL d   1      52.434  32.369  52.821  0.00  0.00     0.378 C 
ATOM     20  C   UNL d   1      50.630  33.463  53.390  0.00  0.00     0.100 A 
ATOM     21  O   UNL d   1      53.146  32.510  52.449  0.00  0.00    -0.237 OA
BRANCH  19  22
ATOM     22  O   UNL d   1      52.255  31.623  53.096  0.00  0.00    -0.257 OA
BRANCH  22  23
ATOM     23  C   UNL d   1      52.796  30.997  52.997  0.00  0.00     0.128 C 
ATOM     24  C   UNL d   1      52.849  30.269  53.228  0.00  0.00     0.029 C 
ENDBRANCH  22  23
ENDBRANCH  19  22
ENDBRANCH  13  14
ENDBRANCH   1  13
TORSDOF 4
ENDMDL
MODEL 5
REMARK VINA RESULT:      -7.4      1.432      5.141
REMARK  4 active torsions:
REMARK  status: ('A' for Active; 'I' for Inactive)
REMARK    1  A    between atoms: C_10  and  C_1 
REMARK       I    between atoms: C_5  and  N_3 
REMARK    2  A    between atoms: O_18  and  C_5 
REMARK    3  A    between atoms: N_9  and  C_10 
REMARK    4  A    between atoms: C_22  and  O_18 
ROOT
ATOM      1  C   UNL d   1      49.411  34.600  52.250  0.00  0.00     0.059 A 
ATOM      2  C   UNL d   1      48.232  35.322  51.899  0.00  0.00     0.121 A 
ATOM      3  C   UNL d   1      48.827  34.782  51.699  0.00  0.00     0.214 A 
ATOM      4  C   UNL d   1      48.225  35.678  52.652  0.00  0.00     0.032 A 
ATOM      5  C   UNL d   1      48.811  35.495  53.203  0.00  0.00     0.059 A 
ATOM      6  C   UNL d   1      49.405  34.956  53.002  0.00  0.00     0.016 A 
ATOM      7  N   UNL d   1      47.650  35.508  51.361  0.00  0.00    -0.241 NA
ATOM      8 CL   UNL d   1      48.805  35.850  53.955  0.00  0.00    -0.082 Cl
ATOM      9  O   UNL d   1      48.833  34.433  50.959  0.00  0.00    -0.285 OA
ATOM     10  C   UNL d   1      47.638  36.211  52.850  0.00  0.00     0.004 A 
ATOM     11  C   UNL d   1      47.049  36.046  51.548  0.00  0.00     0.099 A 
ATOM     12  C   UNL d   1      47.039  36.404  52.299  0.00  0.00     0.021 A 
ENDROOT
BRANCH   1  13
ATOM     13  C   UNL d   1      50.010  34.064  52.063  0.00  0.00     0.084 C 
BRANCH  13  14
ATOM     14  N   UNL d   1      50.712  34.050  52.480  0.00  0.00    -0.300 N 
ATOM     15  C   UNL d   1      51.311  34.589  52.320  0.00  0.00     0.100 A 
ATOM     16  C   UNL d   1      52.014  34.575  52.738  0.00  0.00     0.104 A 
ATOM     17  N   UNL d   1      52.125  34.006  53.335  0.00  0.00    -0.249 N 
ATOM     18  C   UNL d   1      51.520  33.458  53.500  0.00  0.00     0.104 A 
ATOM     19  C   UNL d   1      52.836  33.989  53.760  0.00  0.00     0.378 C 
ATOM     20  C   UNL d   1      50.823  33.481  53.077  0.00  0.00     0.100 A 
ATOM     21  O   UNL d   1      53.423  34.529  53.592  0.00  0.00    -0.237 OA
BRANCH  19  22
ATOM     22  O   UNL d   1      52.945  33.431  54.345  0.00  0.00    -0.257 OA
BRANCH  22  23
ATOM     23  C   UNL d   1      53.684  33.356  54.721  0.00  0.00     0.128 C 
ATOM     24  C   UNL d   1      54.023  32.845  55.180  0.00  0.00     0.029 C 
ENDBRANCH  22  23
ENDBRANCH  19  22
ENDBRANCH  13  14
ENDBRANCH   1  13
TORSDOF 4
ENDMDL
MODEL 6
REMARK VINA RESULT:      -6.3      1.741      4.976
REMARK  4 active torsions:
REMARK  status: ('A' for Active; 'I' for Inactive)
REMARK    1  A    between atoms: C_10  and  C_1 
REMARK       I    between atoms: C_5  and  N_3 
REMARK    2  A    between atoms: O_18  and  C_5 
REMARK    3  A    between atoms: N_9  and  C_10 
REMARK    4  A    between atoms: C_22  and  O_18 
ROOT
ATOM      1  C   UNL d   1      51.340  34.304  52.376  0.00  0.00     0.059 A 
ATOM      2  C   UNL d   1      50.120  34.455  51.652  0.00  0.00     0.121 A 
ATOM      3  C   UNL d   1      50.935  34.309  51.659  0.00  0.00     0.214 A 
ATOM      4  C   UNL d   1      49.714  34.597  52.364  0.00  0.00     0.032 A 
ATOM      5  C   UNL d   1      50.120  34.593  53.082  0.00  0.00     0.059 A 
ATOM      6  C   UNL d   1      50.934  34.446  53.089  0.00  0.00     0.016 A 
ATOM      7  N   UNL d   1      49.712  34.461  50.947  0.00  0.00    -0.241 NA
ATOM      8 CL   UNL d   1      49.714  34.734  53.794  0.00  0.00    -0.082 Cl
ATOM      9  O   UNL d   1      51.334  34.169  50.958  0.00  0.00    -0.285 OA
ATOM     10  C   UNL d   1      48.909  34.742  52.358  0.00  0.00     0.004 A 
ATOM     11  C   UNL d   1      48.897  34.606  50.925  0.00  0.00     0.099 A 
ATOM     12  C   UNL d   1      48.487  34.749  51.635  0.00  0.00     0.021 A 
ENDROOT
BRANCH   1  13
ATOM     13  C   UNL d   1      52.152  34.159  52.397  0.00  0.00     0.084 C 
BRANCH  13  14
ATOM     14  N   UNL d   1      52.457  33.514  52.795  0.00  0.00    -0.300 N 
ATOM     15  C   UNL d   1      52.889  33.609  53.488  0.00  0.00     0.100 A 
ATOM     16  C   UNL d   1      53.194  32.964  53.886  0.00  0.00     0.104 A 
ATOM     17  N   UNL d   1      53.066  32.199  53.587  0.00  0.00    -0.249 N 
ATOM     18  C   UNL d   1      52.628  32.099  52.885  0.00  0.00     0.104 A 
ATOM     19  C   UNL d   1      53.374  31.542  53.988  0.00  0.00     0.378 C 
ATOM     20  C   UNL d   1      52.329  32.749  52.496  0.00  0.00     0.100 A 
ATOM     21  O   UNL d   1      53.801  31.650  54.674  0.00  0.00    -0.237 OA
BRANCH  19  22
ATOM     22  O   UNL d   1      53.248  30.792  53.694  0.00  0.00    -0.257 OA
BRANCH  22  23
ATOM     23  C   UNL d   1      53.512  30.126  54.119  0.00  0.00     0.128 C 
ATOM     24  C   UNL d   1      53.360  29.375  54.122  0.00  0.00     0.029 C 
ENDBRANCH  22  23
ENDBRANCH  19  22
ENDBRANCH  13  14
ENDBRANCH   1  13
TORSDOF 4
ENDMDL
MODEL 7
REMARK VINA RESULT:      -5.9      9.468     10.544
REMARK  4 active torsions:
REMARK  status: ('A' for Active; 'I' for Inactive)
REMARK    1  A    between atoms: C_10  and  C_1 
REMARK       I    between atoms: C_5  and  N_3 
REMARK    2  A    between atoms: O_18  and  C_5 
REMARK    3  A    between atoms: N_9  and  C_10 
REMARK    4  A    between atoms: C_22  and  O_18 
ROOT
ATOM      1  C   UNL d   1      45.170  28.987  57.816  0.00  0.00     0.059 A 
ATOM      2  C   UNL d   1      44.877  30.382  57.872  0.00  0.00     0.121 A 
ATOM      3  C   UNL d   1      45.151  29.692  58.240  0.00  0.00     0.214 A 
ATOM      4  C   UNL d   1      44.623  30.361  57.080  0.00  0.00     0.032 A 
ATOM      5  C   UNL d   1      44.642  29.654  56.656  0.00  0.00     0.059 A 
ATOM      6  C   UNL d   1      44.916  28.965  57.024  0.00  0.00     0.016 A 
ATOM      7  N   UNL d   1      44.854  31.084  58.284  0.00  0.00    -0.241 NA
ATOM      8 CL   UNL d   1      44.388  29.633  55.864  0.00  0.00    -0.082 Cl
ATOM      9  O   UNL d   1      45.401  29.713  59.020  0.00  0.00    -0.285 OA
ATOM     10  C   UNL d   1      44.351  31.041  56.716  0.00  0.00     0.004 A 
ATOM     11  C   UNL d   1      44.582  31.780  57.929  0.00  0.00     0.099 A 
ATOM     12  C   UNL d   1      44.327  31.764  57.138  0.00  0.00     0.021 A 
ENDROOT
BRANCH   1  13
ATOM     13  C   UNL d   1      45.442  28.293  58.171  0.00  0.00     0.084 C 
BRANCH  13  14
ATOM     14  N   UNL d   1      45.274  27.560  57.851  0.00  0.00    -0.300 N 
ATOM     15  C   UNL d   1      44.809  27.017  58.255  0.00  0.00     0.100 A 
ATOM     16  C   UNL d   1      44.642  26.284  57.935  0.00  0.00     0.104 A 
ATOM     17  N   UNL d   1      44.947  26.083  57.187  0.00  0.00    -0.249 N 
ATOM     18  C   UNL d   1      45.419  26.631  56.774  0.00  0.00     0.104 A 
ATOM     19  C   UNL d   1      44.779  25.341  56.860  0.00  0.00     0.378 C 
ATOM     20  C   UNL d   1      45.579  27.359  57.103  0.00  0.00     0.100 A 
ATOM     21  O   UNL d   1      44.316  24.810  57.271  0.00  0.00    -0.237 OA
BRANCH  19  22
ATOM     22  O   UNL d   1      45.078  25.144  56.127  0.00  0.00    -0.257 OA
BRANCH  22  23
ATOM     23  C   UNL d   1      44.814  24.458  55.736  0.00  0.00     0.128 C 
ATOM     24  C   UNL d   1      45.020  24.060  55.115  0.00  0.00     0.029 C 
ENDBRANCH  22  23
ENDBRANCH  19  22
ENDBRANCH  13  14
ENDBRANCH   1  13
TORSDOF 4
ENDMDL
