MODEL 1
REMARK VINA RESULT:      -8.6      0.000      0.000
REMARK  6 active torsions:
REMARK  status: ('A' for Active; 'I' for Inactive)
REMARK    1  A    between atoms: C_9  and  N_1 
REMARK    2  A    between atoms: C_2  and  C_3 
REMARK    3  A    between atoms: C_4  and  C_6 
REMARK    4  A    between atoms: C_7  and  C_5 
REMARK       I    between atoms: C_6  and  N_8 
REMARK    5  A    between atoms: N_8  and  N_12 
REMARK    6  A    between atoms: N_12  and  C_17 
ROOT
ATOM      1  C   UNL d   1     -49.234  14.045  22.785  0.00  0.00     0.005 A 
ATOM      2  C   UNL d   1     -48.586  13.978  22.280  0.00  0.00     0.059 A 
ATOM      3  C   UNL d   1     -49.345  14.762  23.176  0.00  0.00     0.000 A 
ATOM      4  C   UNL d   1     -48.075  14.597  22.171  0.00  0.00     0.005 A 
ATOM      5  C   UNL d   1     -48.823  15.395  23.064  0.00  0.00     0.000 A 
ATOM      6  C   UNL d   1     -48.200  15.298  22.565  0.00  0.00     0.000 A 
ENDROOT
BRANCH   2   7
ATOM      7  C   UNL d   1     -48.465  13.250  21.877  0.00  0.00     0.297 C 
ATOM      8  N   UNL d   1     -47.769  12.832  22.022  0.00  0.00    -0.106 NA
ATOM      9  O   UNL d   1     -49.036  12.963  21.346  0.00  0.00    -0.264 OA
BRANCH   8  10
ATOM     10  N   UNL d   1     -47.200  13.118  22.551  0.00  0.00    -0.145 NA
BRANCH  10  11
ATOM     11  C   UNL d   1     -46.504  12.709  22.662  0.00  0.00     0.103 A 
ATOM     12  C   UNL d   1     -45.825  12.949  22.280  0.00  0.00     0.023 A 
ATOM     13  C   UNL d   1     -45.114  12.538  22.388  0.00  0.00     0.025 A 
ATOM     14  C   UNL d   1     -45.097  11.887  22.883  0.00  0.00     0.127 A 
ATOM     15  C   UNL d   1     -45.775  11.638  23.272  0.00  0.00     0.025 A 
ATOM     16  C   UNL d   1     -46.486  12.050  23.163  0.00  0.00     0.023 A 
BRANCH  14  17
ATOM     17  N   UNL d   1     -44.382  11.484  22.984  0.00  0.00    -0.114 N 
ATOM     18  O   UNL d   1     -43.747  11.609  22.496  0.00  0.00    -0.532 OA
ATOM     19  O   UNL d   1     -44.303  10.929  23.606  0.00  0.00    -0.532 OA
ENDBRANCH  14  17
ENDBRANCH  10  11
ENDBRANCH   8  10
ENDBRANCH   2   7
BRANCH   1  20
ATOM     20  C   UNL d   1     -49.744  13.427  22.894  0.00  0.00     0.006 A 
ATOM     21  C   UNL d   1     -50.543  13.527  22.759  0.00  0.00     0.064 A 
ATOM     22  C   UNL d   1     -51.064  12.895  22.870  0.00  0.00     0.006 A 
ATOM     23  C   UNL d   1     -50.781  12.170  23.115  0.00  0.00     0.000 A 
ATOM     24  C   UNL d   1     -50.014  12.065  23.247  0.00  0.00     0.000 A 
ATOM     25  C   UNL d   1     -49.473  12.688  23.141  0.00  0.00     0.000 A 
BRANCH  21  26
ATOM     26  C   UNL d   1     -50.842  14.265  22.508  0.00  0.00     0.211 C 
ATOM     27  O   UNL d   1     -51.062  14.843  23.074  0.00  0.00    -0.644 OA
ATOM     28  O   UNL d   1     -50.926  14.437  21.703  0.00  0.00    -0.644 OA
ENDBRANCH  21  26
ENDBRANCH   1  20
TORSDOF 6
ENDMDL
MODEL 2
REMARK VINA RESULT:      -6.7      8.943     10.384
REMARK  6 active torsions:
REMARK  status: ('A' for Active; 'I' for Inactive)
REMARK    1  A    between atoms: C_9  and  N_1 
REMARK    2  A    between atoms: C_2  and  C_3 
REMARK    3  A    between atoms: C_4  and  C_6 
REMARK    4  A    between atoms: C_7  and  C_5 
REMARK       I    between atoms: C_6  and  N_8 
REMARK    5  A    between atoms: N_8  and  N_12 
REMARK    6  A    between atoms: N_12  and  C_17 
ROOT
ATOM      1  C   UNL d   1     -39.178  14.058  17.230  0.00  0.00     0.005 A 
ATOM      2  C   UNL d   1     -39.335  13.567  17.874  0.00  0.00     0.059 A 
ATOM      3  C   UNL d   1     -38.478  13.932  16.813  0.00  0.00     0.000 A 
ATOM      4  C   UNL d   1     -38.819  12.982  18.090  0.00  0.00     0.005 A 
ATOM      5  C   UNL d   1     -37.950  13.333  17.033  0.00  0.00     0.000 A 
ATOM      6  C   UNL d   1     -38.133  12.871  17.667  0.00  0.00     0.000 A 
ENDROOT
BRANCH   2   7
ATOM      7  C   UNL d   1     -40.046  13.689  18.306  0.00  0.00     0.297 C 
ATOM      8  N   UNL d   1     -39.994  13.964  19.081  0.00  0.00    -0.106 NA
ATOM      9  O   UNL d   1     -40.783  13.533  17.954  0.00  0.00    -0.264 OA
BRANCH   8  10
ATOM     10  N   UNL d   1     -39.259  14.119  19.431  0.00  0.00    -0.145 NA
BRANCH  10  11
ATOM     11  C   UNL d   1     -39.221  14.366  20.207  0.00  0.00     0.103 A 
ATOM     12  C   UNL d   1     -38.524  14.293  20.624  0.00  0.00     0.023 A 
ATOM     13  C   UNL d   1     -38.478  14.542  21.412  0.00  0.00     0.025 A 
ATOM     14  C   UNL d   1     -39.138  14.862  21.772  0.00  0.00     0.127 A 
ATOM     15  C   UNL d   1     -39.844  14.939  21.361  0.00  0.00     0.025 A 
ATOM     16  C   UNL d   1     -39.890  14.690  20.572  0.00  0.00     0.023 A 
BRANCH  14  17
ATOM     17  N   UNL d   1     -39.081  15.108  22.560  0.00  0.00    -0.114 N 
ATOM     18  O   UNL d   1     -38.917  14.588  23.160  0.00  0.00    -0.532 OA
ATOM     19  O   UNL d   1     -39.195  15.915  22.753  0.00  0.00    -0.532 OA
ENDBRANCH  14  17
ENDBRANCH  10  11
ENDBRANCH   8  10
ENDBRANCH   2   7
BRANCH   1  20
ATOM     20  C   UNL d   1     -39.693  14.643  17.014  0.00  0.00     0.006 A 
ATOM     21  C   UNL d   1     -39.421  15.303  16.620  0.00  0.00     0.064 A 
ATOM     22  C   UNL d   1     -39.947  15.901  16.399  0.00  0.00     0.006 A 
ATOM     23  C   UNL d   1     -40.740  15.832  16.577  0.00  0.00     0.000 A 
ATOM     24  C   UNL d   1     -41.011  15.200  16.956  0.00  0.00     0.000 A 
ATOM     25  C   UNL d   1     -40.498  14.587  17.187  0.00  0.00     0.000 A 
BRANCH  21  26
ATOM     26  C   UNL d   1     -38.610  15.382  16.434  0.00  0.00     0.211 C 
ATOM     27  O   UNL d   1     -38.100  15.797  16.953  0.00  0.00    -0.644 OA
ATOM     28  O   UNL d   1     -38.300  15.057  15.739  0.00  0.00    -0.644 OA
ENDBRANCH  21  26
ENDBRANCH   1  20
TORSDOF 6
ENDMDL
MODEL 3
REMARK VINA RESULT:      -6.4      9.074     10.220
REMARK  6 active torsions:
REMARK  status: ('A' for Active; 'I' for Inactive)
REMARK    1  A    between atoms: C_9  and  N_1 
REMARK    2  A    between atoms: C_2  and  C_3 
REMARK    3  A    between atoms: C_4  and  C_6 
REMARK    4  A    between atoms: C_7  and  C_5 
REMARK       I    between atoms: C_6  and  N_8 
REMARK    5  A    between atoms: N_8  and  N_12 
REMARK    6  A    between atoms: N_12  and  C_17 
ROOT
ATOM      1  C   UNL d   1     -39.681  14.849  17.940  0.00  0.00     0.005 A 
ATOM      2  C   UNL d   1     -39.379  15.181  18.631  0.00  0.00     0.059 A 
ATOM      3  C   UNL d   1     -40.450  15.051  17.720  0.00  0.00     0.000 A 
ATOM      4  C   UNL d   1     -39.822  15.689  19.080  0.00  0.00     0.005 A 
ATOM      5  C   UNL d   1     -40.903  15.570  18.180  0.00  0.00     0.000 A 
ATOM      6  C   UNL d   1     -40.579  15.877  18.849  0.00  0.00     0.000 A 
ENDROOT
BRANCH   2   7
ATOM      7  C   UNL d   1     -38.595  14.981  18.863  0.00  0.00     0.297 C 
ATOM      8  N   UNL d   1     -38.478  14.655  19.611  0.00  0.00    -0.106 NA
ATOM      9  O   UNL d   1     -37.958  15.111  18.346  0.00  0.00    -0.264 OA
BRANCH   8  10
ATOM     10  N   UNL d   1     -39.113  14.526  20.126  0.00  0.00    -0.145 NA
BRANCH  10  11
ATOM     11  C   UNL d   1     -38.987  14.172  20.849  0.00  0.00     0.103 A 
ATOM     12  C   UNL d   1     -38.251  13.874  21.034  0.00  0.00     0.023 A 
ATOM     13  C   UNL d   1     -38.115  13.513  21.767  0.00  0.00     0.025 A 
ATOM     14  C   UNL d   1     -38.726  13.456  22.306  0.00  0.00     0.127 A 
ATOM     15  C   UNL d   1     -39.470  13.752  22.129  0.00  0.00     0.025 A 
ATOM     16  C   UNL d   1     -39.606  14.114  21.396  0.00  0.00     0.023 A 
BRANCH  14  17
ATOM     17  N   UNL d   1     -38.580  13.093  23.034  0.00  0.00    -0.114 N 
ATOM     18  O   UNL d   1     -39.016  13.266  23.695  0.00  0.00    -0.532 OA
ATOM     19  O   UNL d   1     -37.964  12.528  23.101  0.00  0.00    -0.532 OA
ENDBRANCH  14  17
ENDBRANCH  10  11
ENDBRANCH   8  10
ENDBRANCH   2   7
BRANCH   1  20
ATOM     20  C   UNL d   1     -39.238  14.343  17.491  0.00  0.00     0.006 A 
ATOM     21  C   UNL d   1     -39.110  14.501  16.701  0.00  0.00     0.064 A 
ATOM     22  C   UNL d   1     -38.657  13.982  16.242  0.00  0.00     0.006 A 
ATOM     23  C   UNL d   1     -38.337  13.312  16.580  0.00  0.00     0.000 A 
ATOM     24  C   UNL d   1     -38.455  13.153  17.340  0.00  0.00     0.000 A 
ATOM     25  C   UNL d   1     -38.907  13.661  17.818  0.00  0.00     0.000 A 
BRANCH  21  26
ATOM     26  C   UNL d   1     -39.434  15.184  16.347  0.00  0.00     0.211 C 
ATOM     27  O   UNL d   1     -38.965  15.873  16.259  0.00  0.00    -0.644 OA
ATOM     28  O   UNL d   1     -40.216  15.193  16.078  0.00  0.00    -0.644 OA
ENDBRANCH  21  26
ENDBRANCH   1  20
TORSDOF 6
ENDMDL
MODEL 4
REMARK VINA RESULT:      -6.2      1.194      2.116
REMARK  6 active torsions:
REMARK  status: ('A' for Active; 'I' for Inactive)
REMARK    1  A    between atoms: C_9  and  N_1 
REMARK    2  A    between atoms: C_2  and  C_3 
REMARK    3  A    between atoms: C_4  and  C_6 
REMARK    4  A    between atoms: C_7  and  C_5 
REMARK       I    between atoms: C_6  and  N_8 
REMARK    5  A    between atoms: N_8  and  N_12 
REMARK    6  A    between atoms: N_12  and  C_17 
ROOT
ATOM      1  C   UNL d   1     -49.388  12.840  22.984  0.00  0.00     0.005 A 
ATOM      2  C   UNL d   1     -48.659  12.802  23.367  0.00  0.00     0.059 A 
ATOM      3  C   UNL d   1     -49.841  12.151  22.949  0.00  0.00     0.000 A 
ATOM      4  C   UNL d   1     -48.396  12.111  23.698  0.00  0.00     0.005 A 
ATOM      5  C   UNL d   1     -49.572  11.445  23.288  0.00  0.00     0.000 A 
ATOM      6  C   UNL d   1     -48.855  11.441  23.654  0.00  0.00     0.000 A 
ENDROOT
BRANCH   2   7
ATOM      7  C   UNL d   1     -48.191  13.499  23.407  0.00  0.00     0.297 C 
ATOM      8  N   UNL d   1     -47.401  13.456  23.176  0.00  0.00    -0.106 NA
ATOM      9  O   UNL d   1     -48.521  14.213  23.675  0.00  0.00    -0.264 OA
BRANCH   8  10
ATOM     10  N   UNL d   1     -47.072  12.744  22.909  0.00  0.00    -0.145 NA
BRANCH  10  11
ATOM     11  C   UNL d   1     -46.295  12.721  22.662  0.00  0.00     0.103 A 
ATOM     12  C   UNL d   1     -46.023  13.269  22.122  0.00  0.00     0.023 A 
ATOM     13  C   UNL d   1     -45.236  13.252  21.866  0.00  0.00     0.025 A 
ATOM     14  C   UNL d   1     -44.730  12.681  22.159  0.00  0.00     0.127 A 
ATOM     15  C   UNL d   1     -44.995  12.125  22.703  0.00  0.00     0.025 A 
ATOM     16  C   UNL d   1     -45.782  12.143  22.958  0.00  0.00     0.023 A 
BRANCH  14  17
ATOM     17  N   UNL d   1     -43.946  12.673  21.897  0.00  0.00    -0.114 N 
ATOM     18  O   UNL d   1     -43.617  13.304  21.510  0.00  0.00    -0.532 OA
ATOM     19  O   UNL d   1     -43.470  11.996  22.031  0.00  0.00    -0.532 OA
ENDBRANCH  14  17
ENDBRANCH  10  11
ENDBRANCH   8  10
ENDBRANCH   2   7
BRANCH   1  20
ATOM     20  C   UNL d   1     -49.651  13.530  22.653  0.00  0.00     0.006 A 
ATOM     21  C   UNL d   1     -49.893  13.544  21.874  0.00  0.00     0.064 A 
ATOM     22  C   UNL d   1     -50.162  14.249  21.536  0.00  0.00     0.006 A 
ATOM     23  C   UNL d   1     -50.186  14.931  21.981  0.00  0.00     0.000 A 
ATOM     24  C   UNL d   1     -49.955  14.927  22.732  0.00  0.00     0.000 A 
ATOM     25  C   UNL d   1     -49.682  14.228  23.091  0.00  0.00     0.000 A 
BRANCH  21  26
ATOM     26  C   UNL d   1     -49.871  12.850  21.410  0.00  0.00     0.211 C 
ATOM     27  O   UNL d   1     -50.505  12.303  21.444  0.00  0.00    -0.644 OA
ATOM     28  O   UNL d   1     -49.230  12.691  20.912  0.00  0.00    -0.644 OA
ENDBRANCH  21  26
ENDBRANCH   1  20
TORSDOF 6
ENDMDL
MODEL 5
REMARK VINA RESULT:      -6.0      1.663      2.331
REMARK  6 active torsions:
REMARK  status: ('A' for Active; 'I' for Inactive)
REMARK    1  A    between atoms: C_9  and  N_1 
REMARK    2  A    between atoms: C_2  and  C_3 
REMARK    3  A    between atoms: C_4  and  C_6 
REMARK    4  A    between atoms: C_7  and  C_5 
REMARK       I    between atoms: C_6  and  N_8 
REMARK    5  A    between atoms: N_8  and  N_12 
REMARK    6  A    between atoms: N_12  and  C_17 
ROOT
ATOM      1  C   UNL d   1     -47.859  13.485  22.670  0.00  0.00     0.005 A 
ATOM      2  C   UNL d   1     -47.073  13.566  22.905  0.00  0.00     0.059 A 
ATOM      3  C   UNL d   1     -48.264  14.166  22.442  0.00  0.00     0.000 A 
ATOM      4  C   UNL d   1     -46.711  14.291  22.912  0.00  0.00     0.005 A 
ATOM      5  C   UNL d   1     -47.894  14.907  22.449  0.00  0.00     0.000 A 
ATOM      6  C   UNL d   1     -47.126  14.952  22.684  0.00  0.00     0.000 A 
ENDROOT
BRANCH   2   7
ATOM      7  C   UNL d   1     -46.651  12.877  23.139  0.00  0.00     0.297 C 
ATOM      8  N   UNL d   1     -45.912  12.735  22.803  0.00  0.00    -0.106 NA
ATOM      9  O   UNL d   1     -46.976  12.354  23.698  0.00  0.00    -0.264 OA
BRANCH   8  10
ATOM     10  N   UNL d   1     -45.589  13.256  22.246  0.00  0.00    -0.145 NA
BRANCH  10  11
ATOM     11  C   UNL d   1     -44.826  13.146  21.980  0.00  0.00     0.103 A 
ATOM     12  C   UNL d   1     -44.468  12.417  22.058  0.00  0.00     0.023 A 
ATOM     13  C   UNL d   1     -43.694  12.299  21.789  0.00  0.00     0.025 A 
ATOM     14  C   UNL d   1     -43.288  12.918  21.445  0.00  0.00     0.127 A 
ATOM     15  C   UNL d   1     -43.639  13.656  21.363  0.00  0.00     0.025 A 
ATOM     16  C   UNL d   1     -44.414  13.774  21.631  0.00  0.00     0.023 A 
BRANCH  14  17
ATOM     17  N   UNL d   1     -42.515  12.789  21.181  0.00  0.00    -0.114 N 
ATOM     18  O   UNL d   1     -42.214  13.170  20.533  0.00  0.00    -0.532 OA
ATOM     19  O   UNL d   1     -42.021  12.249  21.590  0.00  0.00    -0.532 OA
ENDBRANCH  14  17
ENDBRANCH  10  11
ENDBRANCH   8  10
ENDBRANCH   2   7
BRANCH   1  20
ATOM     20  C   UNL d   1     -48.221  12.761  22.663  0.00  0.00     0.006 A 
ATOM     21  C   UNL d   1     -48.610  12.505  21.994  0.00  0.00     0.064 A 
ATOM     22  C   UNL d   1     -48.980  11.765  21.987  0.00  0.00     0.006 A 
ATOM     23  C   UNL d   1     -48.956  11.291  22.650  0.00  0.00     0.000 A 
ATOM     24  C   UNL d   1     -48.583  11.530  23.298  0.00  0.00     0.000 A 
ATOM     25  C   UNL d   1     -48.205  12.270  23.326  0.00  0.00     0.000 A 
BRANCH  21  26
ATOM     26  C   UNL d   1     -48.641  12.984  21.311  0.00  0.00     0.211 C 
ATOM     27  O   UNL d   1     -48.101  12.854  20.683  0.00  0.00    -0.644 OA
ATOM     28  O   UNL d   1     -49.200  13.590  21.242  0.00  0.00    -0.644 OA
ENDBRANCH  21  26
ENDBRANCH   1  20
TORSDOF 6
ENDMDL
