MODEL 1
REMARK VINA RESULT:      35.6      0.000      0.000
REMARK  5 active torsions:
REMARK  status: ('A' for Active; 'I' for Inactive)
REMARK    1  A    between atoms: C_11  and  N_2 
REMARK    2  A    between atoms: C_5  and  C_3 
REMARK    3  A    between atoms: C_7  and  C_5 
REMARK    4  A    between atoms: C_8  and  C_7 
REMARK    5  A    between atoms: C_10  and  C_8 
ROOT
ATOM      1  C   UNL d   1     -51.325  25.785  33.306  0.00  0.00     0.006 C 
ENDROOT
BRANCH   1   2
ATOM      2  C   UNL d   1     -51.365  24.963  33.311  0.00  0.00     0.039 A 
ATOM      3  C   UNL d   1     -50.786  24.379  33.316  0.00  0.00     0.122 A 
ATOM      4  N   UNL d   1     -51.161  23.649  33.319  0.00  0.00    -0.164 NA
ATOM      5  N   UNL d   1     -51.969  23.775  33.316  0.00  0.00    -0.228 N 
ATOM      6  C   UNL d   1     -52.100  24.592  33.311  0.00  0.00     0.085 A 
ATOM      7  C   UNL d   1     -52.843  24.964  33.306  0.00  0.00     0.021 C 
BRANCH   5   8
ATOM      8  C   UNL d   1     -52.547  23.188  33.318  0.00  0.00     0.101 C 
ATOM      9  C   UNL d   1     -53.235  23.285  33.765  0.00  0.00     0.022 C 
ENDBRANCH   5   8
ENDBRANCH   1   2
BRANCH   1  10
ATOM     10  C   UNL d   1     -50.905  26.180  33.896  0.00  0.00     0.042 C 
BRANCH  10  11
ATOM     11  C   UNL d   1     -50.690  26.976  33.795  0.00  0.00     0.196 C 
ATOM     12  O   UNL d   1     -51.177  27.483  33.367  0.00  0.00    -0.287 OA
BRANCH  11  13
ATOM     13  C   UNL d   1     -49.983  27.261  34.126  0.00  0.00     0.039 A 
ATOM     14  C   UNL d   1     -49.761  27.024  34.888  0.00  0.00     0.003 A 
ATOM     15  C   UNL d   1     -49.062  27.303  35.220  0.00  0.00     0.000 A 
ATOM     16  C   UNL d   1     -48.579  27.822  34.795  0.00  0.00     0.000 A 
ATOM     17  C   UNL d   1     -48.802  28.057  34.036  0.00  0.00     0.000 A 
ATOM     18  C   UNL d   1     -49.501  27.776  33.705  0.00  0.00     0.003 A 
ENDBRANCH  11  13
ENDBRANCH  10  11
ENDBRANCH   1  10
TORSDOF 5
ENDMDL
