MODEL 1
REMARK VINA RESULT:      30.7      0.000      0.000
REMARK  5 active torsions:
REMARK  status: ('A' for Active; 'I' for Inactive)
REMARK    1  A    between atoms: C_2  and  S_1 
REMARK    2  A    between atoms: N_5  and  S_1 
REMARK    3  A    between atoms: O_18  and  C_4 
REMARK    4  A    between atoms: C_13  and  N_5 
REMARK    5  A    between atoms: C_11  and  C_13 
ROOT
ATOM      1  C   UNL d   1      59.736  49.637  50.952  0.00  0.00     0.128 A 
ATOM      2  C   UNL d   1      59.693  49.672  51.775  0.00  0.00     0.026 A 
ATOM      3  C   UNL d   1      60.470  49.566  50.581  0.00  0.00     0.106 A 
ATOM      4  C   UNL d   1      60.385  49.637  52.228  0.00  0.00     0.059 A 
ATOM      5  C   UNL d   1      61.161  49.532  51.034  0.00  0.00     0.026 A 
ATOM      6  C   UNL d   1      61.118  49.567  51.857  0.00  0.00     0.013 A 
ATOM      7 CL   UNL d   1      60.342  49.673  53.051  0.00  0.00    -0.082 Cl
ATOM      8  C   UNL d   1      61.809  49.532  52.309  0.00  0.00     0.001 C 
ENDROOT
BRANCH   1   9
ATOM      9  S   UNL d   1      59.045  49.671  50.500  0.00  0.00     0.287 S 
ATOM     10  O   UNL d   1      58.594  49.706  51.192  0.00  0.00    -0.198 OA
ATOM     11  O   UNL d   1      59.496  49.637  49.809  0.00  0.00    -0.198 OA
BRANCH   9  12
ATOM     12  N   UNL d   1      58.354  49.706  50.047  0.00  0.00    -0.155 NA
BRANCH  12  13
ATOM     13  C   UNL d   1      58.037  49.017  49.723  0.00  0.00     0.137 C 
BRANCH  13  14
ATOM     14  C   UNL d   1      57.253  49.005  49.460  0.00  0.00     0.120 A 
ATOM     15  O   UNL d   1      56.772  48.336  49.391  0.00  0.00    -0.304 OA
ATOM     16  C   UNL d   1      56.038  48.577  49.110  0.00  0.00     0.123 A 
ATOM     17  C   UNL d   1      56.062  49.397  49.003  0.00  0.00     0.029 A 
ATOM     18  C   UNL d   1      56.809  49.656  49.219  0.00  0.00     0.028 A 
ENDBRANCH  13  14
ENDBRANCH  12  13
ENDBRANCH   9  12
ENDBRANCH   1   9
BRANCH   3  19
ATOM     19  O   UNL d   1      60.515  49.531  49.755  0.00  0.00    -0.327 OA
ATOM     20  C   UNL d   1      61.235  49.371  49.387  0.00  0.00     0.181 C 
ENDBRANCH   3  19
TORSDOF 5
ENDMDL
