MODEL 1
REMARK VINA RESULT:       1.5      0.000      0.000
REMARK  8 active torsions:
REMARK  status: ('A' for Active; 'I' for Inactive)
REMARK    1  A    between atoms: O_18  and  C_5 
REMARK    2  A    between atoms: C_7  and  C_15 
REMARK       I    between atoms: N_14  and  C_7 
REMARK    3  A    between atoms: O_10  and  C_8 
REMARK    4  A    between atoms: O_19  and  C_9 
REMARK    5  A    between atoms: C_15  and  O_10 
REMARK    6  A    between atoms: C_20  and  N_14 
REMARK    7  A    between atoms: C_16  and  C_26 
REMARK    8  A    between atoms: C_26  and  C_20 
ROOT
ATOM      1  C   UNL d   1     -41.200-121.860 -51.254  0.00  0.00     0.304 C 
ATOM      2  O   UNL d   1     -41.287-121.056 -51.431  0.00  0.00    -0.263 OA
ATOM      3  N   UNL d   1     -41.189-122.426 -51.847  0.00  0.00    -0.205 NA
ENDROOT
BRANCH   1   4
ATOM      4  C   UNL d   1     -41.123-122.094 -50.464  0.00  0.00     0.185 C 
BRANCH   4   5
ATOM      5  O   UNL d   1     -41.784-122.102 -49.974  0.00  0.00    -0.298 OA
BRANCH   5   6
ATOM      6  C   UNL d   1     -41.809-122.610 -49.333  0.00  0.00     0.122 A 
ATOM      7  C   UNL d   1     -42.526-122.944 -49.097  0.00  0.00     0.117 A 
ATOM      8  O   UNL d   1     -43.296-122.866 -49.401  0.00  0.00    -0.330 OA
ATOM      9  C   UNL d   1     -42.551-123.457 -48.450  0.00  0.00     0.022 A 
ATOM     10  C   UNL d   1     -43.798-123.336 -48.934  0.00  0.00     0.117 A 
ATOM     11  C   UNL d   1     -44.349-123.035 -49.464  0.00  0.00     0.035 C 
ATOM     12  C   UNL d   1     -44.215-123.817 -48.432  0.00  0.00     0.035 C 
ATOM     13  C   UNL d   1     -43.336-123.698 -48.351  0.00  0.00     0.003 A 
ATOM     14  C   UNL d   1     -41.859-123.633 -48.041  0.00  0.00     0.002 A 
ATOM     15  C   UNL d   1     -41.154-123.304 -48.275  0.00  0.00     0.002 A 
ATOM     16  C   UNL d   1     -41.129-122.791 -48.922  0.00  0.00     0.027 A 
ENDBRANCH   5   6
ENDBRANCH   4   5
ENDBRANCH   1   4
BRANCH   3  17
ATOM     17  C   UNL d   1     -41.265-122.195 -52.628  0.00  0.00     0.102 C 
BRANCH  17  18
ATOM     18  C   UNL d   1     -41.825-122.556 -53.115  0.00  0.00     0.021 C 
BRANCH  18  19
ATOM     19  C   UNL d   1     -41.845-122.384 -53.923  0.00  0.00     0.004 A 
ATOM     20  C   UNL d   1     -42.547-122.174 -54.280  0.00  0.00     0.026 A 
ATOM     21  C   UNL d   1     -42.576-122.001 -55.087  0.00  0.00     0.116 A 
ATOM     22  C   UNL d   1     -41.884-122.041 -55.536  0.00  0.00     0.116 A 
ATOM     23  C   UNL d   1     -41.173-122.252 -55.180  0.00  0.00     0.026 A 
ATOM     24  C   UNL d   1     -41.141-122.427 -54.372  0.00  0.00     0.002 A 
BRANCH  21  25
ATOM     25  O   UNL d   1     -43.278-121.792 -55.441  0.00  0.00    -0.326 OA
ATOM     26  C   UNL d   1     -43.812-122.380 -55.696  0.00  0.00     0.181 C 
ENDBRANCH  21  25
BRANCH  22  27
ATOM     27  O   UNL d   1     -41.904-121.869 -56.344  0.00  0.00    -0.326 OA
ATOM     28  C   UNL d   1     -41.359-121.341 -56.668  0.00  0.00     0.181 C 
ENDBRANCH  22  27
ENDBRANCH  18  19
ENDBRANCH  17  18
ENDBRANCH   3  17
TORSDOF 8
ENDMDL
MODEL 2
REMARK VINA RESULT:       3.6      1.137      5.999
REMARK  8 active torsions:
REMARK  status: ('A' for Active; 'I' for Inactive)
REMARK    1  A    between atoms: O_18  and  C_5 
REMARK    2  A    between atoms: C_7  and  C_15 
REMARK       I    between atoms: N_14  and  C_7 
REMARK    3  A    between atoms: O_10  and  C_8 
REMARK    4  A    between atoms: O_19  and  C_9 
REMARK    5  A    between atoms: C_15  and  O_10 
REMARK    6  A    between atoms: C_20  and  N_14 
REMARK    7  A    between atoms: C_16  and  C_26 
REMARK    8  A    between atoms: C_26  and  C_20 
ROOT
ATOM      1  C   UNL d   1     -41.188-122.516 -52.057  0.00  0.00     0.304 C 
ATOM      2  O   UNL d   1     -41.278-121.859 -51.561  0.00  0.00    -0.263 OA
ATOM      3  N   UNL d   1     -41.161-123.277 -51.752  0.00  0.00    -0.205 NA
ENDROOT
BRANCH   1   4
ATOM      4  C   UNL d   1     -41.123-122.401 -52.873  0.00  0.00     0.185 C 
BRANCH   4   5
ATOM      5  O   UNL d   1     -41.797-122.426 -53.344  0.00  0.00    -0.298 OA
BRANCH   5   6
ATOM      6  C   UNL d   1     -41.769-122.138 -54.110  0.00  0.00     0.122 A 
ATOM      7  C   UNL d   1     -42.269-122.449 -54.688  0.00  0.00     0.117 A 
ATOM      8  O   UNL d   1     -42.847-123.047 -54.652  0.00  0.00    -0.330 OA
ATOM      9  C   UNL d   1     -42.241-122.158 -55.460  0.00  0.00     0.022 A 
ATOM     10  C   UNL d   1     -43.175-123.122 -55.411  0.00  0.00     0.117 A 
ATOM     11  C   UNL d   1     -43.611-123.697 -55.018  0.00  0.00     0.035 C 
ATOM     12  C   UNL d   1     -43.440-123.130 -56.178  0.00  0.00     0.035 C 
ATOM     13  C   UNL d   1     -42.801-122.575 -55.906  0.00  0.00     0.003 A 
ATOM     14  C   UNL d   1     -41.713-121.557 -55.652  0.00  0.00     0.002 A 
ATOM     15  C   UNL d   1     -41.221-121.252 -55.082  0.00  0.00     0.002 A 
ATOM     16  C   UNL d   1     -41.249-121.543 -54.309  0.00  0.00     0.027 A 
ENDBRANCH   5   6
ENDBRANCH   4   5
ENDBRANCH   1   4
BRANCH   3  17
ATOM     17  C   UNL d   1     -41.225-123.391 -50.944  0.00  0.00     0.102 C 
BRANCH  17  18
ATOM     18  C   UNL d   1     -41.906-123.734 -50.627  0.00  0.00     0.021 C 
BRANCH  18  19
ATOM     19  C   UNL d   1     -42.030-123.730 -49.809  0.00  0.00     0.004 A 
ATOM     20  C   UNL d   1     -42.786-123.678 -49.511  0.00  0.00     0.026 A 
ATOM     21  C   UNL d   1     -42.919-123.674 -48.695  0.00  0.00     0.116 A 
ATOM     22  C   UNL d   1     -42.277-123.723 -48.179  0.00  0.00     0.116 A 
ATOM     23  C   UNL d   1     -41.511-123.776 -48.476  0.00  0.00     0.026 A 
ATOM     24  C   UNL d   1     -41.375-123.781 -49.292  0.00  0.00     0.002 A 
BRANCH  21  25
ATOM     25  O   UNL d   1     -43.675-123.621 -48.400  0.00  0.00    -0.326 OA
ATOM     26  C   UNL d   1     -44.330-123.803 -48.884  0.00  0.00     0.181 C 
ENDBRANCH  21  25
BRANCH  22  27
ATOM     27  O   UNL d   1     -42.401-123.720 -47.361  0.00  0.00    -0.326 OA
ATOM     28  C   UNL d   1     -42.009-123.171 -46.887  0.00  0.00     0.181 C 
ENDBRANCH  22  27
ENDBRANCH  18  19
ENDBRANCH  17  18
ENDBRANCH   3  17
TORSDOF 8
ENDMDL
