MODEL 1
REMARK VINA RESULT:      -8.0      0.000      0.000
REMARK  5 active torsions:
REMARK  status: ('A' for Active; 'I' for Inactive)
REMARK    1  A    between atoms: C_20  and  C_3 
REMARK    2  A    between atoms: C_6  and  C_8 
REMARK       I    between atoms: C_8  and  N_17 
REMARK    3  A    between atoms: N_17  and  C_21 
REMARK    4  A    between atoms: O_22  and  C_18 
REMARK    5  A    between atoms: C_21  and  C_20 
ROOT
ATOM      1  N   UNL d   1      51.844  32.942  53.493  0.00  0.00    -0.208 NA
ATOM      2  C   UNL d   1      51.123  33.182  53.169  0.00  0.00     0.279 A 
ATOM      3  C   UNL d   1      50.985  33.989  53.015  0.00  0.00     0.059 A 
ATOM      4  C   UNL d   1      52.430  33.509  53.665  0.00  0.00     0.087 A 
ATOM      5  C   UNL d   1      51.569  34.547  53.188  0.00  0.00     0.006 A 
ATOM      6  C   UNL d   1      52.286  34.306  53.511  0.00  0.00     0.018 A 
ATOM      7  C   UNL d   1      53.149  33.260  53.990  0.00  0.00     0.043 A 
ATOM      8  O   UNL d   1      50.543  32.624  52.997  0.00  0.00    -0.265 OA
ATOM      9  C   UNL d   1      52.874  34.865  53.685  0.00  0.00     0.004 A 
ATOM     10  C   UNL d   1      53.729  33.817  54.161  0.00  0.00     0.096 A 
ATOM     11  C   UNL d   1      53.591  34.624  54.008  0.00  0.00     0.024 A 
ENDROOT
BRANCH   3  12
ATOM     12  C   UNL d   1      50.269  34.222  52.694  0.00  0.00     0.026 C 
BRANCH  12  13
ATOM     13  C   UNL d   1      49.846  34.846  53.016  0.00  0.00     0.102 C 
BRANCH  13  14
ATOM     14  N   UNL d   1      49.138  35.102  52.678  0.00  0.00    -0.206 NA
ATOM     15  C   UNL d   1      48.679  35.675  53.056  0.00  0.00     0.285 C 
ATOM     16  O   UNL d   1      48.922  35.995  53.770  0.00  0.00    -0.265 OA
BRANCH  15  17
ATOM     17  C   UNL d   1      47.971  35.925  52.710  0.00  0.00     0.087 A 
ATOM     18  S   UNL d   1      47.425  36.430  53.047  0.00  0.00    -0.082 SA
ATOM     19  C   UNL d   1      46.809  36.537  52.531  0.00  0.00     0.036 A 
ATOM     20  C   UNL d   1      46.969  36.089  51.852  0.00  0.00     0.008 A 
ATOM     21  C   UNL d   1      47.692  35.710  51.964  0.00  0.00     0.012 A 
ENDBRANCH  15  17
ENDBRANCH  13  14
ENDBRANCH  12  13
ENDBRANCH   3  12
BRANCH  10  22
ATOM     22  O   UNL d   1      54.447  33.576  54.484  0.00  0.00    -0.328 OA
ATOM     23  C   UNL d   1      54.633  33.771  55.262  0.00  0.00     0.181 C 
ENDBRANCH  10  22
TORSDOF 5
ENDMDL
MODEL 2
REMARK VINA RESULT:      -7.9      1.549      2.084
REMARK  5 active torsions:
REMARK  status: ('A' for Active; 'I' for Inactive)
REMARK    1  A    between atoms: C_20  and  C_3 
REMARK    2  A    between atoms: C_6  and  C_8 
REMARK       I    between atoms: C_8  and  N_17 
REMARK    3  A    between atoms: N_17  and  C_21 
REMARK    4  A    between atoms: O_22  and  C_18 
REMARK    5  A    between atoms: C_21  and  C_20 
ROOT
ATOM      1  N   UNL d   1      53.143  33.584  53.447  0.00  0.00    -0.208 NA
ATOM      2  C   UNL d   1      52.577  34.175  53.334  0.00  0.00     0.279 A 
ATOM      3  C   UNL d   1      51.808  33.972  53.087  0.00  0.00     0.059 A 
ATOM      4  C   UNL d   1      52.942  32.786  53.312  0.00  0.00     0.087 A 
ATOM      5  C   UNL d   1      51.614  33.180  52.955  0.00  0.00     0.006 A 
ATOM      6  C   UNL d   1      52.179  32.593  53.068  0.00  0.00     0.018 A 
ATOM      7  C   UNL d   1      53.515  32.201  53.427  0.00  0.00     0.043 A 
ATOM      8  O   UNL d   1      52.773  34.963  53.466  0.00  0.00    -0.265 OA
ATOM      9  C   UNL d   1      51.985  31.797  52.936  0.00  0.00     0.004 A 
ATOM     10  C   UNL d   1      53.319  31.413  53.295  0.00  0.00     0.096 A 
ATOM     11  C   UNL d   1      52.550  31.210  53.048  0.00  0.00     0.024 A 
ENDROOT
BRANCH   3  12
ATOM     12  C   UNL d   1      51.250  34.561  52.977  0.00  0.00     0.026 C 
BRANCH  12  13
ATOM     13  C   UNL d   1      50.491  34.380  52.727  0.00  0.00     0.102 C 
BRANCH  13  14
ATOM     14  N   UNL d   1      49.853  34.871  52.909  0.00  0.00    -0.206 NA
ATOM     15  C   UNL d   1      49.212  34.930  52.393  0.00  0.00     0.285 C 
ATOM     16  O   UNL d   1      49.202  34.502  51.694  0.00  0.00    -0.265 OA
BRANCH  15  17
ATOM     17  C   UNL d   1      48.577  35.424  52.584  0.00  0.00     0.087 A 
ATOM     18  S   UNL d   1      47.966  35.635  52.084  0.00  0.00    -0.082 SA
ATOM     19  C   UNL d   1      47.457  36.125  52.480  0.00  0.00     0.036 A 
ATOM     20  C   UNL d   1      47.753  36.227  53.248  0.00  0.00     0.008 A 
ATOM     21  C   UNL d   1      48.449  35.791  53.311  0.00  0.00     0.012 A 
ENDBRANCH  15  17
ENDBRANCH  13  14
ENDBRANCH  12  13
ENDBRANCH   3  12
BRANCH  10  22
ATOM     22  O   UNL d   1      53.885  30.825  53.408  0.00  0.00    -0.328 OA
ATOM     23  C   UNL d   1      53.653  30.076  53.656  0.00  0.00     0.181 C 
ENDBRANCH  10  22
TORSDOF 5
ENDMDL
MODEL 3
REMARK VINA RESULT:      -7.2      1.784      5.373
REMARK  5 active torsions:
REMARK  status: ('A' for Active; 'I' for Inactive)
REMARK    1  A    between atoms: C_20  and  C_3 
REMARK    2  A    between atoms: C_6  and  C_8 
REMARK       I    between atoms: C_8  and  N_17 
REMARK    3  A    between atoms: N_17  and  C_21 
REMARK    4  A    between atoms: O_22  and  C_18 
REMARK    5  A    between atoms: C_21  and  C_20 
ROOT
ATOM      1  N   UNL d   1      49.015  34.831  51.568  0.00  0.00    -0.208 NA
ATOM      2  C   UNL d   1      49.703  34.421  51.772  0.00  0.00     0.279 A 
ATOM      3  C   UNL d   1      49.997  34.466  52.550  0.00  0.00     0.059 A 
ATOM      4  C   UNL d   1      48.619  35.288  52.141  0.00  0.00     0.087 A 
ATOM      5  C   UNL d   1      49.601  34.920  53.115  0.00  0.00     0.006 A 
ATOM      6  C   UNL d   1      48.917  35.328  52.910  0.00  0.00     0.018 A 
ATOM      7  C   UNL d   1      47.932  35.695  51.928  0.00  0.00     0.043 A 
ATOM      8  O   UNL d   1      50.096  33.970  51.208  0.00  0.00    -0.265 OA
ATOM      9  C   UNL d   1      48.518  35.784  53.476  0.00  0.00     0.004 A 
ATOM     10  C   UNL d   1      47.538  36.147  52.492  0.00  0.00     0.096 A 
ATOM     11  C   UNL d   1      47.833  36.191  53.270  0.00  0.00     0.024 A 
ENDROOT
BRANCH   3  12
ATOM     12  C   UNL d   1      50.679  34.058  52.748  0.00  0.00     0.026 C 
BRANCH  12  13
ATOM     13  C   UNL d   1      51.282  34.424  53.165  0.00  0.00     0.102 C 
BRANCH  13  14
ATOM     14  N   UNL d   1      51.881  33.984  53.524  0.00  0.00    -0.206 NA
ATOM     15  C   UNL d   1      52.612  34.331  53.689  0.00  0.00     0.285 C 
ATOM     16  O   UNL d   1      52.750  35.116  53.497  0.00  0.00    -0.265 OA
BRANCH  15  17
ATOM     17  C   UNL d   1      53.205  33.883  54.049  0.00  0.00     0.087 A 
ATOM     18  S   UNL d   1      53.540  34.028  54.780  0.00  0.00    -0.082 SA
ATOM     19  C   UNL d   1      54.101  33.463  54.932  0.00  0.00     0.036 A 
ATOM     20  C   UNL d   1      54.122  32.948  54.282  0.00  0.00     0.008 A 
ATOM     21  C   UNL d   1      53.565  33.210  53.734  0.00  0.00     0.012 A 
ENDBRANCH  15  17
ENDBRANCH  13  14
ENDBRANCH  12  13
ENDBRANCH   3  12
BRANCH  10  22
ATOM     22  O   UNL d   1      46.853  36.555  52.287  0.00  0.00    -0.328 OA
ATOM     23  C   UNL d   1      46.231  36.607  52.823  0.00  0.00     0.181 C 
ENDBRANCH  10  22
TORSDOF 5
ENDMDL
MODEL 4
REMARK VINA RESULT:      -6.9      2.465      3.383
REMARK  5 active torsions:
REMARK  status: ('A' for Active; 'I' for Inactive)
REMARK    1  A    between atoms: C_20  and  C_3 
REMARK    2  A    between atoms: C_6  and  C_8 
REMARK       I    between atoms: C_8  and  N_17 
REMARK    3  A    between atoms: N_17  and  C_21 
REMARK    4  A    between atoms: O_22  and  C_18 
REMARK    5  A    between atoms: C_21  and  C_20 
ROOT
ATOM      1  N   UNL d   1      53.932  31.656  53.857  0.00  0.00    -0.208 NA
ATOM      2  C   UNL d   1      53.675  32.369  53.529  0.00  0.00     0.279 A 
ATOM      3  C   UNL d   1      52.988  32.387  53.059  0.00  0.00     0.059 A 
ATOM      4  C   UNL d   1      53.501  30.956  53.717  0.00  0.00     0.087 A 
ATOM      5  C   UNL d   1      52.564  31.691  52.923  0.00  0.00     0.006 A 
ATOM      6  C   UNL d   1      52.821  30.982  53.251  0.00  0.00     0.018 A 
ATOM      7  C   UNL d   1      53.765  30.247  54.050  0.00  0.00     0.043 A 
ATOM      8  O   UNL d   1      54.099  33.061  53.665  0.00  0.00    -0.265 OA
ATOM      9  C   UNL d   1      52.397  30.282  53.115  0.00  0.00     0.004 A 
ATOM     10  C   UNL d   1      53.342  29.555  53.913  0.00  0.00     0.096 A 
ATOM     11  C   UNL d   1      52.654  29.572  53.443  0.00  0.00     0.024 A 
ENDROOT
BRANCH   3  12
ATOM     12  C   UNL d   1      52.737  33.096  52.735  0.00  0.00     0.026 C 
BRANCH  12  13
ATOM     13  C   UNL d   1      52.131  33.525  53.081  0.00  0.00     0.102 C 
BRANCH  13  14
ATOM     14  N   UNL d   1      51.428  33.675  52.675  0.00  0.00    -0.206 NA
ATOM     15  C   UNL d   1      50.980  34.345  52.851  0.00  0.00     0.285 C 
ATOM     16  O   UNL d   1      51.228  34.869  53.431  0.00  0.00    -0.265 OA
BRANCH  15  17
ATOM     17  C   UNL d   1      50.278  34.487  52.439  0.00  0.00     0.087 A 
ATOM     18  S   UNL d   1      49.584  34.777  52.759  0.00  0.00    -0.082 SA
ATOM     19  C   UNL d   1      49.027  34.836  52.174  0.00  0.00     0.036 A 
ATOM     20  C   UNL d   1      49.375  34.578  51.467  0.00  0.00     0.008 A 
ATOM     21  C   UNL d   1      50.152  34.362  51.634  0.00  0.00     0.012 A 
ENDBRANCH  15  17
ENDBRANCH  13  14
ENDBRANCH  12  13
ENDBRANCH   3  12
BRANCH  10  22
ATOM     22  O   UNL d   1      53.599  28.845  54.242  0.00  0.00    -0.328 OA
ATOM     23  C   UNL d   1      53.378  28.644  55.008  0.00  0.00     0.181 C 
ENDBRANCH  10  22
TORSDOF 5
ENDMDL
MODEL 5
REMARK VINA RESULT:      -6.1      2.108      5.584
REMARK  5 active torsions:
REMARK  status: ('A' for Active; 'I' for Inactive)
REMARK    1  A    between atoms: C_20  and  C_3 
REMARK    2  A    between atoms: C_6  and  C_8 
REMARK       I    between atoms: C_8  and  N_17 
REMARK    3  A    between atoms: N_17  and  C_21 
REMARK    4  A    between atoms: O_22  and  C_18 
REMARK    5  A    between atoms: C_21  and  C_20 
ROOT
ATOM      1  N   UNL d   1      49.264  35.168  52.882  0.00  0.00    -0.208 NA
ATOM      2  C   UNL d   1      50.029  34.948  53.101  0.00  0.00     0.279 A 
ATOM      3  C   UNL d   1      50.498  34.499  52.579  0.00  0.00     0.059 A 
ATOM      4  C   UNL d   1      48.964  34.939  52.138  0.00  0.00     0.087 A 
ATOM      5  C   UNL d   1      50.197  34.274  51.844  0.00  0.00     0.006 A 
ATOM      6  C   UNL d   1      49.434  34.494  51.627  0.00  0.00     0.018 A 
ATOM      7  C   UNL d   1      48.197  35.163  51.926  0.00  0.00     0.043 A 
ATOM      8  O   UNL d   1      50.328  35.172  53.834  0.00  0.00    -0.265 OA
ATOM      9  C   UNL d   1      49.130  34.270  50.889  0.00  0.00     0.004 A 
ATOM     10  C   UNL d   1      47.899  34.939  51.193  0.00  0.00     0.096 A 
ATOM     11  C   UNL d   1      48.368  34.490  50.672  0.00  0.00     0.024 A 
ENDROOT
BRANCH   3  12
ATOM     12  C   UNL d   1      51.256  34.283  52.801  0.00  0.00     0.026 C 
BRANCH  12  13
ATOM     13  C   UNL d   1      51.518  33.512  52.709  0.00  0.00     0.102 C 
BRANCH  13  14
ATOM     14  N   UNL d   1      52.179  33.234  53.119  0.00  0.00    -0.206 NA
ATOM     15  C   UNL d   1      52.569  32.552  52.866  0.00  0.00     0.285 C 
ATOM     16  O   UNL d   1      52.305  32.144  52.205  0.00  0.00    -0.265 OA
BRANCH  15  17
ATOM     17  C   UNL d   1      53.230  32.281  53.282  0.00  0.00     0.087 A 
ATOM     18  S   UNL d   1      53.842  32.743  53.564  0.00  0.00    -0.082 SA
ATOM     19  C   UNL d   1      54.381  32.268  53.940  0.00  0.00     0.036 A 
ATOM     20  C   UNL d   1      54.104  31.488  53.894  0.00  0.00     0.008 A 
ATOM     21  C   UNL d   1      53.388  31.498  53.485  0.00  0.00     0.012 A 
ENDBRANCH  15  17
ENDBRANCH  13  14
ENDBRANCH  12  13
ENDBRANCH   3  12
BRANCH  10  22
ATOM     22  O   UNL d   1      47.135  35.159  50.976  0.00  0.00    -0.328 OA
ATOM     23  C   UNL d   1      46.682  35.623  51.482  0.00  0.00     0.181 C 
ENDBRANCH  10  22
TORSDOF 5
ENDMDL
MODEL 6
REMARK VINA RESULT:      -6.1      3.088      5.838
REMARK  5 active torsions:
REMARK  status: ('A' for Active; 'I' for Inactive)
REMARK    1  A    between atoms: C_20  and  C_3 
REMARK    2  A    between atoms: C_6  and  C_8 
REMARK       I    between atoms: C_8  and  N_17 
REMARK    3  A    between atoms: N_17  and  C_21 
REMARK    4  A    between atoms: O_22  and  C_18 
REMARK    5  A    between atoms: C_21  and  C_20 
ROOT
ATOM      1  N   UNL d   1      52.597  34.258  53.665  0.00  0.00    -0.208 NA
ATOM      2  C   UNL d   1      53.133  33.631  53.704  0.00  0.00     0.279 A 
ATOM      3  C   UNL d   1      52.910  32.877  53.428  0.00  0.00     0.059 A 
ATOM      4  C   UNL d   1      51.835  34.135  53.350  0.00  0.00     0.087 A 
ATOM      5  C   UNL d   1      52.153  32.759  53.117  0.00  0.00     0.006 A 
ATOM      6  C   UNL d   1      51.622  33.386  53.079  0.00  0.00     0.018 A 
ATOM      7  C   UNL d   1      51.306  34.769  53.315  0.00  0.00     0.043 A 
ATOM      8  O   UNL d   1      53.885  33.750  54.014  0.00  0.00    -0.265 OA
ATOM      9  C   UNL d   1      50.862  33.269  52.767  0.00  0.00     0.004 A 
ATOM     10  C   UNL d   1      50.553  34.649  53.004  0.00  0.00     0.096 A 
ATOM     11  C   UNL d   1      50.330  33.896  52.729  0.00  0.00     0.024 A 
ENDROOT
BRANCH   3  12
ATOM     12  C   UNL d   1      53.443  32.257  53.468  0.00  0.00     0.026 C 
BRANCH  12  13
ATOM     13  C   UNL d   1      53.212  31.491  53.295  0.00  0.00     0.102 C 
BRANCH  13  14
ATOM     14  N   UNL d   1      53.324  30.878  53.838  0.00  0.00    -0.206 NA
ATOM     15  C   UNL d   1      53.210  30.093  53.609  0.00  0.00     0.285 C 
ATOM     16  O   UNL d   1      52.984  29.914  52.842  0.00  0.00    -0.265 OA
BRANCH  15  17
ATOM     17  C   UNL d   1      53.324  29.487  54.159  0.00  0.00     0.087 A 
ATOM     18  S   UNL d   1      53.721  28.786  54.024  0.00  0.00    -0.082 SA
ATOM     19  C   UNL d   1      53.710  28.341  54.701  0.00  0.00     0.036 A 
ATOM     20  C   UNL d   1      53.297  28.770  55.278  0.00  0.00     0.008 A 
ATOM     21  C   UNL d   1      53.058  29.482  54.940  0.00  0.00     0.012 A 
ENDBRANCH  15  17
ENDBRANCH  13  14
ENDBRANCH  12  13
ENDBRANCH   3  12
BRANCH  10  22
ATOM     22  O   UNL d   1      50.021  35.276  52.966  0.00  0.00    -0.328 OA
ATOM     23  C   UNL d   1      49.212  35.127  52.949  0.00  0.00     0.181 C 
ENDBRANCH  10  22
TORSDOF 5
ENDMDL
MODEL 7
REMARK VINA RESULT:      -5.9      3.609      5.541
REMARK  5 active torsions:
REMARK  status: ('A' for Active; 'I' for Inactive)
REMARK    1  A    between atoms: C_20  and  C_3 
REMARK    2  A    between atoms: C_6  and  C_8 
REMARK       I    between atoms: C_8  and  N_17 
REMARK    3  A    between atoms: N_17  and  C_21 
REMARK    4  A    between atoms: O_22  and  C_18 
REMARK    5  A    between atoms: C_21  and  C_20 
ROOT
ATOM      1  N   UNL d   1      52.432  33.862  52.961  0.00  0.00    -0.208 NA
ATOM      2  C   UNL d   1      52.609  33.086  52.738  0.00  0.00     0.279 A 
ATOM      3  C   UNL d   1      53.138  32.633  53.195  0.00  0.00     0.059 A 
ATOM      4  C   UNL d   1      52.784  34.188  53.642  0.00  0.00     0.087 A 
ATOM      5  C   UNL d   1      53.484  32.960  53.870  0.00  0.00     0.006 A 
ATOM      6  C   UNL d   1      53.307  33.733  54.090  0.00  0.00     0.018 A 
ATOM      7  C   UNL d   1      52.602  34.965  53.858  0.00  0.00     0.043 A 
ATOM      8  O   UNL d   1      52.263  32.762  52.066  0.00  0.00    -0.265 OA
ATOM      9  C   UNL d   1      53.654  34.063  54.767  0.00  0.00     0.004 A 
ATOM     10  C   UNL d   1      52.948  35.289  54.530  0.00  0.00     0.096 A 
ATOM     11  C   UNL d   1      53.477  34.836  54.987  0.00  0.00     0.024 A 
ENDROOT
BRANCH   3  12
ATOM     12  C   UNL d   1      53.310  31.865  52.971  0.00  0.00     0.026 C 
BRANCH  12  13
ATOM     13  C   UNL d   1      52.855  31.237  53.236  0.00  0.00     0.102 C 
BRANCH  13  14
ATOM     14  N   UNL d   1      53.184  30.636  53.698  0.00  0.00    -0.206 NA
ATOM     15  C   UNL d   1      52.804  29.907  53.765  0.00  0.00     0.285 C 
ATOM     16  O   UNL d   1      52.095  29.771  53.375  0.00  0.00    -0.265 OA
BRANCH  15  17
ATOM     17  C   UNL d   1      53.140  29.312  54.230  0.00  0.00     0.087 A 
ATOM     18  S   UNL d   1      53.004  29.190  55.026  0.00  0.00    -0.082 SA
ATOM     19  C   UNL d   1      53.438  28.552  55.274  0.00  0.00     0.036 A 
ATOM     20  C   UNL d   1      53.858  28.263  54.620  0.00  0.00     0.008 A 
ATOM     21  C   UNL d   1      53.672  28.736  53.972  0.00  0.00     0.012 A 
ENDBRANCH  15  17
ENDBRANCH  13  14
ENDBRANCH  12  13
ENDBRANCH   3  12
BRANCH  10  22
ATOM     22  O   UNL d   1      52.771  36.062  54.751  0.00  0.00    -0.328 OA
ATOM     23  C   UNL d   1      53.366  36.629  54.772  0.00  0.00     0.181 C 
ENDBRANCH  10  22
TORSDOF 5
ENDMDL
MODEL 8
REMARK VINA RESULT:      -5.8      9.811     10.989
REMARK  5 active torsions:
REMARK  status: ('A' for Active; 'I' for Inactive)
REMARK    1  A    between atoms: C_20  and  C_3 
REMARK    2  A    between atoms: C_6  and  C_8 
REMARK       I    between atoms: C_8  and  N_17 
REMARK    3  A    between atoms: N_17  and  C_21 
REMARK    4  A    between atoms: O_22  and  C_18 
REMARK    5  A    between atoms: C_21  and  C_20 
ROOT
ATOM      1  N   UNL d   1      45.261  28.181  58.558  0.00  0.00    -0.208 NA
ATOM      2  C   UNL d   1      45.255  27.388  58.326  0.00  0.00     0.279 A 
ATOM      3  C   UNL d   1      45.057  27.186  57.543  0.00  0.00     0.059 A 
ATOM      4  C   UNL d   1      45.069  28.776  58.006  0.00  0.00     0.087 A 
ATOM      5  C   UNL d   1      44.868  27.778  56.999  0.00  0.00     0.006 A 
ATOM      6  C   UNL d   1      44.875  28.567  57.232  0.00  0.00     0.018 A 
ATOM      7  C   UNL d   1      45.078  29.567  58.246  0.00  0.00     0.043 A 
ATOM      8  O   UNL d   1      45.444  26.800  58.869  0.00  0.00    -0.265 OA
ATOM      9  C   UNL d   1      44.685  29.164  56.687  0.00  0.00     0.004 A 
ATOM     10  C   UNL d   1      44.889  30.155  57.703  0.00  0.00     0.096 A 
ATOM     11  C   UNL d   1      44.691  29.953  56.920  0.00  0.00     0.024 A 
ENDROOT
BRANCH   3  12
ATOM     12  C   UNL d   1      45.052  26.398  57.318  0.00  0.00     0.026 C 
BRANCH  12  13
ATOM     13  C   UNL d   1      44.901  26.183  56.542  0.00  0.00     0.102 C 
BRANCH  13  14
ATOM     14  N   UNL d   1      44.977  25.400  56.293  0.00  0.00    -0.206 NA
ATOM     15  C   UNL d   1      44.683  25.166  55.558  0.00  0.00     0.285 C 
ATOM     16  O   UNL d   1      44.314  25.709  55.067  0.00  0.00    -0.265 OA
BRANCH  15  17
ATOM     17  C   UNL d   1      44.764  24.379  55.318  0.00  0.00     0.087 A 
ATOM     18  S   UNL d   1      44.493  24.062  54.615  0.00  0.00    -0.082 SA
ATOM     19  C   UNL d   1      44.681  23.275  54.590  0.00  0.00     0.036 A 
ATOM     20  C   UNL d   1      45.080  23.088  55.292  0.00  0.00     0.008 A 
ATOM     21  C   UNL d   1      45.131  23.776  55.743  0.00  0.00     0.012 A 
ENDBRANCH  15  17
ENDBRANCH  13  14
ENDBRANCH  12  13
ENDBRANCH   3  12
BRANCH  10  22
ATOM     22  O   UNL d   1      44.896  30.945  57.935  0.00  0.00    -0.328 OA
ATOM     23  C   UNL d   1      44.676  31.532  57.402  0.00  0.00     0.181 C 
ENDBRANCH  10  22
TORSDOF 5
ENDMDL
MODEL 9
REMARK VINA RESULT:      -5.0      9.457     10.738
REMARK  5 active torsions:
REMARK  status: ('A' for Active; 'I' for Inactive)
REMARK    1  A    between atoms: C_20  and  C_3 
REMARK    2  A    between atoms: C_6  and  C_8 
REMARK       I    between atoms: C_8  and  N_17 
REMARK    3  A    between atoms: N_17  and  C_21 
REMARK    4  A    between atoms: O_22  and  C_18 
REMARK    5  A    between atoms: C_21  and  C_20 
ROOT
ATOM      1  N   UNL d   1      44.694  30.571  58.852  0.00  0.00    -0.208 NA
ATOM      2  C   UNL d   1      44.636  29.787  59.106  0.00  0.00     0.279 A 
ATOM      3  C   UNL d   1      44.471  29.183  58.556  0.00  0.00     0.059 A 
ATOM      4  C   UNL d   1      44.585  30.754  58.046  0.00  0.00     0.087 A 
ATOM      5  C   UNL d   1      44.365  29.370  57.759  0.00  0.00     0.006 A 
ATOM      6  C   UNL d   1      44.422  30.151  57.508  0.00  0.00     0.018 A 
ATOM      7  C   UNL d   1      44.644  31.542  57.800  0.00  0.00     0.043 A 
ATOM      8  O   UNL d   1      44.743  29.603  59.901  0.00  0.00    -0.265 OA
ATOM      9  C   UNL d   1      44.315  30.340  56.707  0.00  0.00     0.004 A 
ATOM     10  C   UNL d   1      44.538  31.725  57.005  0.00  0.00     0.096 A 
ATOM     11  C   UNL d   1      44.373  31.122  56.456  0.00  0.00     0.024 A 
ENDROOT
BRANCH   3  12
ATOM     12  C   UNL d   1      44.415  28.408  58.813  0.00  0.00     0.026 C 
BRANCH  12  13
ATOM     13  C   UNL d   1      44.866  27.817  58.468  0.00  0.00     0.102 C 
BRANCH  13  14
ATOM     14  N   UNL d   1      44.574  27.050  58.384  0.00  0.00    -0.206 NA
ATOM     15  C   UNL d   1      45.092  26.411  58.313  0.00  0.00     0.285 C 
ATOM     16  O   UNL d   1      45.903  26.532  58.325  0.00  0.00    -0.265 OA
BRANCH  15  17
ATOM     17  C   UNL d   1      44.789  25.646  58.229  0.00  0.00     0.087 A 
ATOM     18  S   UNL d   1      44.592  25.283  57.525  0.00  0.00    -0.082 SA
ATOM     19  C   UNL d   1      44.316  24.537  57.680  0.00  0.00     0.036 A 
ATOM     20  C   UNL d   1      44.340  24.425  58.501  0.00  0.00     0.008 A 
ATOM     21  C   UNL d   1      44.634  25.116  58.841  0.00  0.00     0.012 A 
ENDBRANCH  15  17
ENDBRANCH  13  14
ENDBRANCH  12  13
ENDBRANCH   3  12
BRANCH  10  22
ATOM     22  O   UNL d   1      44.595  32.507  56.753  0.00  0.00    -0.328 OA
ATOM     23  C   UNL d   1      44.353  32.713  55.995  0.00  0.00     0.181 C 
ENDBRANCH  10  22
TORSDOF 5
ENDMDL
