MODEL 1
REMARK VINA RESULT:      61.3      0.000      0.000
REMARK  8 active torsions:
REMARK  status: ('A' for Active; 'I' for Inactive)
REMARK    1  A    between atoms: C_21  and  C_3 
REMARK    2  A    between atoms: S_17  and  C_5 
REMARK    3  A    between atoms: C_11  and  C_16 
REMARK       I    between atoms: N_14  and  C_11 
REMARK    4  A    between atoms: C_19  and  N_14 
REMARK    5  A    between atoms: C_16  and  C_20 
REMARK    6  A    between atoms: C_20  and  S_17 
REMARK    7  A    between atoms: O_27  and  C_22 
REMARK    8  A    between atoms: C_30  and  O_27 
ROOT
ATOM      1  C   UNL d   1      13.696  13.210  -3.344  0.00  0.00     0.092 A 
ATOM      2  C   UNL d   1      14.177  13.090  -2.003  0.00  0.00     0.057 A 
ATOM      3  C   UNL d   1      13.764  12.777  -2.643  0.00  0.00     0.016 A 
ATOM      4  N   UNL d   1      14.458  14.269  -2.758  0.00  0.00    -0.239 NA
ATOM      5  C   UNL d   1      14.043  13.957  -3.402  0.00  0.00     0.120 A 
ATOM      6  C   UNL d   1      14.525  13.836  -2.061  0.00  0.00     0.081 A 
ATOM      7  C   UNL d   1      14.243  12.657  -1.306  0.00  0.00     0.193 A 
ATOM      8  C   UNL d   1      13.275  12.886  -3.989  0.00  0.00     0.103 C 
ATOM      9  N   UNL d   1      12.854  12.566  -4.640  0.00  0.00    -0.191 NA
ATOM     10  C   UNL d   1      15.004  13.717  -0.724  0.00  0.00     0.042 A 
ATOM     11  C   UNL d   1      14.657  12.971  -0.666  0.00  0.00     0.019 A 
ATOM     12  C   UNL d   1      14.938  14.149  -1.422  0.00  0.00    -0.003 A 
ATOM     13  O   UNL d   1      13.896  11.911  -1.248  0.00  0.00    -0.287 OA
ATOM     14  C   UNL d   1      15.427  14.394  -0.509  0.00  0.00     0.009 C 
ATOM     15  C   UNL d   1      15.075  13.282  -0.015  0.00  0.00     0.009 C 
ENDROOT
BRANCH   3  16
ATOM     16  C   UNL d   1      13.417  12.030  -2.585  0.00  0.00     0.001 C 
ATOM     17  C   UNL d   1      12.879  11.781  -3.156  0.00  0.00     0.000 C 
ENDBRANCH   3  16
BRANCH   5  18
ATOM     18  S   UNL d   1      13.974  14.390  -4.106  0.00  0.00    -0.067 SA
BRANCH  18  19
ATOM     19  C   UNL d   1      14.180  15.191  -4.117  0.00  0.00     0.042 C 
BRANCH  19  20
ATOM     20  C   UNL d   1      14.388  15.559  -4.833  0.00  0.00     0.070 C 
BRANCH  20  21
ATOM     21  C   UNL d   1      14.385  16.384  -4.890  0.00  0.00     0.280 C 
ATOM     22  N   UNL d   1      14.487  16.751  -5.630  0.00  0.00    -0.208 NA
ATOM     23  O   UNL d   1      14.282  16.847  -4.210  0.00  0.00    -0.265 OA
BRANCH  22  24
ATOM     24  C   UNL d   1      14.485  17.577  -5.688  0.00  0.00     0.085 A 
ATOM     25  C   UNL d   1      15.160  18.009  -5.476  0.00  0.00     0.021 A 
ATOM     26  C   UNL d   1      15.151  18.829  -5.536  0.00  0.00     0.026 A 
ATOM     27  C   UNL d   1      14.471  19.236  -5.807  0.00  0.00     0.100 A 
ATOM     28  C   UNL d   1      13.803  18.799  -6.016  0.00  0.00     0.026 A 
ATOM     29  C   UNL d   1      13.805  17.974  -5.958  0.00  0.00     0.021 A 
BRANCH  27  30
ATOM     30  O   UNL d   1      14.467  20.074  -5.866  0.00  0.00    -0.305 OA
BRANCH  30  31
ATOM     31  C   UNL d   1      15.076  20.513  -5.519  0.00  0.00     0.123 C 
ATOM     32  C   UNL d   1      15.010  21.327  -5.473  0.00  0.00     0.029 C 
ENDBRANCH  30  31
ENDBRANCH  27  30
ENDBRANCH  22  24
ENDBRANCH  20  21
ENDBRANCH  19  20
ENDBRANCH  18  19
ENDBRANCH   5  18
TORSDOF 8
ENDMDL
