MODEL 1
REMARK VINA RESULT:      37.9      0.000      0.000
REMARK  2 active torsions:
REMARK  status: ('A' for Active; 'I' for Inactive)
REMARK    1  A    between atoms: C_7  and  N_2 
REMARK    2  A    between atoms: C_9  and  C_5 
ROOT
ATOM      1  C   UNL d   1      42.971 -15.216  37.300  0.00  0.00     0.208 A 
ATOM      2  N   UNL d   1      42.832 -15.825  36.756  0.00  0.00    -0.266 N 
ATOM      3  N   UNL d   1      43.734 -14.931  37.404  0.00  0.00    -0.199 NA
ATOM      4  N   UNL d   1      44.226 -15.854  36.432  0.00  0.00    -0.206 NA
ATOM      5  C   UNL d   1      44.365 -15.244  36.975  0.00  0.00     0.167 A 
ATOM      6  C   UNL d   1      43.459 -16.137  36.330  0.00  0.00     0.186 A 
ATOM      7  S   UNL d   1      42.355 -14.887  37.740  0.00  0.00    -0.038 SA
ENDROOT
BRANCH   2   8
ATOM      8  C   UNL d   1      42.077 -16.108  36.651  0.00  0.00     0.068 A 
ATOM      9  C   UNL d   1      41.448 -15.612  36.716  0.00  0.00     0.018 A 
ATOM     10  C   UNL d   1      40.656 -15.889  36.609  0.00  0.00     0.002 A 
ATOM     11  C   UNL d   1      40.538 -16.682  36.438  0.00  0.00     0.000 A 
ATOM     12  C   UNL d   1      41.182 -17.192  36.372  0.00  0.00     0.002 A 
ATOM     13  C   UNL d   1      39.763 -16.974  36.330  0.00  0.00     0.000 C 
ATOM     14  C   UNL d   1      41.960 -16.901  36.480  0.00  0.00     0.018 A 
ENDBRANCH   2   8
BRANCH   5  15
ATOM     15  C   UNL d   1      45.109 -14.959  37.084  0.00  0.00     0.036 A 
ATOM     16  C   UNL d   1      45.231 -14.270  37.526  0.00  0.00     0.003 A 
ATOM     17  C   UNL d   1      45.986 -13.972  37.643  0.00  0.00     0.000 A 
ATOM     18  C   UNL d   1      46.646 -14.371  37.309  0.00  0.00     0.000 A 
ATOM     19  C   UNL d   1      46.533 -15.056  36.870  0.00  0.00     0.000 A 
ATOM     20  C   UNL d   1      45.769 -15.358  36.751  0.00  0.00     0.003 A 
ENDBRANCH   5  15
TORSDOF 2
ENDMDL
