MODEL 1
REMARK VINA RESULT:      -8.6      0.000      0.000
REMARK  3 active torsions:
REMARK  status: ('A' for Active; 'I' for Inactive)
REMARK    1  A    between atoms: C_9  and  C_1 
REMARK    2  A    between atoms: C_4  and  C_5 
REMARK       I    between atoms: C_5  and  N_8 
REMARK    3  A    between atoms: N_8  and  C_16 
ROOT
ATOM      1  C   UNL d   1     -47.800  13.402  23.008  0.00  0.00     0.024 A 
ATOM      2  C   UNL d   1     -47.744  12.814  23.567  0.00  0.00     0.004 A 
ATOM      3  C   UNL d   1     -47.170  13.581  22.515  0.00  0.00     0.004 A 
ATOM      4  C   UNL d   1     -46.407  12.564  23.149  0.00  0.00     0.085 A 
ATOM      5  C   UNL d   1     -46.472  13.163  22.583  0.00  0.00     0.019 A 
ATOM      6  C   UNL d   1     -47.044  12.390  23.641  0.00  0.00     0.019 A 
ENDROOT
BRANCH   1   7
ATOM      7  C   UNL d   1     -48.503  13.823  22.939  0.00  0.00     0.111 A 
ATOM      8  N   UNL d   1     -48.694  14.522  23.347  0.00  0.00    -0.239 NA
ATOM      9  C   UNL d   1     -49.455  14.757  23.109  0.00  0.00     0.088 A 
ATOM     10  C   UNL d   1     -49.925  15.391  23.321  0.00  0.00     0.020 A 
ATOM     11  C   UNL d   1     -49.732  14.203  22.555  0.00  0.00     0.049 A 
ATOM     12  C   UNL d   1     -50.675  15.485  22.986  0.00  0.00     0.002 A 
ATOM     13  C   UNL d   1     -50.953  14.937  22.435  0.00  0.00     0.001 A 
ATOM     14  C   UNL d   1     -50.481  14.293  22.218  0.00  0.00     0.008 A 
ATOM     15  S   UNL d   1     -49.146  13.632  22.453  0.00  0.00    -0.066 SA
ENDBRANCH   1   7
BRANCH   4  16
ATOM     16  N   UNL d   1     -45.700  12.142  23.217  0.00  0.00    -0.206 NA
ATOM     17  C   UNL d   1     -45.722  11.324  23.317  0.00  0.00     0.304 C 
ATOM     18  O   UNL d   1     -46.436  10.926  23.349  0.00  0.00    -0.263 OA
BRANCH  17  19
ATOM     19  C   UNL d   1     -45.005  10.907  23.385  0.00  0.00     0.182 A 
ATOM     20  O   UNL d   1     -44.296  11.293  23.200  0.00  0.00    -0.296 OA
ATOM     21  C   UNL d   1     -43.587  10.877  23.268  0.00  0.00     0.150 A 
ATOM     22  C   UNL d   1     -43.583  10.090  23.517  0.00  0.00     0.149 A 
ATOM     23  O   UNL d   1     -44.289   9.718  23.698  0.00  0.00    -0.299 OA
ATOM     24  C   UNL d   1     -45.001  10.120  23.634  0.00  0.00     0.152 A 
ENDBRANCH  17  19
ENDBRANCH   4  16
TORSDOF 3
ENDMDL
MODEL 2
REMARK VINA RESULT:      -7.9      2.052      5.724
REMARK  3 active torsions:
REMARK  status: ('A' for Active; 'I' for Inactive)
REMARK    1  A    between atoms: C_9  and  C_1 
REMARK    2  A    between atoms: C_4  and  C_5 
REMARK       I    between atoms: C_5  and  N_8 
REMARK    3  A    between atoms: N_8  and  C_16 
ROOT
ATOM      1  C   UNL d   1     -46.645  12.085  23.362  0.00  0.00     0.024 A 
ATOM      2  C   UNL d   1     -46.584  12.871  23.162  0.00  0.00     0.004 A 
ATOM      3  C   UNL d   1     -47.370  11.748  23.543  0.00  0.00     0.004 A 
ATOM      4  C   UNL d   1     -47.991  13.006  23.320  0.00  0.00     0.085 A 
ATOM      5  C   UNL d   1     -48.045  12.207  23.523  0.00  0.00     0.019 A 
ATOM      6  C   UNL d   1     -47.259  13.338  23.139  0.00  0.00     0.019 A 
ENDROOT
BRANCH   1   7
ATOM      7  C   UNL d   1     -45.966  11.622  23.383  0.00  0.00     0.111 A 
ATOM      8  N   UNL d   1     -45.199  11.873  23.181  0.00  0.00    -0.239 NA
ATOM      9  C   UNL d   1     -44.684  11.228  23.283  0.00  0.00     0.088 A 
ATOM     10  C   UNL d   1     -43.879  11.146  23.171  0.00  0.00     0.020 A 
ATOM     11  C   UNL d   1     -45.134  10.581  23.548  0.00  0.00     0.049 A 
ATOM     12  C   UNL d   1     -43.509  10.423  23.320  0.00  0.00     0.002 A 
ATOM     13  C   UNL d   1     -43.952   9.778  23.583  0.00  0.00     0.001 A 
ATOM     14  C   UNL d   1     -44.767   9.856  23.698  0.00  0.00     0.008 A 
ATOM     15  S   UNL d   1     -45.918  10.826  23.608  0.00  0.00    -0.066 SA
ENDBRANCH   1   7
BRANCH   4  16
ATOM     16  N   UNL d   1     -48.675  13.469  23.299  0.00  0.00    -0.206 NA
ATOM     17  C   UNL d   1     -48.925  13.795  22.584  0.00  0.00     0.304 C 
ATOM     18  O   UNL d   1     -48.504  13.664  21.896  0.00  0.00    -0.263 OA
BRANCH  17  19
ATOM     19  C   UNL d   1     -49.615  14.261  22.574  0.00  0.00     0.182 A 
ATOM     20  O   UNL d   1     -50.344  13.897  22.423  0.00  0.00    -0.296 OA
ATOM     21  C   UNL d   1     -51.026  14.362  22.413  0.00  0.00     0.150 A 
ATOM     22  C   UNL d   1     -50.983  15.175  22.552  0.00  0.00     0.149 A 
ATOM     23  O   UNL d   1     -50.258  15.523  22.700  0.00  0.00    -0.299 OA
ATOM     24  C   UNL d   1     -49.573  15.074  22.712  0.00  0.00     0.152 A 
ENDBRANCH  17  19
ENDBRANCH   4  16
TORSDOF 3
ENDMDL
MODEL 3
REMARK VINA RESULT:      -7.6      1.364      1.704
REMARK  3 active torsions:
REMARK  status: ('A' for Active; 'I' for Inactive)
REMARK    1  A    between atoms: C_9  and  C_1 
REMARK    2  A    between atoms: C_4  and  C_5 
REMARK       I    between atoms: C_5  and  N_8 
REMARK    3  A    between atoms: N_8  and  C_16 
ROOT
ATOM      1  C   UNL d   1     -47.619  14.047  22.803  0.00  0.00     0.024 A 
ATOM      2  C   UNL d   1     -47.023  14.577  22.645  0.00  0.00     0.004 A 
ATOM      3  C   UNL d   1     -47.461  13.252  22.923  0.00  0.00     0.004 A 
ATOM      4  C   UNL d   1     -46.079  13.515  22.722  0.00  0.00     0.085 A 
ATOM      5  C   UNL d   1     -46.691  12.984  22.883  0.00  0.00     0.019 A 
ATOM      6  C   UNL d   1     -46.247  14.313  22.603  0.00  0.00     0.019 A 
ENDROOT
BRANCH   1   7
ATOM      7  C   UNL d   1     -48.396  14.316  22.844  0.00  0.00     0.111 A 
ATOM      8  N   UNL d   1     -48.669  14.945  23.315  0.00  0.00    -0.239 NA
ATOM      9  C   UNL d   1     -49.486  15.026  23.184  0.00  0.00     0.088 A 
ATOM     10  C   UNL d   1     -50.043  15.541  23.489  0.00  0.00     0.020 A 
ATOM     11  C   UNL d   1     -49.715  14.447  22.632  0.00  0.00     0.049 A 
ATOM     12  C   UNL d   1     -50.832  15.490  23.252  0.00  0.00     0.002 A 
ATOM     13  C   UNL d   1     -51.063  14.917  22.705  0.00  0.00     0.001 A 
ATOM     14  C   UNL d   1     -50.504  14.393  22.393  0.00  0.00     0.008 A 
ATOM     15  S   UNL d   1     -49.045  14.014  22.426  0.00  0.00    -0.066 SA
ENDBRANCH   1   7
BRANCH   4  16
ATOM     16  N   UNL d   1     -45.300  13.243  22.682  0.00  0.00    -0.206 NA
ATOM     17  C   UNL d   1     -45.008  12.946  21.970  0.00  0.00     0.304 C 
ATOM     18  O   UNL d   1     -45.482  12.919  21.304  0.00  0.00    -0.263 OA
BRANCH  17  19
ATOM     19  C   UNL d   1     -44.222  12.674  21.939  0.00  0.00     0.182 A 
ATOM     20  O   UNL d   1     -43.662  13.112  21.516  0.00  0.00    -0.296 OA
ATOM     21  C   UNL d   1     -42.883  12.839  21.488  0.00  0.00     0.150 A 
ATOM     22  C   UNL d   1     -42.667  12.142  21.875  0.00  0.00     0.149 A 
ATOM     23  O   UNL d   1     -43.229  11.719  22.290  0.00  0.00    -0.299 OA
ATOM     24  C   UNL d   1     -44.006  11.978  22.326  0.00  0.00     0.152 A 
ENDBRANCH  17  19
ENDBRANCH   4  16
TORSDOF 3
ENDMDL
MODEL 4
REMARK VINA RESULT:      -7.2      1.871      2.197
REMARK  3 active torsions:
REMARK  status: ('A' for Active; 'I' for Inactive)
REMARK    1  A    between atoms: C_9  and  C_1 
REMARK    2  A    between atoms: C_4  and  C_5 
REMARK       I    between atoms: C_5  and  N_8 
REMARK    3  A    between atoms: N_8  and  C_16 
ROOT
ATOM      1  C   UNL d   1     -47.580  12.988  23.042  0.00  0.00     0.024 A 
ATOM      2  C   UNL d   1     -47.105  12.386  23.309  0.00  0.00     0.004 A 
ATOM      3  C   UNL d   1     -47.270  13.624  22.627  0.00  0.00     0.004 A 
ATOM      4  C   UNL d   1     -45.977  13.047  22.747  0.00  0.00     0.085 A 
ATOM      5  C   UNL d   1     -46.467  13.655  22.479  0.00  0.00     0.019 A 
ATOM      6  C   UNL d   1     -46.297  12.411  23.163  0.00  0.00     0.019 A 
ENDROOT
BRANCH   1   7
ATOM      7  C   UNL d   1     -48.389  12.958  23.191  0.00  0.00     0.111 A 
ATOM      8  N   UNL d   1     -48.897  13.613  23.253  0.00  0.00    -0.239 NA
ATOM      9  C   UNL d   1     -49.663  13.328  23.406  0.00  0.00     0.088 A 
ATOM     10  C   UNL d   1     -50.378  13.708  23.519  0.00  0.00     0.020 A 
ATOM     11  C   UNL d   1     -49.626  12.498  23.439  0.00  0.00     0.049 A 
ATOM     12  C   UNL d   1     -51.064  13.271  23.665  0.00  0.00     0.002 A 
ATOM     13  C   UNL d   1     -51.031  12.448  23.698  0.00  0.00     0.001 A 
ATOM     14  C   UNL d   1     -50.310  12.058  23.584  0.00  0.00     0.008 A 
ATOM     15  S   UNL d   1     -48.844  12.275  23.306  0.00  0.00    -0.066 SA
ENDBRANCH   1   7
BRANCH   4  16
ATOM     16  N   UNL d   1     -45.165  13.079  22.596  0.00  0.00    -0.206 NA
ATOM     17  C   UNL d   1     -44.879  12.859  21.855  0.00  0.00     0.304 C 
ATOM     18  O   UNL d   1     -45.391  12.610  21.267  0.00  0.00    -0.263 OA
BRANCH  17  19
ATOM     19  C   UNL d   1     -44.060  12.895  21.713  0.00  0.00     0.182 A 
ATOM     20  O   UNL d   1     -43.729  13.606  21.446  0.00  0.00    -0.296 OA
ATOM     21  C   UNL d   1     -42.916  13.638  21.306  0.00  0.00     0.150 A 
ATOM     22  C   UNL d   1     -42.441  12.973  21.429  0.00  0.00     0.149 A 
ATOM     23  O   UNL d   1     -42.779  12.277  21.693  0.00  0.00    -0.299 OA
ATOM     24  C   UNL d   1     -43.585  12.231  21.836  0.00  0.00     0.152 A 
ENDBRANCH  17  19
ENDBRANCH   4  16
TORSDOF 3
ENDMDL
MODEL 5
REMARK VINA RESULT:      -6.9      2.467      5.759
REMARK  3 active torsions:
REMARK  status: ('A' for Active; 'I' for Inactive)
REMARK    1  A    between atoms: C_9  and  C_1 
REMARK    2  A    between atoms: C_4  and  C_5 
REMARK       I    between atoms: C_5  and  N_8 
REMARK    3  A    between atoms: N_8  and  C_16 
ROOT
ATOM      1  C   UNL d   1     -46.238  13.440  22.611  0.00  0.00     0.024 A 
ATOM      2  C   UNL d   1     -46.885  12.949  22.642  0.00  0.00     0.004 A 
ATOM      3  C   UNL d   1     -46.302  14.241  22.771  0.00  0.00     0.004 A 
ATOM      4  C   UNL d   1     -47.693  14.065  23.000  0.00  0.00     0.085 A 
ATOM      5  C   UNL d   1     -47.029  14.556  22.966  0.00  0.00     0.019 A 
ATOM      6  C   UNL d   1     -47.620  13.261  22.838  0.00  0.00     0.019 A 
ENDROOT
BRANCH   1   7
ATOM      7  C   UNL d   1     -45.504  13.123  22.415  0.00  0.00     0.111 A 
ATOM      8  N   UNL d   1     -45.145  12.466  22.777  0.00  0.00    -0.239 NA
ATOM      9  C   UNL d   1     -44.411  12.339  22.406  0.00  0.00     0.088 A 
ATOM     10  C   UNL d   1     -43.824  11.784  22.525  0.00  0.00     0.020 A 
ATOM     11  C   UNL d   1     -44.319  12.919  21.816  0.00  0.00     0.049 A 
ATOM     12  C   UNL d   1     -43.140  11.793  22.063  0.00  0.00     0.002 A 
ATOM     13  C   UNL d   1     -43.045  12.366  21.477  0.00  0.00     0.001 A 
ATOM     14  C   UNL d   1     -43.636  12.932  21.352  0.00  0.00     0.008 A 
ATOM     15  S   UNL d   1     -44.991  13.397  21.824  0.00  0.00    -0.066 SA
ENDBRANCH   1   7
BRANCH   4  16
ATOM     16  N   UNL d   1     -48.429  14.385  23.198  0.00  0.00    -0.206 NA
ATOM     17  C   UNL d   1     -48.865  14.788  22.626  0.00  0.00     0.304 C 
ATOM     18  O   UNL d   1     -48.576  14.875  21.865  0.00  0.00    -0.263 OA
BRANCH  17  19
ATOM     19  C   UNL d   1     -49.605  15.107  22.834  0.00  0.00     0.182 A 
ATOM     20  O   UNL d   1     -49.657  15.604  23.494  0.00  0.00    -0.296 OA
ATOM     21  C   UNL d   1     -50.392  15.918  23.698  0.00  0.00     0.150 A 
ATOM     22  C   UNL d   1     -51.064  15.741  23.252  0.00  0.00     0.149 A 
ATOM     23  O   UNL d   1     -51.001  15.249  22.602  0.00  0.00    -0.299 OA
ATOM     24  C   UNL d   1     -50.277  14.929  22.388  0.00  0.00     0.152 A 
ENDBRANCH  17  19
ENDBRANCH   4  16
TORSDOF 3
ENDMDL
MODEL 6
REMARK VINA RESULT:      -6.4      1.980      2.523
REMARK  3 active torsions:
REMARK  status: ('A' for Active; 'I' for Inactive)
REMARK    1  A    between atoms: C_9  and  C_1 
REMARK    2  A    between atoms: C_4  and  C_5 
REMARK       I    between atoms: C_5  and  N_8 
REMARK    3  A    between atoms: N_8  and  C_16 
ROOT
ATOM      1  C   UNL d   1     -47.523  12.827  22.816  0.00  0.00     0.024 A 
ATOM      2  C   UNL d   1     -47.267  13.472  22.393  0.00  0.00     0.004 A 
ATOM      3  C   UNL d   1     -46.993  12.283  23.125  0.00  0.00     0.004 A 
ATOM      4  C   UNL d   1     -45.924  13.043  22.578  0.00  0.00     0.085 A 
ATOM      5  C   UNL d   1     -46.192  12.389  23.007  0.00  0.00     0.019 A 
ATOM      6  C   UNL d   1     -46.463  13.585  22.271  0.00  0.00     0.019 A 
ENDROOT
BRANCH   1   7
ATOM      7  C   UNL d   1     -48.330  12.719  22.935  0.00  0.00     0.111 A 
ATOM      8  N   UNL d   1     -48.678  12.118  23.393  0.00  0.00    -0.239 NA
ATOM      9  C   UNL d   1     -49.503  12.219  23.361  0.00  0.00     0.088 A 
ATOM     10  C   UNL d   1     -50.120  11.802  23.697  0.00  0.00     0.020 A 
ATOM     11  C   UNL d   1     -49.662  12.881  22.883  0.00  0.00     0.049 A 
ATOM     12  C   UNL d   1     -50.902  12.035  23.565  0.00  0.00     0.002 A 
ATOM     13  C   UNL d   1     -51.063  12.692  23.092  0.00  0.00     0.001 A 
ATOM     14  C   UNL d   1     -50.442  13.117  22.749  0.00  0.00     0.008 A 
ATOM     15  S   UNL d   1     -48.941  13.185  22.625  0.00  0.00    -0.066 SA
ENDBRANCH   1   7
BRANCH   4  16
ATOM     16  N   UNL d   1     -45.113  13.149  22.459  0.00  0.00    -0.206 NA
ATOM     17  C   UNL d   1     -44.764  12.880  21.762  0.00  0.00     0.304 C 
ATOM     18  O   UNL d   1     -45.212  12.509  21.187  0.00  0.00    -0.263 OA
BRANCH  17  19
ATOM     19  C   UNL d   1     -43.947  12.992  21.652  0.00  0.00     0.182 A 
ATOM     20  O   UNL d   1     -43.448  12.331  21.640  0.00  0.00    -0.296 OA
ATOM     21  C   UNL d   1     -42.638  12.446  21.530  0.00  0.00     0.150 A 
ATOM     22  C   UNL d   1     -42.330  13.207  21.434  0.00  0.00     0.149 A 
ATOM     23  O   UNL d   1     -42.832  13.852  21.447  0.00  0.00    -0.299 OA
ATOM     24  C   UNL d   1     -43.639  13.753  21.555  0.00  0.00     0.152 A 
ENDBRANCH  17  19
ENDBRANCH   4  16
TORSDOF 3
ENDMDL
