MODEL 1
REMARK VINA RESULT:      33.4      0.000      0.000
REMARK  3 active torsions:
REMARK  status: ('A' for Active; 'I' for Inactive)
REMARK    1  A    between atoms: C_2  and  C_1 
REMARK    2  A    between atoms: N_3  and  C_1 
REMARK    3  A    between atoms: C_13  and  N_3 
ROOT
ATOM      1  C   UNL d   1     -51.628  25.292  33.361  0.00  0.00     0.030 A 
ATOM      2  C   UNL d   1     -52.360  24.060  33.450  0.00  0.00     0.119 A 
ATOM      3  C   UNL d   1     -51.641  24.462  33.433  0.00  0.00     0.029 A 
ATOM      4  C   UNL d   1     -53.065  24.489  33.394  0.00  0.00     0.119 A 
ATOM      5  O   UNL d   1     -52.552  23.229  33.518  0.00  0.00    -0.300 OA
ATOM      6  O   UNL d   1     -53.699  23.912  33.428  0.00  0.00    -0.300 OA
ATOM      7  C   UNL d   1     -53.364  23.189  33.500  0.00  0.00     0.304 A 
ATOM      8  C   UNL d   1     -52.335  25.712  33.306  0.00  0.00     0.004 A 
ATOM      9  C   UNL d   1     -53.053  25.310  33.323  0.00  0.00     0.026 A 
ENDROOT
BRANCH   1  10
ATOM     10  C   UNL d   1     -50.910  25.693  33.345  0.00  0.00     0.136 C 
ATOM     11  S   UNL d   1     -50.201  25.271  33.308  0.00  0.00    -0.057 SA
BRANCH  10  12
ATOM     12  N   UNL d   1     -50.902  26.527  33.365  0.00  0.00    -0.235 NA
BRANCH  12  13
ATOM     13  C   UNL d   1     -50.292  26.924  33.758  0.00  0.00     0.082 A 
ATOM     14  C   UNL d   1     -49.602  27.112  33.357  0.00  0.00     0.019 A 
ATOM     15  C   UNL d   1     -48.992  27.509  33.750  0.00  0.00     0.002 A 
ATOM     16  C   UNL d   1     -49.080  27.713  34.544  0.00  0.00     0.000 A 
ATOM     17  C   UNL d   1     -49.777  27.521  34.946  0.00  0.00     0.002 A 
ATOM     18  C   UNL d   1     -50.383  27.127  34.552  0.00  0.00     0.019 A 
ENDBRANCH  12  13
ENDBRANCH  10  12
ENDBRANCH   1  10
TORSDOF 3
ENDMDL
MODEL 2
REMARK VINA RESULT:      35.1      0.884      1.337
REMARK  3 active torsions:
REMARK  status: ('A' for Active; 'I' for Inactive)
REMARK    1  A    between atoms: C_2  and  C_1 
REMARK    2  A    between atoms: N_3  and  C_1 
REMARK    3  A    between atoms: C_13  and  N_3 
ROOT
ATOM      1  C   UNL d   1     -50.937  25.507  33.318  0.00  0.00     0.030 A 
ATOM      2  C   UNL d   1     -51.986  24.528  33.343  0.00  0.00     0.119 A 
ATOM      3  C   UNL d   1     -51.748  25.316  33.337  0.00  0.00     0.029 A 
ATOM      4  C   UNL d   1     -51.414  23.931  33.331  0.00  0.00     0.119 A 
ATOM      5  O   UNL d   1     -52.760  24.162  33.361  0.00  0.00    -0.300 OA
ATOM      6  O   UNL d   1     -51.842  23.188  33.341  0.00  0.00    -0.300 OA
ATOM      7  C   UNL d   1     -52.623  23.360  33.359  0.00  0.00     0.304 A 
ATOM      8  C   UNL d   1     -50.373  24.907  33.306  0.00  0.00     0.004 A 
ATOM      9  C   UNL d   1     -50.611  24.120  33.312  0.00  0.00     0.026 A 
ENDROOT
BRANCH   1  10
ATOM     10  C   UNL d   1     -50.699  26.294  33.311  0.00  0.00     0.136 C 
ATOM     11  S   UNL d   1     -51.264  26.897  33.306  0.00  0.00    -0.057 SA
BRANCH  10  12
ATOM     12  N   UNL d   1     -49.886  26.481  33.310  0.00  0.00    -0.235 NA
BRANCH  12  13
ATOM     13  C   UNL d   1     -49.612  27.133  33.739  0.00  0.00     0.082 A 
ATOM     14  C   UNL d   1     -49.698  27.888  33.433  0.00  0.00     0.019 A 
ATOM     15  C   UNL d   1     -49.424  28.540  33.861  0.00  0.00     0.002 A 
ATOM     16  C   UNL d   1     -49.065  28.428  34.596  0.00  0.00     0.000 A 
ATOM     17  C   UNL d   1     -48.980  27.664  34.902  0.00  0.00     0.002 A 
ATOM     18  C   UNL d   1     -49.253  27.017  34.473  0.00  0.00     0.019 A 
ENDBRANCH  12  13
ENDBRANCH  10  12
ENDBRANCH   1  10
TORSDOF 3
ENDMDL
