MODEL 1
REMARK VINA RESULT:      -2.3      0.000      0.000
REMARK  4 active torsions:
REMARK  status: ('A' for Active; 'I' for Inactive)
REMARK    1  A    between atoms: C_6  and  C_1 
REMARK    2  A    between atoms: C_9  and  N_3 
REMARK    3  A    between atoms: C_17  and  C_9 
REMARK    4  A    between atoms: O_15  and  C_10 
ROOT
ATOM      1  C   UNL d   1      32.786  19.614 -22.574  0.00  0.00     0.148 A 
ATOM      2  N   UNL d   1      32.653  19.817 -21.756  0.00  0.00    -0.227 NA
ATOM      3  N   UNL d   1      33.022  20.309 -22.961  0.00  0.00    -0.289 N 
ATOM      4  C   UNL d   1      33.041  20.919 -22.429  0.00  0.00     0.083 A 
ATOM      5  C   UNL d   1      32.807  20.609 -21.669  0.00  0.00     0.099 A 
ATOM      6  C   UNL d   1      33.232  21.720 -22.504  0.00  0.00     0.019 A 
ATOM      7  C   UNL d   1      32.785  21.148 -21.022  0.00  0.00     0.021 A 
ATOM      8  C   UNL d   1      33.197  22.199 -21.859  0.00  0.00     0.002 A 
ATOM      9  C   UNL d   1      32.972  21.899 -21.124  0.00  0.00     0.002 A 
ENDROOT
BRANCH   1  10
ATOM     10  C   UNL d   1      32.687  18.852 -22.889  0.00  0.00     0.035 A 
ATOM     11  C   UNL d   1      33.183  18.241 -22.675  0.00  0.00     0.005 A 
ATOM     12  C   UNL d   1      33.103  17.472 -22.976  0.00  0.00     0.024 A 
ATOM     13  C   UNL d   1      32.527  17.313 -23.491  0.00  0.00     0.094 A 
ATOM     14  C   UNL d   1      32.006  17.935 -23.723  0.00  0.00     0.024 A 
ATOM     15  C   UNL d   1      32.085  18.704 -23.421  0.00  0.00     0.005 A 
BRANCH  13  16
ATOM     16  O   UNL d   1      32.132  16.769 -23.979  0.00  0.00    -0.328 OA
ATOM     17  C   UNL d   1      32.491  16.045 -24.169  0.00  0.00     0.181 C 
ENDBRANCH  13  16
ENDBRANCH   1  10
BRANCH   3  18
ATOM     18  C   UNL d   1      33.168  20.206 -23.733  0.00  0.00     0.082 C 
BRANCH  18  19
ATOM     19  C   UNL d   1      33.241  20.836 -24.248  0.00  0.00     0.019 C 
ATOM     20  C   UNL d   1      33.237  20.752 -25.066  0.00  0.00     0.002 C 
ENDBRANCH  18  19
ENDBRANCH   3  18
TORSDOF 4
ENDMDL
MODEL 2
REMARK VINA RESULT:      -2.3      1.964      4.057
REMARK  4 active torsions:
REMARK  status: ('A' for Active; 'I' for Inactive)
REMARK    1  A    between atoms: C_6  and  C_1 
REMARK    2  A    between atoms: C_9  and  N_3 
REMARK    3  A    between atoms: C_17  and  C_9 
REMARK    4  A    between atoms: O_15  and  C_10 
ROOT
ATOM      1  C   UNL d   1      32.832  20.732 -21.884  0.00  0.00     0.148 A 
ATOM      2  N   UNL d   1      32.785  19.887 -21.772  0.00  0.00    -0.227 NA
ATOM      3  N   UNL d   1      32.963  20.861 -22.693  0.00  0.00    -0.289 N 
ATOM      4  C   UNL d   1      32.998  20.149 -23.077  0.00  0.00     0.083 A 
ATOM      5  C   UNL d   1      32.885  19.534 -22.495  0.00  0.00     0.099 A 
ATOM      6  C   UNL d   1      33.114  19.947 -23.870  0.00  0.00     0.019 A 
ATOM      7  C   UNL d   1      32.900  18.738 -22.768  0.00  0.00     0.021 A 
ATOM      8  C   UNL d   1      33.121  19.172 -24.086  0.00  0.00     0.002 A 
ATOM      9  C   UNL d   1      33.012  18.578 -23.524  0.00  0.00     0.002 A 
ENDROOT
BRANCH   1  10
ATOM     10  C   UNL d   1      32.756  21.289 -21.273  0.00  0.00     0.035 A 
ATOM     11  C   UNL d   1      33.241  21.263 -20.618  0.00  0.00     0.005 A 
ATOM     12  C   UNL d   1      33.183  21.810 -19.996  0.00  0.00     0.024 A 
ATOM     13  C   UNL d   1      32.641  22.383 -20.030  0.00  0.00     0.094 A 
ATOM     14  C   UNL d   1      32.133  22.423 -20.702  0.00  0.00     0.024 A 
ATOM     15  C   UNL d   1      32.190  21.876 -21.324  0.00  0.00     0.005 A 
BRANCH  13  16
ATOM     16  O   UNL d   1      32.280  23.048 -19.688  0.00  0.00    -0.328 OA
ATOM     17  C   UNL d   1      32.742  23.618 -19.301  0.00  0.00     0.181 C 
ENDBRANCH  13  16
ENDBRANCH   1  10
BRANCH   3  18
ATOM     18  C   UNL d   1      33.020  21.628 -22.884  0.00  0.00     0.082 C 
BRANCH  18  19
ATOM     19  C   UNL d   1      33.172  21.874 -23.648  0.00  0.00     0.019 C 
ATOM     20  C   UNL d   1      33.241  22.666 -23.861  0.00  0.00     0.002 C 
ENDBRANCH  18  19
ENDBRANCH   3  18
TORSDOF 4
ENDMDL
MODEL 3
REMARK VINA RESULT:      -2.3      2.920      4.314
REMARK  4 active torsions:
REMARK  status: ('A' for Active; 'I' for Inactive)
REMARK    1  A    between atoms: C_6  and  C_1 
REMARK    2  A    between atoms: C_9  and  N_3 
REMARK    3  A    between atoms: C_17  and  C_9 
REMARK    4  A    between atoms: O_15  and  C_10 
ROOT
ATOM      1  C   UNL d   1      30.720  17.369 -24.481  0.00  0.00     0.148 A 
ATOM      2  N   UNL d   1      30.857  18.088 -24.919  0.00  0.00    -0.227 NA
ATOM      3  N   UNL d   1      31.440  17.161 -24.123  0.00  0.00    -0.289 N 
ATOM      4  C   UNL d   1      32.003  17.709 -24.318  0.00  0.00     0.083 A 
ATOM      5  C   UNL d   1      31.636  18.294 -24.820  0.00  0.00     0.099 A 
ATOM      6  C   UNL d   1      32.803  17.781 -24.122  0.00  0.00     0.019 A 
ATOM      7  C   UNL d   1      32.119  18.926 -25.094  0.00  0.00     0.021 A 
ATOM      8  C   UNL d   1      33.228  18.402 -24.407  0.00  0.00     0.002 A 
ATOM      9  C   UNL d   1      32.873  18.967 -24.892  0.00  0.00     0.002 A 
ENDROOT
BRANCH   1  10
ATOM     10  C   UNL d   1      29.988  16.977 -24.442  0.00  0.00     0.035 A 
ATOM     11  C   UNL d   1      29.835  16.327 -24.909  0.00  0.00     0.005 A 
ATOM     12  C   UNL d   1      29.111  15.921 -24.887  0.00  0.00     0.024 A 
ATOM     13  C   UNL d   1      28.542  16.164 -24.398  0.00  0.00     0.094 A 
ATOM     14  C   UNL d   1      28.686  16.836 -23.908  0.00  0.00     0.024 A 
ATOM     15  C   UNL d   1      29.410  17.242 -23.930  0.00  0.00     0.005 A 
BRANCH  13  16
ATOM     16  O   UNL d   1      27.776  16.075 -24.089  0.00  0.00    -0.328 OA
ATOM     17  C   UNL d   1      27.622  15.485 -23.526  0.00  0.00     0.181 C 
ENDBRANCH  13  16
ENDBRANCH   1  10
BRANCH   3  18
ATOM     18  C   UNL d   1      31.398  16.497 -23.693  0.00  0.00     0.082 C 
BRANCH  18  19
ATOM     19  C   UNL d   1      32.050  16.186 -23.312  0.00  0.00     0.019 C 
ATOM     20  C   UNL d   1      32.040  15.465 -22.917  0.00  0.00     0.002 C 
ENDBRANCH  18  19
ENDBRANCH   3  18
TORSDOF 4
ENDMDL
MODEL 4
REMARK VINA RESULT:      -2.0      3.218      5.179
REMARK  4 active torsions:
REMARK  status: ('A' for Active; 'I' for Inactive)
REMARK    1  A    between atoms: C_6  and  C_1 
REMARK    2  A    between atoms: C_9  and  N_3 
REMARK    3  A    between atoms: C_17  and  C_9 
REMARK    4  A    between atoms: O_15  and  C_10 
ROOT
ATOM      1  C   UNL d   1      32.742  23.100 -21.184  0.00  0.00     0.148 A 
ATOM      2  N   UNL d   1      32.564  23.699 -21.765  0.00  0.00    -0.227 NA
ATOM      3  N   UNL d   1      32.996  22.428 -21.599  0.00  0.00    -0.289 N 
ATOM      4  C   UNL d   1      32.984  22.583 -22.394  0.00  0.00     0.083 A 
ATOM      5  C   UNL d   1      32.711  23.386 -22.498  0.00  0.00     0.099 A 
ATOM      6  C   UNL d   1      33.177  22.126 -23.055  0.00  0.00     0.019 A 
ATOM      7  C   UNL d   1      32.652  23.674 -23.287  0.00  0.00     0.021 A 
ATOM      8  C   UNL d   1      33.106  22.442 -23.791  0.00  0.00     0.002 A 
ATOM      9  C   UNL d   1      32.842  23.218 -23.892  0.00  0.00     0.002 A 
ENDROOT
BRANCH   1  10
ATOM     10  C   UNL d   1      32.662  23.206 -20.364  0.00  0.00     0.035 A 
ATOM     11  C   UNL d   1      33.241  23.583 -19.931  0.00  0.00     0.005 A 
ATOM     12  C   UNL d   1      33.183  23.699 -19.111  0.00  0.00     0.024 A 
ATOM     13  C   UNL d   1      32.547  23.439 -18.724  0.00  0.00     0.094 A 
ATOM     14  C   UNL d   1      31.939  23.046 -19.159  0.00  0.00     0.024 A 
ATOM     15  C   UNL d   1      31.997  22.930 -19.979  0.00  0.00     0.005 A 
BRANCH  13  16
ATOM     16  O   UNL d   1      32.128  23.349 -18.013  0.00  0.00    -0.328 OA
ATOM     17  C   UNL d   1      32.539  23.234 -17.301  0.00  0.00     0.181 C 
ENDBRANCH  13  16
ENDBRANCH   1  10
BRANCH   3  18
ATOM     18  C   UNL d   1      33.183  21.819 -21.128  0.00  0.00     0.082 C 
BRANCH  18  19
ATOM     19  C   UNL d   1      33.212  21.050 -21.404  0.00  0.00     0.019 C 
ATOM     20  C   UNL d   1      33.019  20.398 -20.942  0.00  0.00     0.002 C 
ENDBRANCH  18  19
ENDBRANCH   3  18
TORSDOF 4
ENDMDL
MODEL 5
REMARK VINA RESULT:      -2.0      1.907      4.176
REMARK  4 active torsions:
REMARK  status: ('A' for Active; 'I' for Inactive)
REMARK    1  A    between atoms: C_6  and  C_1 
REMARK    2  A    between atoms: C_9  and  N_3 
REMARK    3  A    between atoms: C_17  and  C_9 
REMARK    4  A    between atoms: O_15  and  C_10 
ROOT
ATOM      1  C   UNL d   1      32.727  18.106 -23.811  0.00  0.00     0.148 A 
ATOM      2  N   UNL d   1      33.239  17.574 -23.384  0.00  0.00    -0.227 NA
ATOM      3  N   UNL d   1      32.084  17.657 -24.083  0.00  0.00    -0.289 N 
ATOM      4  C   UNL d   1      32.175  16.887 -23.847  0.00  0.00     0.083 A 
ATOM      5  C   UNL d   1      32.905  16.835 -23.406  0.00  0.00     0.099 A 
ATOM      6  C   UNL d   1      31.714  16.210 -23.958  0.00  0.00     0.019 A 
ATOM      7  C   UNL d   1      33.118  16.080 -23.102  0.00  0.00     0.021 A 
ATOM      8  C   UNL d   1      31.957  15.509 -23.649  0.00  0.00     0.002 A 
ATOM      9  C   UNL d   1      32.661  15.458 -23.223  0.00  0.00     0.002 A 
ENDROOT
BRANCH   1  10
ATOM     10  C   UNL d   1      32.876  18.916 -23.915  0.00  0.00     0.035 A 
ATOM     11  C   UNL d   1      33.085  19.215 -24.644  0.00  0.00     0.005 A 
ATOM     12  C   UNL d   1      33.239  20.020 -24.771  0.00  0.00     0.024 A 
ATOM     13  C   UNL d   1      33.183  20.528 -24.169  0.00  0.00     0.094 A 
ATOM     14  C   UNL d   1      32.967  20.233 -23.408  0.00  0.00     0.024 A 
ATOM     15  C   UNL d   1      32.814  19.428 -23.281  0.00  0.00     0.005 A 
BRANCH  13  16
ATOM     16  O   UNL d   1      33.239  21.303 -23.879  0.00  0.00    -0.328 OA
ATOM     17  C   UNL d   1      33.241  21.945 -24.406  0.00  0.00     0.181 C 
ENDBRANCH  13  16
ENDBRANCH   1  10
BRANCH   3  18
ATOM     18  C   UNL d   1      31.555  18.080 -24.494  0.00  0.00     0.082 C 
BRANCH  18  19
ATOM     19  C   UNL d   1      30.928  17.730 -24.883  0.00  0.00     0.019 C 
ATOM     20  C   UNL d   1      30.182  18.074 -24.936  0.00  0.00     0.002 C 
ENDBRANCH  18  19
ENDBRANCH   3  18
TORSDOF 4
ENDMDL
MODEL 6
REMARK VINA RESULT:      -1.7      1.576      3.751
REMARK  4 active torsions:
REMARK  status: ('A' for Active; 'I' for Inactive)
REMARK    1  A    between atoms: C_6  and  C_1 
REMARK    2  A    between atoms: C_9  and  N_3 
REMARK    3  A    between atoms: C_17  and  C_9 
REMARK    4  A    between atoms: O_15  and  C_10 
ROOT
ATOM      1  C   UNL d   1      32.831  19.033 -22.844  0.00  0.00     0.148 A 
ATOM      2  N   UNL d   1      32.738  18.212 -22.631  0.00  0.00    -0.227 NA
ATOM      3  N   UNL d   1      32.960  19.056 -23.664  0.00  0.00    -0.289 N 
ATOM      4  C   UNL d   1      32.951  18.302 -23.959  0.00  0.00     0.083 A 
ATOM      5  C   UNL d   1      32.811  17.769 -23.307  0.00  0.00     0.099 A 
ATOM      6  C   UNL d   1      33.048  18.000 -24.722  0.00  0.00     0.019 A 
ATOM      7  C   UNL d   1      32.778  16.946 -23.481  0.00  0.00     0.021 A 
ATOM      8  C   UNL d   1      33.009  17.205 -24.843  0.00  0.00     0.002 A 
ATOM      9  C   UNL d   1      32.873  16.690 -24.213  0.00  0.00     0.002 A 
ENDROOT
BRANCH   1  10
ATOM     10  C   UNL d   1      32.793  19.663 -22.306  0.00  0.00     0.035 A 
ATOM     11  C   UNL d   1      32.313  20.307 -22.446  0.00  0.00     0.005 A 
ATOM     12  C   UNL d   1      32.260  20.948 -21.921  0.00  0.00     0.024 A 
ATOM     13  C   UNL d   1      32.686  20.946 -21.257  0.00  0.00     0.094 A 
ATOM     14  C   UNL d   1      33.187  20.286 -21.098  0.00  0.00     0.024 A 
ATOM     15  C   UNL d   1      33.241  19.645 -21.622  0.00  0.00     0.005 A 
BRANCH  13  16
ATOM     16  O   UNL d   1      32.912  21.318 -20.550  0.00  0.00    -0.328 OA
ATOM     17  C   UNL d   1      32.594  22.057 -20.350  0.00  0.00     0.181 C 
ENDBRANCH  13  16
ENDBRANCH   1  10
BRANCH   3  18
ATOM     18  C   UNL d   1      33.058  19.790 -23.946  0.00  0.00     0.082 C 
BRANCH  18  19
ATOM     19  C   UNL d   1      33.234  19.932 -24.732  0.00  0.00     0.019 C 
ATOM     20  C   UNL d   1      33.238  20.685 -25.063  0.00  0.00     0.002 C 
ENDBRANCH  18  19
ENDBRANCH   3  18
TORSDOF 4
ENDMDL
MODEL 7
REMARK VINA RESULT:      -1.4      1.496      2.598
REMARK  4 active torsions:
REMARK  status: ('A' for Active; 'I' for Inactive)
REMARK    1  A    between atoms: C_6  and  C_1 
REMARK    2  A    between atoms: C_9  and  N_3 
REMARK    3  A    between atoms: C_17  and  C_9 
REMARK    4  A    between atoms: O_15  and  C_10 
ROOT
ATOM      1  C   UNL d   1      33.053  21.506 -21.284  0.00  0.00     0.148 A 
ATOM      2  N   UNL d   1      33.176  21.378 -20.449  0.00  0.00    -0.227 NA
ATOM      3  N   UNL d   1      32.961  22.324 -21.392  0.00  0.00    -0.289 N 
ATOM      4  C   UNL d   1      33.021  22.698 -20.677  0.00  0.00     0.083 A 
ATOM      5  C   UNL d   1      33.157  22.101 -20.081  0.00  0.00     0.099 A 
ATOM      6  C   UNL d   1      32.975  23.494 -20.456  0.00  0.00     0.019 A 
ATOM      7  C   UNL d   1      33.238  22.361 -19.285  0.00  0.00     0.021 A 
ATOM      8  C   UNL d   1      33.058  23.698 -19.683  0.00  0.00     0.002 A 
ATOM      9  C   UNL d   1      33.189  23.121 -19.108  0.00  0.00     0.002 A 
ENDROOT
BRANCH   1  10
ATOM     10  C   UNL d   1      33.035  20.901 -21.852  0.00  0.00     0.035 A 
ATOM     11  C   UNL d   1      33.233  21.048 -22.629  0.00  0.00     0.005 A 
ATOM     12  C   UNL d   1      33.222  20.459 -23.213  0.00  0.00     0.024 A 
ATOM     13  C   UNL d   1      33.013  19.723 -23.021  0.00  0.00     0.094 A 
ATOM     14  C   UNL d   1      32.805  19.555 -22.221  0.00  0.00     0.024 A 
ATOM     15  C   UNL d   1      32.816  20.144 -21.636  0.00  0.00     0.005 A 
BRANCH  13  16
ATOM     16  O   UNL d   1      32.880  18.935 -23.246  0.00  0.00    -0.328 OA
ATOM     17  C   UNL d   1      32.956  18.711 -24.041  0.00  0.00     0.181 C 
ENDBRANCH  13  16
ENDBRANCH   1  10
BRANCH   3  18
ATOM     18  C   UNL d   1      32.841  22.530 -22.148  0.00  0.00     0.082 C 
BRANCH  18  19
ATOM     19  C   UNL d   1      32.728  23.308 -22.372  0.00  0.00     0.019 C 
ATOM     20  C   UNL d   1      32.482  23.527 -23.126  0.00  0.00     0.002 C 
ENDBRANCH  18  19
ENDBRANCH   3  18
TORSDOF 4
ENDMDL
MODEL 8
REMARK VINA RESULT:      -0.3      1.062      2.227
REMARK  4 active torsions:
REMARK  status: ('A' for Active; 'I' for Inactive)
REMARK    1  A    between atoms: C_6  and  C_1 
REMARK    2  A    between atoms: C_9  and  N_3 
REMARK    3  A    between atoms: C_17  and  C_9 
REMARK    4  A    between atoms: O_15  and  C_10 
ROOT
ATOM      1  C   UNL d   1      33.109  20.985 -23.039  0.00  0.00     0.148 A 
ATOM      2  N   UNL d   1      33.211  21.502 -23.711  0.00  0.00    -0.227 NA
ATOM      3  N   UNL d   1      33.018  21.471 -22.372  0.00  0.00    -0.289 N 
ATOM      4  C   UNL d   1      33.059  22.248 -22.598  0.00  0.00     0.083 A 
ATOM      5  C   UNL d   1      33.181  22.267 -23.443  0.00  0.00     0.099 A 
ATOM      6  C   UNL d   1      33.005  22.956 -22.175  0.00  0.00     0.019 A 
ATOM      7  C   UNL d   1      33.241  23.023 -23.807  0.00  0.00     0.021 A 
ATOM      8  C   UNL d   1      33.068  23.657 -22.565  0.00  0.00     0.002 A 
ATOM      9  C   UNL d   1      33.186  23.676 -23.381  0.00  0.00     0.002 A 
ENDROOT
BRANCH   1  10
ATOM     10  C   UNL d   1      33.107  20.156 -23.083  0.00  0.00     0.035 A 
ATOM     11  C   UNL d   1      33.225  19.700 -22.417  0.00  0.00     0.005 A 
ATOM     12  C   UNL d   1      33.227  18.871 -22.437  0.00  0.00     0.024 A 
ATOM     13  C   UNL d   1      33.111  18.497 -23.122  0.00  0.00     0.094 A 
ATOM     14  C   UNL d   1      32.987  18.955 -23.820  0.00  0.00     0.024 A 
ATOM     15  C   UNL d   1      32.986  19.785 -23.800  0.00  0.00     0.005 A 
BRANCH  13  16
ATOM     16  O   UNL d   1      33.042  17.787 -23.548  0.00  0.00    -0.328 OA
ATOM     17  C   UNL d   1      33.088  17.059 -23.152  0.00  0.00     0.181 C 
ENDBRANCH  13  16
ENDBRANCH   1  10
BRANCH   3  18
ATOM     18  C   UNL d   1      32.917  21.066 -21.699  0.00  0.00     0.082 C 
BRANCH  18  19
ATOM     19  C   UNL d   1      32.753  21.438 -20.990  0.00  0.00     0.019 C 
ATOM     20  C   UNL d   1      32.788  21.055 -20.262  0.00  0.00     0.002 C 
ENDBRANCH  18  19
ENDBRANCH   3  18
TORSDOF 4
ENDMDL
MODEL 9
REMARK VINA RESULT:      -0.2      3.875      5.148
REMARK  4 active torsions:
REMARK  status: ('A' for Active; 'I' for Inactive)
REMARK    1  A    between atoms: C_6  and  C_1 
REMARK    2  A    between atoms: C_9  and  N_3 
REMARK    3  A    between atoms: C_17  and  C_9 
REMARK    4  A    between atoms: O_15  and  C_10 
ROOT
ATOM      1  C   UNL d   1      29.960  16.165 -23.824  0.00  0.00     0.148 A 
ATOM      2  N   UNL d   1      30.609  15.711 -23.505  0.00  0.00    -0.227 NA
ATOM      3  N   UNL d   1      30.293  16.802 -24.240  0.00  0.00    -0.289 N 
ATOM      4  C   UNL d   1      31.100  16.762 -24.191  0.00  0.00     0.083 A 
ATOM      5  C   UNL d   1      31.299  16.074 -23.727  0.00  0.00     0.099 A 
ATOM      6  C   UNL d   1      31.702  17.241 -24.494  0.00  0.00     0.019 A 
ATOM      7  C   UNL d   1      32.117  15.917 -23.601  0.00  0.00     0.021 A 
ATOM      8  C   UNL d   1      32.470  17.054 -24.348  0.00  0.00     0.002 A 
ATOM      9  C   UNL d   1      32.663  16.389 -23.900  0.00  0.00     0.002 A 
ENDROOT
BRANCH   1  10
ATOM     10  C   UNL d   1      29.159  15.974 -23.719  0.00  0.00     0.035 A 
ATOM     11  C   UNL d   1      28.721  15.652 -24.326  0.00  0.00     0.005 A 
ATOM     12  C   UNL d   1      27.919  15.453 -24.243  0.00  0.00     0.024 A 
ATOM     13  C   UNL d   1      27.556  15.577 -23.553  0.00  0.00     0.094 A 
ATOM     14  C   UNL d   1      27.997  15.910 -22.915  0.00  0.00     0.024 A 
ATOM     15  C   UNL d   1      28.798  16.108 -22.998  0.00  0.00     0.005 A 
BRANCH  13  16
ATOM     16  O   UNL d   1      26.869  15.536 -23.088  0.00  0.00    -0.328 OA
ATOM     17  C   UNL d   1      26.211  16.005 -23.277  0.00  0.00     0.181 C 
ENDBRANCH  13  16
ENDBRANCH   1  10
BRANCH   3  18
ATOM     18  C   UNL d   1      29.752  17.278 -24.571  0.00  0.00     0.082 C 
BRANCH  18  19
ATOM     19  C   UNL d   1      29.899  18.070 -24.710  0.00  0.00     0.019 C 
ATOM     20  C   UNL d   1      29.354  18.573 -25.063  0.00  0.00     0.002 C 
ENDBRANCH  18  19
ENDBRANCH   3  18
TORSDOF 4
ENDMDL
