MODEL 1
REMARK VINA RESULT:      11.2      0.000      0.000
REMARK  4 active torsions:
REMARK  status: ('A' for Active; 'I' for Inactive)
REMARK    1  A    between atoms: C_4  and  C_1 
REMARK    2  A    between atoms: C_2  and  C_3 
REMARK    3  A    between atoms: O_7  and  C_13 
REMARK    4  A    between atoms: C_12  and  O_7 
ROOT
ATOM      1  O   UNL d   1      45.472 -16.556  44.955  0.00  0.00    -0.307 OA
ENDROOT
BRANCH   1   2
ATOM      2  C   UNL d   1      45.730 -17.131  44.415  0.00  0.00     0.100 A 
ATOM      3  C   UNL d   1      46.040 -17.828  44.701  0.00  0.00     0.025 A 
ATOM      4  C   UNL d   1      46.303 -18.415  44.170  0.00  0.00     0.005 A 
ATOM      5  C   UNL d   1      46.250 -18.295  43.373  0.00  0.00     0.039 A 
ATOM      6  C   UNL d   1      45.933 -17.583  43.077  0.00  0.00     0.005 A 
ATOM      7  C   UNL d   1      45.669 -16.994  43.606  0.00  0.00     0.025 A 
BRANCH   5   8
ATOM      8  C   UNL d   1      46.512 -18.881  42.843  0.00  0.00     0.196 C 
ATOM      9  O   UNL d   1      46.647 -19.661  43.106  0.00  0.00    -0.287 OA
ATOM     10  C   UNL d   1      46.646 -18.711  42.048  0.00  0.00     0.045 C 
ENDBRANCH   5   8
ENDBRANCH   1   2
BRANCH   1  11
ATOM     11  C   UNL d   1      45.521 -15.740  44.778  0.00  0.00     0.100 A 
ATOM     12  C   UNL d   1      44.833 -15.293  44.871  0.00  0.00     0.025 A 
ATOM     13  C   UNL d   1      44.880 -14.475  44.694  0.00  0.00     0.005 A 
ATOM     14  C   UNL d   1      45.587 -14.128  44.436  0.00  0.00     0.039 A 
ATOM     15  C   UNL d   1      46.249 -14.603  44.355  0.00  0.00     0.005 A 
ATOM     16  C   UNL d   1      46.218 -15.408  44.525  0.00  0.00     0.025 A 
BRANCH  14  17
ATOM     17  C   UNL d   1      45.632 -13.341  44.265  0.00  0.00     0.196 C 
ATOM     18  O   UNL d   1      45.444 -13.064  43.502  0.00  0.00    -0.287 OA
ATOM     19  C   UNL d   1      45.864 -12.810  44.845  0.00  0.00     0.045 C 
ENDBRANCH  14  17
ENDBRANCH   1  11
TORSDOF 4
ENDMDL
MODEL 2
REMARK VINA RESULT:      11.4      0.423      4.351
REMARK  4 active torsions:
REMARK  status: ('A' for Active; 'I' for Inactive)
REMARK    1  A    between atoms: C_4  and  C_1 
REMARK    2  A    between atoms: C_2  and  C_3 
REMARK    3  A    between atoms: O_7  and  C_13 
REMARK    4  A    between atoms: C_12  and  O_7 
ROOT
ATOM      1  O   UNL d   1      45.504 -16.560  44.951  0.00  0.00    -0.307 OA
ENDROOT
BRANCH   1   2
ATOM      2  C   UNL d   1      45.530 -15.746  44.792  0.00  0.00     0.100 A 
ATOM      3  C   UNL d   1      46.254 -15.370  44.782  0.00  0.00     0.025 A 
ATOM      4  C   UNL d   1      46.295 -14.553  44.624  0.00  0.00     0.005 A 
ATOM      5  C   UNL d   1      45.620 -14.132  44.482  0.00  0.00     0.039 A 
ATOM      6  C   UNL d   1      44.879 -14.513  44.493  0.00  0.00     0.005 A 
ATOM      7  C   UNL d   1      44.835 -15.331  44.650  0.00  0.00     0.025 A 
BRANCH   5   8
ATOM      8  C   UNL d   1      45.662 -13.315  44.325  0.00  0.00     0.196 C 
ATOM      9  O   UNL d   1      45.399 -13.010  43.594  0.00  0.00    -0.287 OA
ATOM     10  C   UNL d   1      45.960 -12.786  44.882  0.00  0.00     0.045 C 
ENDBRANCH   5   8
ENDBRANCH   1   2
BRANCH   1  11
ATOM     11  C   UNL d   1      45.759 -17.122  44.385  0.00  0.00     0.100 A 
ATOM     12  C   UNL d   1      45.953 -17.875  44.665  0.00  0.00     0.025 A 
ATOM     13  C   UNL d   1      46.209 -18.439  44.100  0.00  0.00     0.005 A 
ATOM     14  C   UNL d   1      46.265 -18.251  43.295  0.00  0.00     0.039 A 
ATOM     15  C   UNL d   1      46.064 -17.494  43.055  0.00  0.00     0.005 A 
ATOM     16  C   UNL d   1      45.811 -16.929  43.599  0.00  0.00     0.025 A 
BRANCH  14  17
ATOM     17  C   UNL d   1      46.511 -18.794  42.752  0.00  0.00     0.196 C 
ATOM     18  O   UNL d   1      46.631 -18.571  41.958  0.00  0.00    -0.287 OA
ATOM     19  C   UNL d   1      46.645 -19.569  42.981  0.00  0.00     0.045 C 
ENDBRANCH  14  17
ENDBRANCH   1  11
TORSDOF 4
ENDMDL
