MODEL 1
REMARK VINA RESULT:      -3.4      0.000      0.000
REMARK  5 active torsions:
REMARK  status: ('A' for Active; 'I' for Inactive)
REMARK    1  A    between atoms: C_3  and  C_1 
REMARK    2  A    between atoms: C_2  and  C_3 
REMARK    3  A    between atoms: C_4  and  C_2 
REMARK    4  A    between atoms: C_7  and  C_4 
REMARK    5  A    between atoms: O_14  and  C_8 
ROOT
ATOM      1  C   UNL d   1      32.820  20.313 -22.110  0.00  0.00     0.042 C 
ENDROOT
BRANCH   1   2
ATOM      2  C   UNL d   1      32.940  20.739 -21.377  0.00  0.00     0.199 C 
ATOM      3  O   UNL d   1      33.237  20.331 -20.716  0.00  0.00    -0.286 OA
BRANCH   2   4
ATOM      4  C   UNL d   1      32.757  21.551 -21.348  0.00  0.00     0.078 A 
ATOM      5  C   UNL d   1      32.087  21.803 -20.946  0.00  0.00     0.199 A 
ATOM      6  O   UNL d   1      31.595  21.242 -20.567  0.00  0.00    -0.286 OA
ATOM      7  C   UNL d   1      31.899  22.591 -20.912  0.00  0.00     0.042 A 
ATOM      8  C   UNL d   1      32.405  23.151 -21.299  0.00  0.00     0.003 A 
ATOM      9  C   UNL d   1      33.050  22.903 -21.687  0.00  0.00     0.000 A 
ATOM     10  C   UNL d   1      33.239  22.104 -21.720  0.00  0.00     0.006 A 
ENDBRANCH   2   4
ENDBRANCH   1   2
BRANCH   1  11
ATOM     11  C   UNL d   1      33.241  19.592 -22.241  0.00  0.00     0.003 C 
BRANCH  11  12
ATOM     12  C   UNL d   1      33.062  19.188 -22.918  0.00  0.00     0.000 A 
ATOM     13  C   UNL d   1      33.241  19.478 -23.652  0.00  0.00     0.002 A 
ATOM     14  C   UNL d   1      33.045  19.041 -24.324  0.00  0.00     0.024 A 
ATOM     15  C   UNL d   1      32.668  18.310 -24.270  0.00  0.00     0.094 A 
ATOM     16  C   UNL d   1      32.485  18.016 -23.519  0.00  0.00     0.024 A 
ATOM     17  C   UNL d   1      32.678  18.448 -22.838  0.00  0.00     0.002 A 
BRANCH  15  18
ATOM     18  O   UNL d   1      32.474  17.877 -24.954  0.00  0.00    -0.328 OA
ATOM     19  C   UNL d   1      32.093  17.145 -24.904  0.00  0.00     0.181 C 
ENDBRANCH  15  18
ENDBRANCH  11  12
ENDBRANCH   1  11
TORSDOF 5
ENDMDL
MODEL 2
REMARK VINA RESULT:      -3.2      2.391      4.059
REMARK  5 active torsions:
REMARK  status: ('A' for Active; 'I' for Inactive)
REMARK    1  A    between atoms: C_3  and  C_1 
REMARK    2  A    between atoms: C_2  and  C_3 
REMARK    3  A    between atoms: C_4  and  C_2 
REMARK    4  A    between atoms: C_7  and  C_4 
REMARK    5  A    between atoms: O_14  and  C_8 
ROOT
ATOM      1  C   UNL d   1      31.885  17.369 -23.700  0.00  0.00     0.042 C 
ENDROOT
BRANCH   1   2
ATOM      2  C   UNL d   1      32.674  17.682 -23.814  0.00  0.00     0.199 C 
ATOM      3  O   UNL d   1      33.225  17.240 -24.252  0.00  0.00    -0.286 OA
BRANCH   2   4
ATOM      4  C   UNL d   1      32.865  18.421 -23.482  0.00  0.00     0.078 A 
ATOM      5  C   UNL d   1      32.987  19.068 -23.972  0.00  0.00     0.199 A 
ATOM      6  O   UNL d   1      32.918  18.979 -24.801  0.00  0.00    -0.286 OA
ATOM      7  C   UNL d   1      33.174  19.792 -23.660  0.00  0.00     0.042 A 
ATOM      8  C   UNL d   1      33.241  19.872 -22.818  0.00  0.00     0.003 A 
ATOM      9  C   UNL d   1      33.122  19.245 -22.349  0.00  0.00     0.000 A 
ATOM     10  C   UNL d   1      32.933  18.512 -22.667  0.00  0.00     0.006 A 
ENDBRANCH   2   4
ENDBRANCH   1   2
BRANCH   1  11
ATOM     11  C   UNL d   1      31.706  16.591 -23.977  0.00  0.00     0.003 C 
BRANCH  11  12
ATOM     12  C   UNL d   1      30.950  16.329 -23.856  0.00  0.00     0.000 A 
ATOM     13  C   UNL d   1      30.333  16.570 -24.320  0.00  0.00     0.002 A 
ATOM     14  C   UNL d   1      29.574  16.286 -24.172  0.00  0.00     0.024 A 
ATOM     15  C   UNL d   1      29.422  15.757 -23.559  0.00  0.00     0.094 A 
ATOM     16  C   UNL d   1      30.054  15.512 -23.085  0.00  0.00     0.024 A 
ATOM     17  C   UNL d   1      30.821  15.793 -23.227  0.00  0.00     0.002 A 
BRANCH  15  18
ATOM     18  O   UNL d   1      28.652  15.475 -23.416  0.00  0.00    -0.328 OA
ATOM     19  C   UNL d   1      27.996  15.975 -23.467  0.00  0.00     0.181 C 
ENDBRANCH  15  18
ENDBRANCH  11  12
ENDBRANCH   1  11
TORSDOF 5
ENDMDL
MODEL 3
REMARK VINA RESULT:      -3.1      1.014      4.381
REMARK  5 active torsions:
REMARK  status: ('A' for Active; 'I' for Inactive)
REMARK    1  A    between atoms: C_3  and  C_1 
REMARK    2  A    between atoms: C_2  and  C_3 
REMARK    3  A    between atoms: C_4  and  C_2 
REMARK    4  A    between atoms: C_7  and  C_4 
REMARK    5  A    between atoms: O_14  and  C_8 
ROOT
ATOM      1  C   UNL d   1      32.958  19.779 -22.561  0.00  0.00     0.042 C 
ENDROOT
BRANCH   1   2
ATOM      2  C   UNL d   1      33.028  18.945 -22.744  0.00  0.00     0.199 C 
ATOM      3  O   UNL d   1      33.241  18.415 -22.139  0.00  0.00    -0.286 OA
BRANCH   2   4
ATOM      4  C   UNL d   1      32.882  18.691 -23.523  0.00  0.00     0.078 A 
ATOM      5  C   UNL d   1      32.513  17.969 -23.652  0.00  0.00     0.199 A 
ATOM      6  O   UNL d   1      32.287  17.495 -23.001  0.00  0.00    -0.286 OA
ATOM      7  C   UNL d   1      32.365  17.711 -24.407  0.00  0.00     0.042 A 
ATOM      8  C   UNL d   1      32.598  18.199 -25.061  0.00  0.00     0.003 A 
ATOM      9  C   UNL d   1      32.953  18.894 -24.931  0.00  0.00     0.000 A 
ATOM     10  C   UNL d   1      33.102  19.154 -24.166  0.00  0.00     0.006 A 
ENDBRANCH   2   4
ENDBRANCH   1   2
BRANCH   1  11
ATOM     11  C   UNL d   1      33.090  20.040 -21.768  0.00  0.00     0.003 C 
BRANCH  11  12
ATOM     12  C   UNL d   1      32.933  20.818 -21.613  0.00  0.00     0.000 A 
ATOM     13  C   UNL d   1      33.239  21.416 -22.063  0.00  0.00     0.002 A 
ATOM     14  C   UNL d   1      33.060  22.199 -21.879  0.00  0.00     0.024 A 
ATOM     15  C   UNL d   1      32.573  22.395 -21.243  0.00  0.00     0.094 A 
ATOM     16  C   UNL d   1      32.261  21.781 -20.785  0.00  0.00     0.024 A 
ATOM     17  C   UNL d   1      32.436  20.990 -20.962  0.00  0.00     0.002 A 
BRANCH  15  18
ATOM     18  O   UNL d   1      32.398  23.188 -21.065  0.00  0.00    -0.328 OA
ATOM     19  C   UNL d   1      31.798  23.595 -21.463  0.00  0.00     0.181 C 
ENDBRANCH  15  18
ENDBRANCH  11  12
ENDBRANCH   1  11
TORSDOF 5
ENDMDL
MODEL 4
REMARK VINA RESULT:      -2.9      1.037      4.796
REMARK  5 active torsions:
REMARK  status: ('A' for Active; 'I' for Inactive)
REMARK    1  A    between atoms: C_3  and  C_1 
REMARK    2  A    between atoms: C_2  and  C_3 
REMARK    3  A    between atoms: C_4  and  C_2 
REMARK    4  A    between atoms: C_7  and  C_4 
REMARK    5  A    between atoms: O_14  and  C_8 
ROOT
ATOM      1  C   UNL d   1      32.531  18.313 -23.368  0.00  0.00     0.042 C 
ENDROOT
BRANCH   1   2
ATOM      2  C   UNL d   1      32.450  17.797 -24.046  0.00  0.00     0.199 C 
ATOM      3  O   UNL d   1      32.989  17.869 -24.676  0.00  0.00    -0.286 OA
BRANCH   2   4
ATOM      4  C   UNL d   1      31.834  17.237 -24.054  0.00  0.00     0.078 A 
ATOM      5  C   UNL d   1      31.159  17.381 -24.499  0.00  0.00     0.199 A 
ATOM      6  O   UNL d   1      31.096  18.089 -24.940  0.00  0.00    -0.286 OA
ATOM      7  C   UNL d   1      30.553  16.842 -24.514  0.00  0.00     0.042 A 
ATOM      8  C   UNL d   1      30.627  16.127 -24.063  0.00  0.00     0.003 A 
ATOM      9  C   UNL d   1      31.280  15.993 -23.636  0.00  0.00     0.000 A 
ATOM     10  C   UNL d   1      31.893  16.539 -23.622  0.00  0.00     0.006 A 
ENDBRANCH   2   4
ENDBRANCH   1   2
BRANCH   1  11
ATOM     11  C   UNL d   1      33.190  18.841 -23.328  0.00  0.00     0.003 C 
BRANCH  11  12
ATOM     12  C   UNL d   1      33.199  19.360 -22.708  0.00  0.00     0.000 A 
ATOM     13  C   UNL d   1      33.233  19.112 -21.939  0.00  0.00     0.002 A 
ATOM     14  C   UNL d   1      33.241  19.667 -21.330  0.00  0.00     0.024 A 
ATOM     15  C   UNL d   1      33.214  20.477 -21.481  0.00  0.00     0.094 A 
ATOM     16  C   UNL d   1      33.179  20.728 -22.268  0.00  0.00     0.024 A 
ATOM     17  C   UNL d   1      33.170  20.178 -22.888  0.00  0.00     0.002 A 
BRANCH  15  18
ATOM     18  O   UNL d   1      33.222  21.030 -20.859  0.00  0.00    -0.328 OA
ATOM     19  C   UNL d   1      33.183  21.842 -21.007  0.00  0.00     0.181 C 
ENDBRANCH  15  18
ENDBRANCH  11  12
ENDBRANCH   1  11
TORSDOF 5
ENDMDL
MODEL 5
REMARK VINA RESULT:      -1.4      2.681      5.813
REMARK  5 active torsions:
REMARK  status: ('A' for Active; 'I' for Inactive)
REMARK    1  A    between atoms: C_3  and  C_1 
REMARK    2  A    between atoms: C_2  and  C_3 
REMARK    3  A    between atoms: C_4  and  C_2 
REMARK    4  A    between atoms: C_7  and  C_4 
REMARK    5  A    between atoms: O_14  and  C_8 
ROOT
ATOM      1  C   UNL d   1      32.627  22.543 -19.853  0.00  0.00     0.042 C 
ENDROOT
BRANCH   1   2
ATOM      2  C   UNL d   1      32.611  22.466 -20.705  0.00  0.00     0.199 C 
ATOM      3  O   UNL d   1      32.402  23.125 -21.167  0.00  0.00    -0.286 OA
BRANCH   2   4
ATOM      4  C   UNL d   1      32.805  21.731 -21.047  0.00  0.00     0.078 A 
ATOM      5  C   UNL d   1      32.956  21.684 -21.852  0.00  0.00     0.199 A 
ATOM      6  O   UNL d   1      32.914  22.374 -22.323  0.00  0.00    -0.286 OA
ATOM      7  C   UNL d   1      33.146  20.974 -22.194  0.00  0.00     0.042 A 
ATOM      8  C   UNL d   1      33.186  20.281 -21.708  0.00  0.00     0.003 A 
ATOM      9  C   UNL d   1      33.039  20.331 -20.931  0.00  0.00     0.000 A 
ATOM     10  C   UNL d   1      32.847  21.051 -20.585  0.00  0.00     0.006 A 
ENDBRANCH   2   4
ENDBRANCH   1   2
BRANCH   1  11
ATOM     11  C   UNL d   1      32.529  23.308 -19.506  0.00  0.00     0.003 C 
BRANCH  11  12
ATOM     12  C   UNL d   1      32.508  23.338 -18.698  0.00  0.00     0.000 A 
ATOM     13  C   UNL d   1      31.815  23.287 -18.284  0.00  0.00     0.002 A 
ATOM     14  C   UNL d   1      31.827  23.321 -17.461  0.00  0.00     0.024 A 
ATOM     15  C   UNL d   1      32.531  23.406 -17.041  0.00  0.00     0.094 A 
ATOM     16  C   UNL d   1      33.238  23.458 -17.466  0.00  0.00     0.024 A 
ATOM     17  C   UNL d   1      33.237  23.424 -18.295  0.00  0.00     0.002 A 
BRANCH  15  18
ATOM     18  O   UNL d   1      32.533  23.439 -16.209  0.00  0.00    -0.328 OA
ATOM     19  C   UNL d   1      33.132  23.080 -15.767  0.00  0.00     0.181 C 
ENDBRANCH  15  18
ENDBRANCH  11  12
ENDBRANCH   1  11
TORSDOF 5
ENDMDL
