MODEL 1
REMARK VINA RESULT:      48.6      0.000      0.000
REMARK  2 active torsions:
REMARK  status: ('A' for Active; 'I' for Inactive)
REMARK       I    between atoms: C_6  and  N_7 
REMARK    1  A    between atoms: C_9  and  C_6 
REMARK    2  A    between atoms: N_7  and  C_13 
ROOT
ATOM      1  N   UNL d   1      56.774  49.623  50.515  0.00  0.00    -0.169 NA
ATOM      2  C   UNL d   1      57.239  49.635  49.839  0.00  0.00     0.282 A 
ATOM      3  C   UNL d   1      57.271  49.635  51.167  0.00  0.00     0.282 A 
ATOM      4  C   UNL d   1      58.035  49.655  50.077  0.00  0.00     0.064 A 
ATOM      5  C   UNL d   1      58.045  49.654  50.895  0.00  0.00     0.063 A 
ATOM      6  C   UNL d   1      58.770  49.672  51.292  0.00  0.00     0.006 A 
ATOM      7  C   UNL d   1      58.736  49.672  49.641  0.00  0.00     0.024 A 
ATOM      8  O   UNL d   1      56.949  49.629  49.068  0.00  0.00    -0.265 OA
ATOM      9  O   UNL d   1      57.041  49.629  51.959  0.00  0.00    -0.265 OA
ATOM     10  C   UNL d   1      59.455  49.690  50.037  0.00  0.00     0.085 A 
ATOM     11  C   UNL d   1      59.476  49.689  50.865  0.00  0.00     0.019 A 
ENDROOT
BRANCH  10  12
ATOM     12  N   UNL d   1      60.157  49.707  49.602  0.00  0.00    -0.208 NA
ATOM     13  C   UNL d   1      60.839  49.370  49.912  0.00  0.00     0.279 C 
ATOM     14  O   UNL d   1      61.535  49.390  49.476  0.00  0.00    -0.265 OA
BRANCH  13  15
ATOM     15  C   UNL d   1      60.829  49.017  50.647  0.00  0.00     0.058 A 
ATOM     16  C   UNL d   1      60.980  49.476  51.318  0.00  0.00     0.005 A 
ATOM     17  C   UNL d   1      60.973  49.132  52.063  0.00  0.00     0.000 A 
ATOM     18  C   UNL d   1      60.813  48.318  52.145  0.00  0.00     0.000 A 
ATOM     19  C   UNL d   1      60.663  47.863  51.472  0.00  0.00     0.000 A 
ATOM     20  C   UNL d   1      60.805  47.963  52.896  0.00  0.00     0.000 C 
ATOM     21  C   UNL d   1      60.673  48.219  50.729  0.00  0.00     0.005 A 
ENDBRANCH  13  15
ENDBRANCH  10  12
TORSDOF 2
ENDMDL
MODEL 2
REMARK VINA RESULT:      51.5      1.186      1.941
REMARK  2 active torsions:
REMARK  status: ('A' for Active; 'I' for Inactive)
REMARK       I    between atoms: C_6  and  N_7 
REMARK    1  A    between atoms: C_9  and  C_6 
REMARK    2  A    between atoms: N_7  and  C_13 
ROOT
ATOM      1  N   UNL d   1      56.716  49.398  50.274  0.00  0.00    -0.169 NA
ATOM      2  C   UNL d   1      56.881  49.365  51.078  0.00  0.00     0.282 A 
ATOM      3  C   UNL d   1      57.421  49.524  49.874  0.00  0.00     0.282 A 
ATOM      4  C   UNL d   1      57.699  49.472  51.174  0.00  0.00     0.064 A 
ATOM      5  C   UNL d   1      58.023  49.569  50.430  0.00  0.00     0.063 A 
ATOM      6  C   UNL d   1      58.837  49.687  50.353  0.00  0.00     0.006 A 
ATOM      7  C   UNL d   1      58.172  49.491  51.851  0.00  0.00     0.024 A 
ATOM      8  O   UNL d   1      56.319  49.246  51.669  0.00  0.00    -0.265 OA
ATOM      9  O   UNL d   1      57.515  49.594  49.058  0.00  0.00    -0.265 OA
ATOM     10  C   UNL d   1      58.980  49.608  51.774  0.00  0.00     0.085 A 
ATOM     11  C   UNL d   1      59.318  49.707  51.023  0.00  0.00     0.019 A 
ENDROOT
BRANCH  10  12
ATOM     12  N   UNL d   1      59.454  49.627  52.450  0.00  0.00    -0.208 NA
ATOM     13  C   UNL d   1      60.211  49.309  52.428  0.00  0.00     0.279 C 
ATOM     14  O   UNL d   1      60.679  49.329  53.103  0.00  0.00    -0.265 OA
BRANCH  13  15
ATOM     15  C   UNL d   1      60.500  48.973  51.742  0.00  0.00     0.058 A 
ATOM     16  C   UNL d   1      60.765  49.465  51.133  0.00  0.00     0.005 A 
ATOM     17  C   UNL d   1      61.058  49.139  50.438  0.00  0.00     0.000 A 
ATOM     18  C   UNL d   1      61.088  48.312  50.347  0.00  0.00     0.000 A 
ATOM     19  C   UNL d   1      60.822  47.825  50.958  0.00  0.00     0.000 A 
ATOM     20  C   UNL d   1      61.384  47.975  49.646  0.00  0.00     0.000 C 
ATOM     21  C   UNL d   1      60.531  48.162  51.650  0.00  0.00     0.005 A 
ENDBRANCH  13  15
ENDBRANCH  10  12
TORSDOF 2
ENDMDL
