MODEL 1
REMARK VINA RESULT:      91.5      0.000      0.000
REMARK  3 active torsions:
REMARK  status: ('A' for Active; 'I' for Inactive)
REMARK       I    between atoms: C_6  and  N_1 
REMARK    1  A    between atoms: C_11  and  C_5 
REMARK    2  A    between atoms: C_12  and  C_6 
REMARK    3  A    between atoms: C_14  and  C_15 
ROOT
ATOM      1  N   UNL d   1      14.449  15.264  -2.891  0.00  0.00    -0.264 N 
ATOM      2  C   UNL d   1      14.756  15.881  -2.430  0.00  0.00     0.198 A 
ATOM      3  C   UNL d   1      14.344  15.542  -3.649  0.00  0.00     0.138 A 
ATOM      4  N   UNL d   1      14.840  16.538  -2.905  0.00  0.00    -0.243 NA
ATOM      5  C   UNL d   1      14.585  16.331  -3.664  0.00  0.00     0.105 A 
ATOM      6  C   UNL d   1      14.270  14.487  -2.644  0.00  0.00     0.263 C 
ATOM      7  C   UNL d   1      15.052  16.582  -2.118  0.00  0.00     0.041 A 
ATOM      8  C   UNL d   1      14.672  15.220  -1.947  0.00  0.00     0.041 A 
ATOM      9  S   UNL d   1      14.048  15.108  -4.291  0.00  0.00    -0.058 SA
ATOM     10  N   UNL d   1      15.183  15.963  -0.831  0.00  0.00    -0.302 N 
ATOM     11  O   UNL d   1      14.396  14.263  -1.863  0.00  0.00    -0.267 OA
ATOM     12  C   UNL d   1      14.887  15.262  -1.143  0.00  0.00     0.080 A 
ATOM     13  C   UNL d   1      15.267  16.623  -1.315  0.00  0.00     0.080 A 
ATOM     14  C   UNL d   1      15.396  16.004  -0.035  0.00  0.00     0.100 C 
ENDROOT
BRANCH   6  15
ATOM     15  C   UNL d   1      13.968  13.951  -3.183  0.00  0.00     0.056 A 
ATOM     16  C   UNL d   1      13.171  13.968  -3.383  0.00  0.00     0.004 A 
ATOM     17  C   UNL d   1      12.872  13.428  -3.925  0.00  0.00    -0.004 A 
ATOM     18  C   UNL d   1      13.371  12.869  -4.269  0.00  0.00    -0.023 A 
ATOM     19  C   UNL d   1      14.169  12.852  -4.069  0.00  0.00    -0.004 A 
ATOM     20  C   UNL d   1      14.466  13.394  -3.525  0.00  0.00     0.004 A 
BRANCH  18  21
ATOM     21  C   UNL d   1      13.070  12.325  -4.815  0.00  0.00     0.019 C 
ATOM     22  C   UNL d   1      13.353  12.797  -5.437  0.00  0.00     0.004 C 
ATOM     23  C   UNL d   1      12.790  11.860  -4.203  0.00  0.00     0.004 C 
ATOM     24  C   UNL d   1      12.769  11.781  -5.365  0.00  0.00     0.004 C 
ENDBRANCH  18  21
ENDBRANCH   6  15
BRANCH   5  25
ATOM     25  C   UNL d   1      14.559  16.794  -4.341  0.00  0.00     0.020 A 
ATOM     26  C   UNL d   1      14.083  16.571  -4.981  0.00  0.00     0.004 A 
ATOM     27  C   UNL d   1      14.060  17.041  -5.659  0.00  0.00     0.030 A 
ATOM     28  C   UNL d   1      14.511  17.732  -5.701  0.00  0.00     0.140 A 
ATOM     29  C   UNL d   1      14.984  17.951  -5.061  0.00  0.00     0.030 A 
ATOM     30  F   UNL d   1      14.485  18.202  -6.387  0.00  0.00    -0.204 F 
ATOM     31  C   UNL d   1      15.011  17.489  -4.384  0.00  0.00     0.004 A 
ENDBRANCH   5  25
TORSDOF 3
ENDMDL
MODEL 2
REMARK VINA RESULT:      93.3      1.702      4.249
REMARK  3 active torsions:
REMARK  status: ('A' for Active; 'I' for Inactive)
REMARK       I    between atoms: C_6  and  N_1 
REMARK    1  A    between atoms: C_11  and  C_5 
REMARK    2  A    between atoms: C_12  and  C_6 
REMARK    3  A    between atoms: C_14  and  C_15 
ROOT
ATOM      1  N   UNL d   1      13.683  14.723  -4.119  0.00  0.00    -0.264 N 
ATOM      2  C   UNL d   1      13.635  13.997  -3.724  0.00  0.00     0.198 A 
ATOM      3  C   UNL d   1      14.021  15.265  -3.613  0.00  0.00     0.138 A 
ATOM      4  N   UNL d   1      13.943  14.091  -2.975  0.00  0.00    -0.243 NA
ATOM      5  C   UNL d   1      14.184  14.879  -2.903  0.00  0.00     0.105 A 
ATOM      6  C   UNL d   1      13.436  14.894  -4.898  0.00  0.00     0.263 C 
ATOM      7  C   UNL d   1      13.659  13.361  -3.203  0.00  0.00     0.041 A 
ATOM      8  C   UNL d   1      13.324  13.896  -4.479  0.00  0.00     0.041 A 
ATOM      9  S   UNL d   1      14.173  16.062  -3.784  0.00  0.00    -0.058 SA
ATOM     10  N   UNL d   1      13.057  12.516  -4.193  0.00  0.00    -0.302 N 
ATOM     11  O   UNL d   1      13.101  14.305  -5.363  0.00  0.00    -0.267 OA
ATOM     12  C   UNL d   1      13.033  13.152  -4.715  0.00  0.00     0.080 A 
ATOM     13  C   UNL d   1      13.368  12.617  -3.439  0.00  0.00     0.080 A 
ATOM     14  C   UNL d   1      12.769  11.779  -4.427  0.00  0.00     0.100 C 
ENDROOT
BRANCH   6  15
ATOM     15  C   UNL d   1      13.530  15.651  -5.195  0.00  0.00     0.056 A 
ATOM     16  C   UNL d   1      14.253  15.889  -5.502  0.00  0.00     0.004 A 
ATOM     17  C   UNL d   1      14.344  16.650  -5.798  0.00  0.00    -0.004 A 
ATOM     18  C   UNL d   1      13.707  17.176  -5.787  0.00  0.00    -0.023 A 
ATOM     19  C   UNL d   1      12.983  16.937  -5.480  0.00  0.00    -0.004 A 
ATOM     20  C   UNL d   1      12.895  16.173  -5.183  0.00  0.00     0.004 A 
BRANCH  18  21
ATOM     21  C   UNL d   1      13.798  17.942  -6.086  0.00  0.00     0.019 C 
ATOM     22  C   UNL d   1      13.015  17.924  -6.362  0.00  0.00     0.004 C 
ATOM     23  C   UNL d   1      14.570  17.960  -5.814  0.00  0.00     0.004 C 
ATOM     24  C   UNL d   1      13.886  18.711  -6.386  0.00  0.00     0.004 C 
ENDBRANCH  18  21
ENDBRANCH   6  15
BRANCH   5  25
ATOM     25  C   UNL d   1      14.528  15.253  -2.259  0.00  0.00     0.020 A 
ATOM     26  C   UNL d   1      14.631  16.075  -2.260  0.00  0.00     0.004 A 
ATOM     27  C   UNL d   1      14.978  16.446  -1.610  0.00  0.00     0.030 A 
ATOM     28  C   UNL d   1      15.222  16.000  -0.958  0.00  0.00     0.140 A 
ATOM     29  C   UNL d   1      15.117  15.181  -0.961  0.00  0.00     0.030 A 
ATOM     30  F   UNL d   1      15.571  16.380  -0.305  0.00  0.00    -0.204 F 
ATOM     31  C   UNL d   1      14.773  14.806  -1.604  0.00  0.00     0.004 A 
ENDBRANCH   5  25
TORSDOF 3
ENDMDL
