MODEL 1
REMARK VINA RESULT:       0.0      0.000      0.000
REMARK  5 active torsions:
REMARK  status: ('A' for Active; 'I' for Inactive)
REMARK    1  A    between atoms: C_3  and  C_1 
REMARK    2  A    between atoms: S_2  and  C_3 
REMARK    3  A    between atoms: C_8  and  S_2 
REMARK    4  A    between atoms: C_9  and  C_3 
REMARK    5  A    between atoms: N_7  and  C_4 
ROOT
ATOM      1  C   UNL d   1      32.524  17.920 -23.392  0.00  0.00     0.128 A 
ATOM      2  C   UNL d   1      32.834  17.564 -22.716  0.00  0.00     0.166 A 
ATOM      3  N   UNL d   1      32.453  18.737 -23.432  0.00  0.00    -0.240 NA
ATOM      4  N   UNL d   1      33.075  18.034 -22.075  0.00  0.00    -0.225 NA
ATOM      5  C   UNL d   1      32.692  19.197 -22.798  0.00  0.00     0.099 A 
ATOM      6  C   UNL d   1      33.001  18.847 -22.123  0.00  0.00     0.101 A 
ATOM      7  C   UNL d   1      33.241  19.319 -21.485  0.00  0.00     0.021 A 
ATOM      8  C   UNL d   1      32.620  20.018 -22.841  0.00  0.00     0.021 A 
ATOM      9  C   UNL d   1      33.167  20.133 -21.533  0.00  0.00     0.002 A 
ATOM     10  C   UNL d   1      32.858  20.482 -22.209  0.00  0.00     0.002 A 
ENDROOT
BRANCH   1  11
ATOM     11  C   UNL d   1      32.284  17.457 -24.028  0.00  0.00     0.129 C 
BRANCH  11  12
ATOM     12  S   UNL d   1      31.531  17.687 -24.448  0.00  0.00     0.213 S 
ATOM     13  O   UNL d   1      31.589  18.327 -25.066  0.00  0.00    -0.217 OA
ATOM     14  O   UNL d   1      32.128  18.166 -24.769  0.00  0.00    -0.217 OA
BRANCH  12  15
ATOM     15  C   UNL d   1      30.743  17.426 -24.393  0.00  0.00     0.088 A 
ATOM     16  C   UNL d   1      30.574  16.619 -24.406  0.00  0.00     0.011 A 
ATOM     17  C   UNL d   1      29.790  16.356 -24.351  0.00  0.00     0.001 A 
ATOM     18  C   UNL d   1      29.624  15.558 -24.365  0.00  0.00     0.000 C 
ATOM     19  C   UNL d   1      29.178  16.911 -24.282  0.00  0.00     0.000 A 
ATOM     20  C   UNL d   1      29.354  17.727 -24.268  0.00  0.00     0.001 A 
ATOM     21  C   UNL d   1      30.135  17.979 -24.323  0.00  0.00     0.011 A 
ENDBRANCH  12  15
ENDBRANCH  11  12
BRANCH  11  22
ATOM     22  C   UNL d   1      32.650  16.757 -24.374  0.00  0.00     0.135 C 
ATOM     23  N   UNL d   1      33.163  16.708 -25.097  0.00  0.00    -0.146 N 
ENDBRANCH  11  22
ENDBRANCH   1  11
BRANCH   2  24
ATOM     24  N   UNL d   1      32.902  16.735 -22.683  0.00  0.00    -0.288 N 
ATOM     25  C   UNL d   1      32.652  16.256 -22.045  0.00  0.00     0.082 A 
ATOM     26  C   UNL d   1      32.825  15.461 -22.244  0.00  0.00     0.021 A 
ATOM     27  C   UNL d   1      33.178  15.457 -23.000  0.00  0.00     0.021 A 
ATOM     28  C   UNL d   1      33.225  16.249 -23.270  0.00  0.00     0.082 A 
ENDBRANCH   2  24
TORSDOF 5
ENDMDL
