MODEL 1
REMARK VINA RESULT:      17.8      0.000      0.000
REMARK  1 active torsions:
REMARK  status: ('A' for Active; 'I' for Inactive)
REMARK       I    between atoms: C_2  and  N_1 
REMARK    1  A    between atoms: C_4  and  C_2 
ROOT
ATOM      1  N   UNL d   1      58.816  49.695  50.345  0.00  0.00    -0.273 N 
ATOM      2  C   UNL d   1      58.031  49.689  50.662  0.00  0.00     0.271 C 
ATOM      3  C   UNL d   1      59.527  49.695  50.760  0.00  0.00     0.067 A 
ATOM      4  C   UNL d   1      59.020  49.703  49.531  0.00  0.00     0.083 A 
ATOM      5  O   UNL d   1      57.942  49.682  51.488  0.00  0.00    -0.266 OA
ATOM      6  C   UNL d   1      60.154  49.702  50.226  0.00  0.00     0.018 A 
ATOM      7  C   UNL d   1      59.829  49.707  49.462  0.00  0.00     0.021 A 
ATOM      8  C   UNL d   1      59.662  49.689  51.573  0.00  0.00     0.018 A 
ATOM      9  C   UNL d   1      60.923  49.704  50.498  0.00  0.00     0.002 A 
ATOM     10  C   UNL d   1      60.434  49.690  51.849  0.00  0.00     0.002 A 
ATOM     11  C   UNL d   1      61.090  49.698  51.304  0.00  0.00     0.000 A 
ENDROOT
BRANCH   2  12
ATOM     12  C   UNL d   1      57.370  49.690  50.152  0.00  0.00     0.086 A 
ATOM     13  S   UNL d   1      57.298  49.676  49.336  0.00  0.00    -0.082 SA
ATOM     14  C   UNL d   1      56.489  49.686  49.159  0.00  0.00     0.036 A 
ATOM     15  C   UNL d   1      56.053  49.705  49.849  0.00  0.00     0.008 A 
ATOM     16  C   UNL d   1      56.595  49.708  50.474  0.00  0.00     0.012 A 
ENDBRANCH   2  12
TORSDOF 1
ENDMDL
