MODEL 1
REMARK VINA RESULT:      10.0      0.000      0.000
REMARK  4 active torsions:
REMARK  status: ('A' for Active; 'I' for Inactive)
REMARK    1  A    between atoms: C_2  and  C_1 
REMARK    2  A    between atoms: C_4  and  C_3 
REMARK       I    between atoms: N_6  and  C_4 
REMARK    3  A    between atoms: C_5  and  C_10 
REMARK       I    between atoms: N_9  and  C_5 
REMARK    4  A    between atoms: C_10  and  N_6 
ROOT
ATOM      1  C   UNL d   1      14.382  12.681  -0.663  0.00  0.00     0.076 A 
ATOM      2  C   UNL d   1      14.192  12.233  -1.337  0.00  0.00     0.062 A 
ATOM      3  C   UNL d   1      13.883  12.674  -0.015  0.00  0.00     0.004 A 
ATOM      4  C   UNL d   1      13.495  11.782  -1.344  0.00  0.00     0.005 A 
ATOM      5  C   UNL d   1      12.991  11.781  -0.676  0.00  0.00     0.000 A 
ATOM      6  C   UNL d   1      13.194  12.228  -0.021  0.00  0.00    -0.000 A 
ENDROOT
BRANCH   2   7
ATOM      7  C   UNL d   1      14.690  12.235  -1.995  0.00  0.00     0.279 C 
ATOM      8  N   UNL d   1      14.375  12.353  -2.750  0.00  0.00    -0.201 NA
ATOM      9  O   UNL d   1      15.501  12.117  -1.891  0.00  0.00    -0.265 OA
BRANCH   8  10
ATOM     10  C   UNL d   1      13.563  12.470  -2.849  0.00  0.00     0.166 C 
BRANCH  10  11
ATOM     11  C   UNL d   1      13.240  12.492  -3.605  0.00  0.00     0.318 C 
ATOM     12  O   UNL d   1      12.804  13.146  -3.843  0.00  0.00    -0.262 OA
ATOM     13  N   UNL d   1      13.355  11.856  -4.122  0.00  0.00    -0.083 NA
ATOM     14  N   UNL d   1      13.032  11.879  -4.878  0.00  0.00    -0.019 N 
ENDBRANCH  10  11
ENDBRANCH   8  10
ENDBRANCH   2   7
BRANCH   1  15
ATOM     15  C   UNL d   1      15.080  13.133  -0.657  0.00  0.00     0.419 C 
ATOM     16  F   UNL d   1      15.716  13.545  -0.651  0.00  0.00    -0.166 F 
ATOM     17  F   UNL d   1      15.838  12.948  -0.278  0.00  0.00    -0.166 F 
ATOM     18  F   UNL d   1      15.235  13.890  -1.016  0.00  0.00    -0.166 F 
ENDBRANCH   1  15
TORSDOF 4
ENDMDL
