MODEL 1
REMARK VINA RESULT:     134.5      0.000      0.000
REMARK  3 active torsions:
REMARK  status: ('A' for Active; 'I' for Inactive)
REMARK    1  A    between atoms: C_13  and  N_6 
REMARK    2  A    between atoms: C_16  and  C_10 
REMARK    3  A    between atoms: O_19  and  C_17 
ROOT
ATOM      1  C   UNL d   1      61.127  47.279  50.359  0.00  0.00     0.722 A 
ATOM      2  C   UNL d   1      61.818  46.282  49.822  0.00  0.00     0.191 A 
ATOM      3  N   UNL d   1      61.884  46.950  50.278  0.00  0.00    -0.042 NA
ATOM      4  N   UNL d   1      60.614  46.806  49.951  0.00  0.00    -0.131 N 
ATOM      5  C   UNL d   1      61.028  46.192  49.618  0.00  0.00     0.174 A 
ATOM      6  N   UNL d   1      60.710  47.903  50.698  0.00  0.00    -0.138 N 
ATOM      7  N   UNL d   1      62.374  45.739  49.562  0.00  0.00    -0.239 N 
ATOM      8  C   UNL d   1      62.141  45.095  49.091  0.00  0.00     0.358 A 
ATOM      9  N   UNL d   1      61.351  45.005  48.888  0.00  0.00    -0.152 NA
ATOM     10  C   UNL d   1      59.940  47.826  50.507  0.00  0.00     0.100 A 
ATOM     11  C   UNL d   1      60.781  45.558  49.152  0.00  0.00     0.303 A 
ATOM     12  C   UNL d   1      59.855  47.145  50.039  0.00  0.00     0.116 A 
ATOM     13  O   UNL d   1      62.697  44.551  48.831  0.00  0.00    -0.244 OA
ATOM     14  O   UNL d   1      60.001  45.469  48.951  0.00  0.00    -0.263 OA
ATOM     15  C   UNL d   1      63.153  45.828  49.762  0.00  0.00     0.105 C 
ENDROOT
BRANCH   6  16
ATOM     16  C   UNL d   1      61.041  48.505  51.158  0.00  0.00     0.103 A 
ATOM     17  C   UNL d   1      61.462  49.120  50.798  0.00  0.00     0.111 A 
ATOM     18  C   UNL d   1      61.784  49.708  51.250  0.00  0.00     0.026 A 
ATOM     19  C   UNL d   1      61.700  49.705  52.067  0.00  0.00     0.002 A 
ATOM     20  C   UNL d   1      61.279  49.089  52.427  0.00  0.00     0.002 A 
ATOM     21  C   UNL d   1      60.949  48.488  51.967  0.00  0.00     0.020 A 
BRANCH  17  22
ATOM     22  O   UNL d   1      61.700  49.384  50.061  0.00  0.00    -0.327 OA
ATOM     23  C   UNL d   1      61.154  49.690  49.524  0.00  0.00     0.181 C 
ENDBRANCH  17  22
ENDBRANCH   6  16
BRANCH  10  24
ATOM     24  C   UNL d   1      59.322  48.331  50.730  0.00  0.00     0.018 A 
ATOM     25  C   UNL d   1      58.803  48.635  50.164  0.00  0.00     0.002 A 
ATOM     26  C   UNL d   1      58.198  49.129  50.385  0.00  0.00     0.000 A 
ATOM     27  C   UNL d   1      58.092  49.336  51.182  0.00  0.00     0.000 A 
ATOM     28  C   UNL d   1      58.611  49.032  51.748  0.00  0.00     0.000 A 
ATOM     29  C   UNL d   1      59.230  48.527  51.524  0.00  0.00     0.002 A 
ENDBRANCH  10  24
TORSDOF 3
ENDMDL
MODEL 2
REMARK VINA RESULT:     135.2      2.037      3.772
REMARK  3 active torsions:
REMARK  status: ('A' for Active; 'I' for Inactive)
REMARK    1  A    between atoms: C_13  and  N_6 
REMARK    2  A    between atoms: C_16  and  C_10 
REMARK    3  A    between atoms: O_19  and  C_17 
ROOT
ATOM      1  C   UNL d   1      58.800  48.257  50.838  0.00  0.00     0.722 A 
ATOM      2  C   UNL d   1      59.985  48.602  51.323  0.00  0.00     0.191 A 
ATOM      3  N   UNL d   1      59.219  48.853  51.233  0.00  0.00    -0.042 NA
ATOM      4  N   UNL d   1      59.318  47.653  50.694  0.00  0.00    -0.131 N 
ATOM      5  C   UNL d   1      60.047  47.855  50.988  0.00  0.00     0.174 A 
ATOM      6  N   UNL d   1      58.059  48.056  50.541  0.00  0.00    -0.138 N 
ATOM      7  N   UNL d   1      60.641  48.953  51.668  0.00  0.00    -0.239 N 
ATOM      8  C   UNL d   1      61.371  48.556  51.679  0.00  0.00     0.358 A 
ATOM      9  N   UNL d   1      61.432  47.810  51.344  0.00  0.00    -0.152 NA
ATOM     10  C   UNL d   1      58.107  47.331  50.212  0.00  0.00     0.100 A 
ATOM     11  C   UNL d   1      60.765  47.448  50.991  0.00  0.00     0.303 A 
ATOM     12  C   UNL d   1      58.887  47.058  50.295  0.00  0.00     0.116 A 
ATOM     13  O   UNL d   1      62.027  48.908  52.024  0.00  0.00    -0.244 OA
ATOM     14  O   UNL d   1      60.826  46.711  50.660  0.00  0.00    -0.263 OA
ATOM     15  C   UNL d   1      60.580  49.689  51.999  0.00  0.00     0.105 C 
ENDROOT
BRANCH   6  16
ATOM     16  C   UNL d   1      57.383  48.530  50.580  0.00  0.00     0.103 A 
ATOM     17  C   UNL d   1      57.349  49.242  50.159  0.00  0.00     0.111 A 
ATOM     18  C   UNL d   1      56.687  49.704  50.199  0.00  0.00     0.026 A 
ATOM     19  C   UNL d   1      56.042  49.477  50.654  0.00  0.00     0.002 A 
ATOM     20  C   UNL d   1      56.076  48.764  51.075  0.00  0.00     0.002 A 
ATOM     21  C   UNL d   1      56.752  48.291  51.036  0.00  0.00     0.020 A 
BRANCH  17  22
ATOM     22  O   UNL d   1      57.796  49.707  49.655  0.00  0.00    -0.327 OA
ATOM     23  C   UNL d   1      57.704  49.652  48.838  0.00  0.00     0.181 C 
ENDBRANCH  17  22
ENDBRANCH   6  16
BRANCH  10  24
ATOM     24  C   UNL d   1      57.492  46.911  49.846  0.00  0.00     0.018 A 
ATOM     25  C   UNL d   1      57.291  46.154  50.104  0.00  0.00     0.002 A 
ATOM     26  C   UNL d   1      56.688  45.744  49.744  0.00  0.00     0.000 A 
ATOM     27  C   UNL d   1      56.267  46.082  49.114  0.00  0.00     0.000 A 
ATOM     28  C   UNL d   1      56.469  46.840  48.857  0.00  0.00     0.000 A 
ATOM     29  C   UNL d   1      57.084  47.260  49.222  0.00  0.00     0.002 A 
ENDBRANCH  10  24
TORSDOF 3
ENDMDL
