MODEL 1
REMARK VINA RESULT:      29.0      0.000      0.000
REMARK  7 active torsions:
REMARK  status: ('A' for Active; 'I' for Inactive)
REMARK    1  A    between atoms: N_15  and  C_4 
REMARK    2  A    between atoms: C_17  and  N_5 
REMARK    3  A    between atoms: C_19  and  N_10 
REMARK    4  A    between atoms: C_11  and  S_16 
REMARK    5  A    between atoms: S_16  and  C_28 
REMARK    6  A    between atoms: C_27  and  C_17 
REMARK    7  A    between atoms: C_28  and  C_27 
ROOT
ATOM      1  C   UNL d   1     -41.731-119.622 -53.809  0.00  0.00     0.191 A 
ATOM      2  C   UNL d   1     -41.529-120.027 -53.118  0.00  0.00     0.174 A 
ATOM      3  N   UNL d   1     -41.908-120.171 -54.408  0.00  0.00    -0.042 NA
ATOM      4  C   UNL d   1     -41.810-120.929 -54.066  0.00  0.00     0.722 A 
ATOM      5  N   UNL d   1     -41.581-120.852 -53.287  0.00  0.00    -0.136 N 
ATOM      6  N   UNL d   1     -41.732-118.773 -53.821  0.00  0.00    -0.239 N 
ATOM      7  C   UNL d   1     -41.520-118.356 -53.102  0.00  0.00     0.358 A 
ATOM      8  N   UNL d   1     -41.324-118.794 -52.429  0.00  0.00    -0.152 NA
ATOM      9  C   UNL d   1     -41.330-119.641 -52.442  0.00  0.00     0.303 A 
ATOM     10  O   UNL d   1     -41.510-117.516 -53.078  0.00  0.00    -0.244 OA
ATOM     11  O   UNL d   1     -41.125-120.052 -51.740  0.00  0.00    -0.263 OA
ATOM     12  C   UNL d   1     -41.932-118.356 -54.507  0.00  0.00     0.105 C 
ENDROOT
BRANCH   5  13
ATOM     13  C   UNL d   1     -41.465-121.550 -52.884  0.00  0.00     0.072 C 
BRANCH  13  14
ATOM     14  C   UNL d   1     -41.956-121.724 -52.232  0.00  0.00     0.052 C 
ATOM     15  C   UNL d   1     -41.283-122.188 -52.121  0.00  0.00     0.007 C 
BRANCH  14  16
ATOM     16  C   UNL d   1     -41.708-122.266 -51.661  0.00  0.00     0.071 C 
BRANCH  16  17
ATOM     17  S   UNL d   1     -42.223-122.538 -51.091  0.00  0.00    -0.073 SA
BRANCH  17  18
ATOM     18  C   UNL d   1     -41.942-122.902 -50.407  0.00  0.00     0.215 A 
ATOM     19  N   UNL d   1     -42.400-123.182 -49.782  0.00  0.00    -0.186 N 
ATOM     20  N   UNL d   1     -41.901-123.503 -49.217  0.00  0.00    -0.038 NA
ATOM     21  N   UNL d   1     -41.126-123.424 -49.491  0.00  0.00    -0.022 NA
ATOM     22  N   UNL d   1     -41.153-123.052 -50.227  0.00  0.00    -0.101 NA
BRANCH  19  23
ATOM     23  C   UNL d   1     -43.223-123.144 -49.733  0.00  0.00     0.087 A 
ATOM     24  C   UNL d   1     -43.643-123.800 -49.467  0.00  0.00     0.019 A 
ATOM     25  C   UNL d   1     -44.466-123.763 -49.418  0.00  0.00     0.002 A 
ATOM     26  C   UNL d   1     -44.864-123.072 -49.634  0.00  0.00     0.000 A 
ATOM     27  C   UNL d   1     -44.432-122.416 -49.900  0.00  0.00     0.002 A 
ATOM     28  C   UNL d   1     -43.610-122.454 -49.949  0.00  0.00     0.019 A 
ENDBRANCH  19  23
ENDBRANCH  17  18
ENDBRANCH  16  17
ENDBRANCH  14  16
ENDBRANCH  13  14
ENDBRANCH   5  13
BRANCH   4  29
ATOM     29  N   UNL d   1     -41.926-121.649 -54.455  0.00  0.00    -0.136 N 
ATOM     30  C   UNL d   1     -42.667-122.020 -54.421  0.00  0.00     0.117 A 
ATOM     31  C   UNL d   1     -42.772-122.739 -54.814  0.00  0.00     0.100 A 
ATOM     32  N   UNL d   1     -42.148-123.088 -55.236  0.00  0.00    -0.299 N 
ATOM     33  C   UNL d   1     -41.417-122.707 -55.261  0.00  0.00     0.100 A 
ATOM     34  C   UNL d   1     -42.265-123.809 -55.626  0.00  0.00     0.100 C 
ATOM     35  C   UNL d   1     -41.301-121.991 -54.874  0.00  0.00     0.117 A 
ENDBRANCH   4  29
TORSDOF 7
ENDMDL
MODEL 2
REMARK VINA RESULT:      29.8      1.752      3.192
REMARK  7 active torsions:
REMARK  status: ('A' for Active; 'I' for Inactive)
REMARK    1  A    between atoms: N_15  and  C_4 
REMARK    2  A    between atoms: C_17  and  N_5 
REMARK    3  A    between atoms: C_19  and  N_10 
REMARK    4  A    between atoms: C_11  and  S_16 
REMARK    5  A    between atoms: S_16  and  C_28 
REMARK    6  A    between atoms: C_27  and  C_17 
REMARK    7  A    between atoms: C_28  and  C_27 
ROOT
ATOM      1  C   UNL d   1     -41.959-121.331 -54.641  0.00  0.00     0.191 A 
ATOM      2  C   UNL d   1     -42.239-121.939 -54.157  0.00  0.00     0.174 A 
ATOM      3  N   UNL d   1     -41.698-120.699 -54.166  0.00  0.00    -0.042 NA
ATOM      4  C   UNL d   1     -41.826-120.936 -53.373  0.00  0.00     0.722 A 
ATOM      5  N   UNL d   1     -42.152-121.683 -53.358  0.00  0.00    -0.136 N 
ATOM      6  N   UNL d   1     -41.970-121.417 -55.485  0.00  0.00    -0.239 N 
ATOM      7  C   UNL d   1     -42.279-122.147 -55.815  0.00  0.00     0.358 A 
ATOM      8  N   UNL d   1     -42.551-122.734 -55.301  0.00  0.00    -0.152 NA
ATOM      9  C   UNL d   1     -42.529-122.624 -54.461  0.00  0.00     0.303 A 
ATOM     10  O   UNL d   1     -42.305-122.267 -56.646  0.00  0.00    -0.244 OA
ATOM     11  O   UNL d   1     -42.814-123.241 -53.970  0.00  0.00    -0.263 OA
ATOM     12  C   UNL d   1     -41.692-120.815 -55.980  0.00  0.00     0.105 C 
ENDROOT
BRANCH   5  13
ATOM     13  C   UNL d   1     -42.307-121.984 -52.617  0.00  0.00     0.072 C 
BRANCH  13  14
ATOM     14  C   UNL d   1     -41.735-122.474 -52.255  0.00  0.00     0.052 C 
ATOM     15  C   UNL d   1     -42.455-122.855 -52.125  0.00  0.00     0.007 C 
BRANCH  14  16
ATOM     16  C   UNL d   1     -41.967-123.169 -51.876  0.00  0.00     0.071 C 
BRANCH  16  17
ATOM     17  S   UNL d   1     -41.998-123.212 -51.064  0.00  0.00    -0.073 SA
BRANCH  17  18
ATOM     18  C   UNL d   1     -42.699-123.409 -50.677  0.00  0.00     0.215 A 
ATOM     19  N   UNL d   1     -42.818-123.420 -49.862  0.00  0.00    -0.186 N 
ATOM     20  N   UNL d   1     -43.593-123.645 -49.716  0.00  0.00    -0.038 NA
ATOM     21  N   UNL d   1     -43.959-123.775 -50.444  0.00  0.00    -0.022 NA
ATOM     22  N   UNL d   1     -43.406-123.629 -51.037  0.00  0.00    -0.101 NA
BRANCH  19  23
ATOM     23  C   UNL d   1     -42.254-123.235 -49.290  0.00  0.00     0.087 A 
ATOM     24  C   UNL d   1     -41.729-123.816 -49.037  0.00  0.00     0.019 A 
ATOM     25  C   UNL d   1     -41.164-123.632 -48.464  0.00  0.00     0.002 A 
ATOM     26  C   UNL d   1     -41.126-122.870 -48.148  0.00  0.00     0.000 A 
ATOM     27  C   UNL d   1     -41.659-122.291 -48.409  0.00  0.00     0.002 A 
ATOM     28  C   UNL d   1     -42.224-122.476 -48.981  0.00  0.00     0.019 A 
ENDBRANCH  19  23
ENDBRANCH  17  18
ENDBRANCH  16  17
ENDBRANCH  14  16
ENDBRANCH  13  14
ENDBRANCH   5  13
BRANCH   4  29
ATOM     29  N   UNL d   1     -41.649-120.484 -52.704  0.00  0.00    -0.136 N 
ATOM     30  C   UNL d   1     -41.344-120.853 -52.027  0.00  0.00     0.117 A 
ATOM     31  C   UNL d   1     -41.171-120.392 -51.364  0.00  0.00     0.100 A 
ATOM     32  N   UNL d   1     -41.300-119.571 -51.371  0.00  0.00    -0.299 N 
ATOM     33  C   UNL d   1     -41.604-119.219 -52.052  0.00  0.00     0.100 A 
ATOM     34  C   UNL d   1     -41.123-119.119 -50.701  0.00  0.00     0.100 C 
ATOM     35  C   UNL d   1     -41.780-119.667 -52.718  0.00  0.00     0.117 A 
ENDBRANCH   4  29
TORSDOF 7
ENDMDL
