MODEL 1
REMARK VINA RESULT:      -1.2      0.000      0.000
REMARK  5 active torsions:
REMARK  status: ('A' for Active; 'I' for Inactive)
REMARK    1  A    between atoms: S_4  and  N_1 
REMARK    2  A    between atoms: C_2  and  C_5 
REMARK    3  A    between atoms: C_12  and  C_7 
REMARK    4  A    between atoms: O_26  and  C_24 
REMARK    5  A    between atoms: C_27  and  O_26 
ROOT
ATOM      1  C   UNL d   1      31.499  17.629 -23.499  0.00  0.00     0.076 A 
ATOM      2  C   UNL d   1      31.593  16.898 -23.135  0.00  0.00     0.281 A 
ATOM      3  C   UNL d   1      30.836  17.774 -23.969  0.00  0.00     0.008 A 
ATOM      4  N   UNL d   1      31.024  16.308 -23.239  0.00  0.00    -0.208 NA
ATOM      5  C   UNL d   1      30.355  16.453 -23.712  0.00  0.00     0.087 A 
ATOM      6  C   UNL d   1      30.262  17.183 -24.075  0.00  0.00     0.018 A 
ATOM      7  C   UNL d   1      29.786  15.863 -23.816  0.00  0.00     0.044 A 
ATOM      8  O   UNL d   1      32.027  16.384 -22.652  0.00  0.00    -0.265 OA
ATOM      9  C   UNL d   1      29.599  17.329 -24.545  0.00  0.00     0.004 A 
ATOM     10  C   UNL d   1      29.173  16.028 -24.263  0.00  0.00     0.102 A 
ATOM     11  C   UNL d   1      29.080  16.758 -24.626  0.00  0.00     0.025 A 
ENDROOT
BRANCH   1  12
ATOM     12  C   UNL d   1      32.069  18.218 -23.394  0.00  0.00     0.101 A 
ATOM     13  N   UNL d   1      32.743  18.315 -23.833  0.00  0.00    -0.155 N 
ATOM     14  N   UNL d   1      33.151  18.965 -23.545  0.00  0.00    -0.153 NA
ATOM     15  C   UNL d   1      32.718  19.267 -22.920  0.00  0.00     0.126 A 
ATOM     16  C   UNL d   1      32.043  18.809 -22.819  0.00  0.00     0.043 A 
BRANCH  13  17
ATOM     17  S   UNL d   1      32.976  17.843 -24.460  0.00  0.00     0.266 S 
ATOM     18  O   UNL d   1      33.240  17.251 -23.921  0.00  0.00    -0.203 OA
ATOM     19  O   UNL d   1      32.726  18.405 -25.009  0.00  0.00    -0.203 OA
ATOM     20  C   UNL d   1      33.223  17.339 -25.096  0.00  0.00     0.165 C 
ENDBRANCH  13  17
BRANCH  15  21
ATOM     21  C   UNL d   1      32.918  19.915 -22.469  0.00  0.00     0.119 A 
ATOM     22  O   UNL d   1      33.047  20.687 -22.747  0.00  0.00    -0.304 OA
ATOM     23  C   UNL d   1      33.234  21.158 -22.107  0.00  0.00     0.123 A 
ATOM     24  C   UNL d   1      33.227  20.686 -21.408  0.00  0.00     0.029 A 
ATOM     25  C   UNL d   1      33.028  19.918 -21.659  0.00  0.00     0.028 A 
ENDBRANCH  15  21
ENDBRANCH   1  12
BRANCH  10  26
ATOM     26  O   UNL d   1      28.600  15.460 -24.378  0.00  0.00    -0.305 OA
BRANCH  26  27
ATOM     27  C   UNL d   1      27.716  15.830 -23.739  0.00  0.00     0.123 C 
ATOM     28  C   UNL d   1      26.965  15.462 -23.787  0.00  0.00     0.029 C 
ENDBRANCH  26  27
ENDBRANCH  10  26
TORSDOF 5
ENDMDL
MODEL 2
REMARK VINA RESULT:       1.1      3.195      5.420
REMARK  5 active torsions:
REMARK  status: ('A' for Active; 'I' for Inactive)
REMARK    1  A    between atoms: S_4  and  N_1 
REMARK    2  A    between atoms: C_2  and  C_5 
REMARK    3  A    between atoms: C_12  and  C_7 
REMARK    4  A    between atoms: O_26  and  C_24 
REMARK    5  A    between atoms: C_27  and  O_26 
ROOT
ATOM      1  C   UNL d   1      32.868  21.428 -20.700  0.00  0.00     0.076 A 
ATOM      2  C   UNL d   1      33.069  20.702 -20.373  0.00  0.00     0.281 A 
ATOM      3  C   UNL d   1      32.783  21.504 -21.518  0.00  0.00     0.008 A 
ATOM      4  N   UNL d   1      33.185  20.046 -20.862  0.00  0.00    -0.208 NA
ATOM      5  C   UNL d   1      33.100  20.121 -21.686  0.00  0.00     0.087 A 
ATOM      6  C   UNL d   1      32.900  20.847 -22.012  0.00  0.00     0.018 A 
ATOM      7  C   UNL d   1      33.217  19.465 -22.175  0.00  0.00     0.044 A 
ATOM      8  O   UNL d   1      33.235  20.230 -19.712  0.00  0.00    -0.265 OA
ATOM      9  C   UNL d   1      32.815  20.922 -22.830  0.00  0.00     0.004 A 
ATOM     10  C   UNL d   1      33.130  19.565 -22.940  0.00  0.00     0.102 A 
ATOM     11  C   UNL d   1      32.930  20.291 -23.266  0.00  0.00     0.025 A 
ENDROOT
BRANCH   1  12
ATOM     12  C   UNL d   1      32.752  22.084 -20.210  0.00  0.00     0.101 A 
ATOM     13  N   UNL d   1      32.552  22.831 -20.449  0.00  0.00    -0.155 N 
ATOM     14  N   UNL d   1      32.492  23.311 -19.787  0.00  0.00    -0.153 NA
ATOM     15  C   UNL d   1      32.659  22.846 -19.135  0.00  0.00     0.126 A 
ATOM     16  C   UNL d   1      32.822  22.082 -19.387  0.00  0.00     0.043 A 
BRANCH  13  17
ATOM     17  S   UNL d   1      32.430  23.066 -21.224  0.00  0.00     0.266 S 
ATOM     18  O   UNL d   1      31.610  22.883 -21.155  0.00  0.00    -0.203 OA
ATOM     19  O   UNL d   1      33.227  23.253 -21.319  0.00  0.00    -0.203 OA
ATOM     20  C   UNL d   1      32.284  23.305 -22.025  0.00  0.00     0.165 C 
ENDBRANCH  13  17
BRANCH  15  21
ATOM     21  C   UNL d   1      32.664  23.097 -18.360  0.00  0.00     0.119 A 
ATOM     22  O   UNL d   1      33.240  22.917 -17.788  0.00  0.00    -0.304 OA
ATOM     23  C   UNL d   1      33.025  23.282 -17.091  0.00  0.00     0.123 A 
ATOM     24  C   UNL d   1      32.304  23.702 -17.212  0.00  0.00     0.029 A 
ATOM     25  C   UNL d   1      32.100  23.572 -18.007  0.00  0.00     0.028 A 
ENDBRANCH  15  21
ENDBRANCH   1  12
BRANCH  10  26
ATOM     26  O   UNL d   1      33.241  18.931 -23.439  0.00  0.00    -0.305 OA
BRANCH  26  27
ATOM     27  C   UNL d   1      32.370  18.223 -23.179  0.00  0.00     0.123 C 
ATOM     28  C   UNL d   1      31.977  17.784 -23.775  0.00  0.00     0.029 C 
ENDBRANCH  26  27
ENDBRANCH  10  26
TORSDOF 5
ENDMDL
MODEL 3
REMARK VINA RESULT:       1.2      1.263      4.816
REMARK  5 active torsions:
REMARK  status: ('A' for Active; 'I' for Inactive)
REMARK    1  A    between atoms: S_4  and  N_1 
REMARK    2  A    between atoms: C_2  and  C_5 
REMARK    3  A    between atoms: C_12  and  C_7 
REMARK    4  A    between atoms: O_26  and  C_24 
REMARK    5  A    between atoms: C_27  and  O_26 
ROOT
ATOM      1  C   UNL d   1      32.244  18.712 -22.919  0.00  0.00     0.076 A 
ATOM      2  C   UNL d   1      32.787  18.481 -22.348  0.00  0.00     0.281 A 
ATOM      3  C   UNL d   1      32.010  19.502 -22.972  0.00  0.00     0.008 A 
ATOM      4  N   UNL d   1      33.100  19.039 -21.826  0.00  0.00    -0.208 NA
ATOM      5  C   UNL d   1      32.867  19.835 -21.877  0.00  0.00     0.087 A 
ATOM      6  C   UNL d   1      32.324  20.066 -22.448  0.00  0.00     0.018 A 
ATOM      7  C   UNL d   1      33.181  20.393 -21.355  0.00  0.00     0.044 A 
ATOM      8  O   UNL d   1      33.241  17.893 -21.981  0.00  0.00    -0.265 OA
ATOM      9  C   UNL d   1      32.091  20.856 -22.501  0.00  0.00     0.004 A 
ATOM     10  C   UNL d   1      32.943  21.129 -21.427  0.00  0.00     0.102 A 
ATOM     11  C   UNL d   1      32.400  21.360 -21.998  0.00  0.00     0.025 A 
ENDROOT
BRANCH   1  12
ATOM     12  C   UNL d   1      31.930  18.153 -23.441  0.00  0.00     0.101 A 
ATOM     13  N   UNL d   1      32.131  18.061 -24.221  0.00  0.00    -0.155 N 
ATOM     14  N   UNL d   1      31.690  17.445 -24.533  0.00  0.00    -0.153 NA
ATOM     15  C   UNL d   1      31.214  17.158 -23.933  0.00  0.00     0.126 A 
ATOM     16  C   UNL d   1      31.356  17.591 -23.250  0.00  0.00     0.043 A 
BRANCH  13  17
ATOM     17  S   UNL d   1      32.682  18.510 -24.627  0.00  0.00     0.266 S 
ATOM     18  O   UNL d   1      32.171  19.179 -24.589  0.00  0.00    -0.203 OA
ATOM     19  O   UNL d   1      33.201  17.872 -24.679  0.00  0.00    -0.203 OA
ATOM     20  C   UNL d   1      33.241  18.991 -25.047  0.00  0.00     0.165 C 
ENDBRANCH  13  17
BRANCH  15  21
ATOM     21  C   UNL d   1      30.685  16.543 -23.997  0.00  0.00     0.119 A 
ATOM     22  O   UNL d   1      30.206  16.239 -23.389  0.00  0.00    -0.304 OA
ATOM     23  C   UNL d   1      29.763  15.627 -23.698  0.00  0.00     0.123 A 
ATOM     24  C   UNL d   1      29.956  15.534 -24.513  0.00  0.00     0.029 A 
ATOM     25  C   UNL d   1      30.530  16.113 -24.675  0.00  0.00     0.028 A 
ENDBRANCH  15  21
ENDBRANCH   1  12
BRANCH  10  26
ATOM     26  O   UNL d   1      33.241  21.695 -20.922  0.00  0.00    -0.305 OA
BRANCH  26  27
ATOM     27  C   UNL d   1      32.321  22.029 -20.314  0.00  0.00     0.123 C 
ATOM     28  C   UNL d   1      32.369  22.665 -19.771  0.00  0.00     0.029 C 
ENDBRANCH  26  27
ENDBRANCH  10  26
TORSDOF 5
ENDMDL
