MODEL 1
REMARK VINA RESULT:      -4.0      0.000      0.000
REMARK  4 active torsions:
REMARK  status: ('A' for Active; 'I' for Inactive)
REMARK    1  A    between atoms: S_10  and  C_1 
REMARK    2  A    between atoms: N_3  and  C_2 
REMARK    3  A    between atoms: S_4  and  C_9 
REMARK    4  A    between atoms: C_8  and  S_10 
ROOT
ATOM      1  C   UNL d   1      58.985  -0.476  29.287  0.00  0.00     0.133 A 
ATOM      2  C   UNL d   1      59.378  -1.126  28.949  0.00  0.00     0.035 A 
ATOM      3  C   UNL d   1      58.379  -0.601  29.835  0.00  0.00     0.053 A 
ATOM      4  C   UNL d   1      59.162  -1.898  29.161  0.00  0.00     0.086 A 
ATOM      5  C   UNL d   1      58.165  -1.369  30.046  0.00  0.00     0.009 A 
ATOM      6  C   UNL d   1      58.554  -2.018  29.712  0.00  0.00     0.012 A 
ENDROOT
BRANCH   3   7
ATOM      7  S   UNL d   1      57.987   0.044  30.172  0.00  0.00    -0.060 SA
BRANCH   7   8
ATOM      8  C   UNL d   1      57.592  -0.042  30.893  0.00  0.00     0.141 A 
ATOM      9  N   UNL d   1      57.030  -0.619  31.071  0.00  0.00    -0.232 NA
ATOM     10  C   UNL d   1      56.781  -0.498  31.850  0.00  0.00     0.088 A 
ATOM     11  C   UNL d   1      56.238  -0.893  32.321  0.00  0.00     0.020 A 
ATOM     12  C   UNL d   1      57.188   0.151  32.151  0.00  0.00     0.049 A 
ATOM     13  C   UNL d   1      56.103  -0.642  33.093  0.00  0.00     0.002 A 
ATOM     14  C   UNL d   1      56.512   0.008  33.392  0.00  0.00     0.001 A 
ATOM     15  C   UNL d   1      57.054   0.403  32.919  0.00  0.00     0.008 A 
ATOM     16  S   UNL d   1      57.692   0.435  31.558  0.00  0.00    -0.060 SA
ENDBRANCH   7   8
ENDBRANCH   3   7
BRANCH   1  17
ATOM     17  N   UNL d   1      59.200   0.298  29.075  0.00  0.00    -0.113 N 
ATOM     18  O   UNL d   1      58.803   0.682  28.459  0.00  0.00    -0.532 OA
ATOM     19  O   UNL d   1      59.810   0.682  29.480  0.00  0.00    -0.532 OA
ENDBRANCH   1  17
BRANCH   4  20
ATOM     20  S   UNL d   1      59.551  -2.543  28.826  0.00  0.00     0.191 S 
ATOM     21  O   UNL d   1      59.945  -3.189  28.492  0.00  0.00    -0.222 OA
ATOM     22  O   UNL d   1      60.260  -2.295  29.163  0.00  0.00    -0.222 OA
ATOM     23  C   UNL d   1      58.838  -2.796  28.485  0.00  0.00     0.145 C 
ENDBRANCH   4  20
TORSDOF 4
ENDMDL
MODEL 2
REMARK VINA RESULT:      -2.1      1.400      2.133
REMARK  4 active torsions:
REMARK  status: ('A' for Active; 'I' for Inactive)
REMARK    1  A    between atoms: S_10  and  C_1 
REMARK    2  A    between atoms: N_3  and  C_2 
REMARK    3  A    between atoms: S_4  and  C_9 
REMARK    4  A    between atoms: C_8  and  S_10 
ROOT
ATOM      1  C   UNL d   1      58.552  -0.829  29.769  0.00  0.00     0.133 A 
ATOM      2  C   UNL d   1      59.301  -0.541  29.552  0.00  0.00     0.035 A 
ATOM      3  C   UNL d   1      58.135  -0.469  30.385  0.00  0.00     0.053 A 
ATOM      4  C   UNL d   1      59.628   0.107  29.952  0.00  0.00     0.086 A 
ATOM      5  C   UNL d   1      58.462   0.176  30.783  0.00  0.00     0.009 A 
ATOM      6  C   UNL d   1      59.206   0.465  30.569  0.00  0.00     0.012 A 
ENDROOT
BRANCH   3   7
ATOM      7  S   UNL d   1      57.391  -0.754  30.602  0.00  0.00    -0.060 SA
BRANCH   7   8
ATOM      8  C   UNL d   1      57.030  -0.486  31.297  0.00  0.00     0.141 A 
ATOM      9  N   UNL d   1      56.451   0.099  31.347  0.00  0.00    -0.232 NA
ATOM     10  C   UNL d   1      56.251   0.190  32.143  0.00  0.00     0.088 A 
ATOM     11  C   UNL d   1      55.716   0.682  32.523  0.00  0.00     0.020 A 
ATOM     12  C   UNL d   1      56.705  -0.338  32.583  0.00  0.00     0.049 A 
ATOM     13  C   UNL d   1      55.634   0.648  33.341  0.00  0.00     0.002 A 
ATOM     14  C   UNL d   1      56.090   0.118  33.779  0.00  0.00     0.001 A 
ATOM     15  C   UNL d   1      56.624  -0.374  33.398  0.00  0.00     0.008 A 
ATOM     16  S   UNL d   1      57.189  -0.758  32.058  0.00  0.00    -0.060 SA
ENDBRANCH   7   8
ENDBRANCH   3   7
BRANCH   1  17
ATOM     17  N   UNL d   1      58.223  -1.479  29.369  0.00  0.00    -0.113 N 
ATOM     18  O   UNL d   1      58.180  -2.215  29.743  0.00  0.00    -0.532 OA
ATOM     19  O   UNL d   1      57.938  -1.387  28.598  0.00  0.00    -0.532 OA
ENDBRANCH   1  17
BRANCH   4  20
ATOM     20  S   UNL d   1      60.371   0.394  29.737  0.00  0.00     0.191 S 
ATOM     21  O   UNL d   1      61.115   0.682  29.518  0.00  0.00    -0.222 OA
ATOM     22  O   UNL d   1      60.104   0.522  28.969  0.00  0.00    -0.222 OA
ATOM     23  C   UNL d   1      60.644   0.266  30.511  0.00  0.00     0.145 C 
ENDBRANCH   4  20
TORSDOF 4
ENDMDL
MODEL 3
REMARK VINA RESULT:      -1.3      2.989      5.042
REMARK  4 active torsions:
REMARK  status: ('A' for Active; 'I' for Inactive)
REMARK    1  A    between atoms: S_10  and  C_1 
REMARK    2  A    between atoms: N_3  and  C_2 
REMARK    3  A    between atoms: S_4  and  C_9 
REMARK    4  A    between atoms: C_8  and  S_10 
ROOT
ATOM      1  C   UNL d   1      56.036  -0.842  32.952  0.00  0.00     0.133 A 
ATOM      2  C   UNL d   1      55.807  -0.589  33.709  0.00  0.00     0.035 A 
ATOM      3  C   UNL d   1      56.460  -0.333  32.458  0.00  0.00     0.053 A 
ATOM      4  C   UNL d   1      56.002   0.174  33.968  0.00  0.00     0.086 A 
ATOM      5  C   UNL d   1      56.654   0.426  32.717  0.00  0.00     0.009 A 
ATOM      6  C   UNL d   1      56.427   0.682  33.469  0.00  0.00     0.012 A 
ENDROOT
BRANCH   3   7
ATOM      7  S   UNL d   1      56.689  -0.583  31.705  0.00  0.00    -0.060 SA
BRANCH   7   8
ATOM      8  C   UNL d   1      57.386  -0.294  31.366  0.00  0.00     0.141 A 
ATOM      9  N   UNL d   1      58.066  -0.069  31.774  0.00  0.00    -0.232 NA
ATOM     10  C   UNL d   1      58.623   0.185  31.219  0.00  0.00     0.088 A 
ATOM     11  C   UNL d   1      59.389   0.468  31.298  0.00  0.00     0.020 A 
ATOM     12  C   UNL d   1      58.287   0.115  30.470  0.00  0.00     0.049 A 
ATOM     13  C   UNL d   1      59.819   0.682  30.630  0.00  0.00     0.002 A 
ATOM     14  C   UNL d   1      59.481   0.612  29.882  0.00  0.00     0.001 A 
ATOM     15  C   UNL d   1      58.715   0.328  29.804  0.00  0.00     0.008 A 
ATOM     16  S   UNL d   1      57.519  -0.182  30.560  0.00  0.00    -0.060 SA
ENDBRANCH   7   8
ENDBRANCH   3   7
BRANCH   1  17
ATOM     17  N   UNL d   1      55.841  -1.607  32.691  0.00  0.00    -0.113 N 
ATOM     18  O   UNL d   1      55.209  -1.715  32.168  0.00  0.00    -0.532 OA
ATOM     19  O   UNL d   1      56.279  -2.257  32.954  0.00  0.00    -0.532 OA
ENDBRANCH   1  17
BRANCH   4  20
ATOM     20  S   UNL d   1      55.774   0.427  34.720  0.00  0.00     0.191 S 
ATOM     21  O   UNL d   1      55.542   0.680  35.472  0.00  0.00    -0.222 OA
ATOM     22  O   UNL d   1      54.988   0.449  34.479  0.00  0.00    -0.222 OA
ATOM     23  C   UNL d   1      56.567   0.406  34.967  0.00  0.00     0.145 C 
ENDBRANCH   4  20
TORSDOF 4
ENDMDL
