MODEL 1
REMARK VINA RESULT:      10.6      0.000      0.000
REMARK  7 active torsions:
REMARK  status: ('A' for Active; 'I' for Inactive)
REMARK    1  A    between atoms: C_2  and  S_1 
REMARK    2  A    between atoms: N_7  and  S_1 
REMARK    3  A    between atoms: C_5  and  C_6 
REMARK    4  A    between atoms: C_6  and  C_8 
REMARK    5  A    between atoms: C_15  and  N_7 
REMARK    6  A    between atoms: C_8  and  C_12 
REMARK    7  A    between atoms: C_18  and  C_15 
ROOT
ATOM      1  C   UNL d   1      45.395 -14.673  44.386  0.00  0.00     0.105 A 
ATOM      2  C   UNL d   1      44.694 -14.851  44.762  0.00  0.00     0.012 A 
ATOM      3  C   UNL d   1      45.934 -15.289  44.193  0.00  0.00     0.013 A 
ATOM      4  C   UNL d   1      45.747 -16.068  44.386  0.00  0.00     0.001 A 
ATOM      5  C   UNL d   1      44.507 -15.630  44.955  0.00  0.00     0.001 A 
ATOM      6  C   UNL d   1      45.021 -16.237  44.773  0.00  0.00     0.000 A 
ATOM      7  C   UNL d   1      44.158 -14.221  44.952  0.00  0.00     0.001 C 
ENDROOT
BRANCH   1   8
ATOM      8  S   UNL d   1      45.581 -13.897  44.194  0.00  0.00     0.285 S 
ATOM      9  O   UNL d   1      46.382 -14.053  44.339  0.00  0.00    -0.198 OA
ATOM     10  O   UNL d   1      44.769 -13.739  44.046  0.00  0.00    -0.198 OA
BRANCH   8  11
ATOM     11  N   UNL d   1      45.771 -13.103  43.997  0.00  0.00    -0.153 NA
BRANCH  11  12
ATOM     12  C   UNL d   1      45.221 -12.632  43.597  0.00  0.00     0.157 C 
BRANCH  12  13
ATOM     13  C   UNL d   1      45.464 -12.157  42.968  0.00  0.00     0.256 C 
ATOM     14  O   UNL d   1      44.985 -12.080  42.297  0.00  0.00    -0.281 OA
ENDBRANCH  12  13
ENDBRANCH  11  12
ENDBRANCH   8  11
ENDBRANCH   1   8
BRANCH   4  15
ATOM     15  C   UNL d   1      46.290 -16.685  44.190  0.00  0.00     0.006 C 
BRANCH  15  16
ATOM     16  C   UNL d   1      46.260 -17.387  44.616  0.00  0.00     0.070 C 
BRANCH  16  17
ATOM     17  C   UNL d   1      46.343 -18.118  44.224  0.00  0.00     0.211 C 
ATOM     18  O   UNL d   1      46.255 -18.816  44.654  0.00  0.00    -0.644 OA
ATOM     19  O   UNL d   1      46.509 -18.140  43.422  0.00  0.00    -0.644 OA
ENDBRANCH  16  17
ENDBRANCH  15  16
ENDBRANCH   4  15
TORSDOF 7
ENDMDL
