MODEL 1
REMARK VINA RESULT:      -6.0      0.000      0.000
REMARK  6 active torsions:
REMARK  status: ('A' for Active; 'I' for Inactive)
REMARK    1  A    between atoms: N_2  and  S_1 
REMARK    2  A    between atoms: C_3  and  S_1 
REMARK    3  A    between atoms: C_6  and  N_2 
REMARK    4  A    between atoms: C_12  and  C_6 
REMARK    5  A    between atoms: C_7  and  S_9 
REMARK    6  A    between atoms: S_9  and  C_12 
ROOT
ATOM      1  N   UNL d   1     -46.767  13.619  22.399  0.00  0.00    -0.188 NA
ENDROOT
BRANCH   1   2
ATOM      2  S   UNL d   1     -46.367  12.946  22.658  0.00  0.00     0.281 S 
ATOM      3  O   UNL d   1     -46.664  12.502  22.017  0.00  0.00    -0.199 OA
ATOM      4  O   UNL d   1     -46.066  13.371  23.297  0.00  0.00    -0.199 OA
BRANCH   2   5
ATOM      5  C   UNL d   1     -45.956  12.255  22.924  0.00  0.00     0.105 A 
ATOM      6  C   UNL d   1     -46.325  11.729  23.443  0.00  0.00     0.014 A 
ATOM      7  C   UNL d   1     -45.936  11.071  23.698  0.00  0.00     0.012 A 
ATOM      8  C   UNL d   1     -45.155  10.909  23.443  0.00  0.00     0.058 A 
ATOM      9  C   UNL d   1     -44.801  11.446  22.924  0.00  0.00     0.012 A 
ATOM     10 CL   UNL d   1     -44.738  10.232  23.698  0.00  0.00    -0.082 Cl
ATOM     11  C   UNL d   1     -45.203  12.116  22.667  0.00  0.00     0.014 A 
ENDBRANCH   2   5
ENDBRANCH   1   2
BRANCH   1  12
ATOM     12  C   UNL d   1     -47.496  13.818  22.731  0.00  0.00     0.107 C 
ATOM     13  C   UNL d   1     -47.114  14.259  23.311  0.00  0.00     0.026 C 
ATOM     14  C   UNL d   1     -47.880  13.362  22.132  0.00  0.00     0.026 C 
BRANCH  12  15
ATOM     15  C   UNL d   1     -48.225  14.012  23.057  0.00  0.00     0.087 C 
BRANCH  15  16
ATOM     16  S   UNL d   1     -48.728  14.536  22.671  0.00  0.00    -0.093 SA
BRANCH  16  17
ATOM     17  C   UNL d   1     -49.423  14.785  23.011  0.00  0.00     0.107 A 
ATOM     18  N   UNL d   1     -49.998  14.243  23.226  0.00  0.00    -0.238 NA
ATOM     19  C   UNL d   1     -50.695  14.484  23.566  0.00  0.00     0.100 A 
ATOM     20  C   UNL d   1     -50.824  15.309  23.698  0.00  0.00     0.021 A 
ATOM     21  C   UNL d   1     -50.248  15.850  23.482  0.00  0.00     0.004 A 
ATOM     22  C   UNL d   1     -49.545  15.590  23.138  0.00  0.00     0.025 A 
ENDBRANCH  16  17
ENDBRANCH  15  16
ENDBRANCH  12  15
ENDBRANCH   1  12
TORSDOF 6
ENDMDL
MODEL 2
REMARK VINA RESULT:      -5.8      1.431      1.861
REMARK  6 active torsions:
REMARK  status: ('A' for Active; 'I' for Inactive)
REMARK    1  A    between atoms: N_2  and  S_1 
REMARK    2  A    between atoms: C_3  and  S_1 
REMARK    3  A    between atoms: C_6  and  N_2 
REMARK    4  A    between atoms: C_12  and  C_6 
REMARK    5  A    between atoms: C_7  and  S_9 
REMARK    6  A    between atoms: S_9  and  C_12 
ROOT
ATOM      1  N   UNL d   1     -46.932  13.078  23.397  0.00  0.00    -0.188 NA
ENDROOT
BRANCH   1   2
ATOM      2  S   UNL d   1     -46.213  12.960  23.010  0.00  0.00     0.281 S 
ATOM      3  O   UNL d   1     -46.020  13.768  23.088  0.00  0.00    -0.199 OA
ATOM      4  O   UNL d   1     -46.390  12.158  22.926  0.00  0.00    -0.199 OA
BRANCH   2   5
ATOM      5  C   UNL d   1     -45.475  12.839  22.613  0.00  0.00     0.105 A 
ATOM      6  C   UNL d   1     -45.195  13.403  22.079  0.00  0.00     0.014 A 
ATOM      7  C   UNL d   1     -44.493  13.289  21.700  0.00  0.00     0.012 A 
ATOM      8  C   UNL d   1     -44.037  12.602  21.840  0.00  0.00     0.058 A 
ATOM      9  C   UNL d   1     -44.331  12.048  22.377  0.00  0.00     0.012 A 
ATOM     10 CL   UNL d   1     -43.308  12.470  21.455  0.00  0.00    -0.082 Cl
ATOM     11  C   UNL d   1     -45.049  12.169  22.761  0.00  0.00     0.014 A 
ENDBRANCH   2   5
ENDBRANCH   1   2
BRANCH   1  12
ATOM     12  C   UNL d   1     -47.616  13.220  22.959  0.00  0.00     0.107 C 
ATOM     13  C   UNL d   1     -47.427  14.019  22.916  0.00  0.00     0.026 C 
ATOM     14  C   UNL d   1     -47.804  12.397  23.007  0.00  0.00     0.026 C 
BRANCH  12  15
ATOM     15  C   UNL d   1     -48.299  13.354  22.523  0.00  0.00     0.087 C 
BRANCH  15  16
ATOM     16  S   UNL d   1     -49.034  13.370  22.892  0.00  0.00    -0.093 SA
BRANCH  16  17
ATOM     17  C   UNL d   1     -49.705  13.594  22.492  0.00  0.00     0.107 A 
ATOM     18  N   UNL d   1     -50.099  14.283  22.693  0.00  0.00    -0.238 NA
ATOM     19  C   UNL d   1     -50.771  14.513  22.299  0.00  0.00     0.100 A 
ATOM     20  C   UNL d   1     -51.064  14.029  21.672  0.00  0.00     0.021 A 
ATOM     21  C   UNL d   1     -50.671  13.340  21.471  0.00  0.00     0.004 A 
ATOM     22  C   UNL d   1     -49.990  13.119  21.881  0.00  0.00     0.025 A 
ENDBRANCH  16  17
ENDBRANCH  15  16
ENDBRANCH  12  15
ENDBRANCH   1  12
TORSDOF 6
ENDMDL
MODEL 3
REMARK VINA RESULT:      -5.7      2.201      4.974
REMARK  6 active torsions:
REMARK  status: ('A' for Active; 'I' for Inactive)
REMARK    1  A    between atoms: N_2  and  S_1 
REMARK    2  A    between atoms: C_3  and  S_1 
REMARK    3  A    between atoms: C_6  and  N_2 
REMARK    4  A    between atoms: C_12  and  C_6 
REMARK    5  A    between atoms: C_7  and  S_9 
REMARK    6  A    between atoms: S_9  and  C_12 
ROOT
ATOM      1  N   UNL d   1     -47.609  13.046  23.472  0.00  0.00    -0.188 NA
ENDROOT
BRANCH   1   2
ATOM      2  S   UNL d   1     -48.269  13.096  22.979  0.00  0.00     0.281 S 
ATOM      3  O   UNL d   1     -47.857  13.592  22.450  0.00  0.00    -0.199 OA
ATOM      4  O   UNL d   1     -48.689  12.606  23.493  0.00  0.00    -0.199 OA
BRANCH   2   5
ATOM      5  C   UNL d   1     -48.946  13.146  22.473  0.00  0.00     0.105 A 
ATOM      6  C   UNL d   1     -49.378  13.849  22.430  0.00  0.00     0.014 A 
ATOM      7  C   UNL d   1     -50.022  13.899  21.949  0.00  0.00     0.012 A 
ATOM      8  C   UNL d   1     -50.265  13.245  21.487  0.00  0.00     0.058 A 
ATOM      9  C   UNL d   1     -49.821  12.550  21.543  0.00  0.00     0.012 A 
ATOM     10 CL   UNL d   1     -50.930  13.281  20.984  0.00  0.00    -0.082 Cl
ATOM     11  C   UNL d   1     -49.164  12.504  22.036  0.00  0.00     0.014 A 
ENDBRANCH   2   5
ENDBRANCH   1   2
BRANCH   1  12
ATOM     12  C   UNL d   1     -46.986  12.543  23.276  0.00  0.00     0.107 C 
ATOM     13  C   UNL d   1     -46.616  13.155  22.868  0.00  0.00     0.026 C 
ATOM     14  C   UNL d   1     -47.372  11.920  23.696  0.00  0.00     0.026 C 
BRANCH  12  15
ATOM     15  C   UNL d   1     -46.368  12.036  23.084  0.00  0.00     0.087 C 
BRANCH  15  16
ATOM     16  S   UNL d   1     -46.014  11.572  23.663  0.00  0.00    -0.093 SA
BRANCH  16  17
ATOM     17  C   UNL d   1     -45.334  11.152  23.514  0.00  0.00     0.107 A 
ATOM     18  N   UNL d   1     -44.681  11.521  23.185  0.00  0.00    -0.238 NA
ATOM     19  C   UNL d   1     -43.998  11.109  23.034  0.00  0.00     0.100 A 
ATOM     20  C   UNL d   1     -43.966  10.286  23.220  0.00  0.00     0.021 A 
ATOM     21  C   UNL d   1     -44.619   9.917  23.550  0.00  0.00     0.004 A 
ATOM     22  C   UNL d   1     -45.306  10.349  23.698  0.00  0.00     0.025 A 
ENDBRANCH  16  17
ENDBRANCH  15  16
ENDBRANCH  12  15
ENDBRANCH   1  12
TORSDOF 6
ENDMDL
MODEL 4
REMARK VINA RESULT:      -5.6      2.167      4.604
REMARK  6 active torsions:
REMARK  status: ('A' for Active; 'I' for Inactive)
REMARK    1  A    between atoms: N_2  and  S_1 
REMARK    2  A    between atoms: C_3  and  S_1 
REMARK    3  A    between atoms: C_6  and  N_2 
REMARK    4  A    between atoms: C_12  and  C_6 
REMARK    5  A    between atoms: C_7  and  S_9 
REMARK    6  A    between atoms: S_9  and  C_12 
ROOT
ATOM      1  N   UNL d   1     -47.632  13.726  22.446  0.00  0.00    -0.188 NA
ENDROOT
BRANCH   1   2
ATOM      2  S   UNL d   1     -48.312  13.331  22.696  0.00  0.00     0.281 S 
ATOM      3  O   UNL d   1     -48.497  13.118  21.910  0.00  0.00    -0.199 OA
ATOM      4  O   UNL d   1     -48.142  13.533  23.477  0.00  0.00    -0.199 OA
BRANCH   2   5
ATOM      5  C   UNL d   1     -49.009  12.925  22.952  0.00  0.00     0.105 A 
ATOM      6  C   UNL d   1     -48.946  12.202  23.346  0.00  0.00     0.014 A 
ATOM      7  C   UNL d   1     -49.608  11.814  23.590  0.00  0.00     0.012 A 
ATOM      8  C   UNL d   1     -50.368  12.134  23.450  0.00  0.00     0.058 A 
ATOM      9  C   UNL d   1     -50.414  12.857  23.055  0.00  0.00     0.012 A 
ATOM     10 CL   UNL d   1     -51.064  11.744  23.697  0.00  0.00    -0.082 Cl
ATOM     11  C   UNL d   1     -49.734  13.249  22.807  0.00  0.00     0.014 A 
ENDBRANCH   2   5
ENDBRANCH   1   2
BRANCH   1  12
ATOM     12  C   UNL d   1     -46.906  13.336  22.446  0.00  0.00     0.107 C 
ATOM     13  C   UNL d   1     -46.737  13.641  23.191  0.00  0.00     0.026 C 
ATOM     14  C   UNL d   1     -47.086  13.026  21.680  0.00  0.00     0.026 C 
BRANCH  12  15
ATOM     15  C   UNL d   1     -46.184  12.944  22.438  0.00  0.00     0.087 C 
BRANCH  15  16
ATOM     16  S   UNL d   1     -45.501  13.331  22.195  0.00  0.00    -0.093 SA
BRANCH  16  17
ATOM     17  C   UNL d   1     -44.797  12.935  22.103  0.00  0.00     0.107 A 
ATOM     18  N   UNL d   1     -44.621  12.287  22.571  0.00  0.00    -0.238 NA
ATOM     19  C   UNL d   1     -43.920  11.886  22.486  0.00  0.00     0.100 A 
ATOM     20  C   UNL d   1     -43.366  12.146  21.903  0.00  0.00     0.021 A 
ATOM     21  C   UNL d   1     -43.543  12.795  21.435  0.00  0.00     0.004 A 
ATOM     22  C   UNL d   1     -44.259  13.192  21.533  0.00  0.00     0.025 A 
ENDBRANCH  16  17
ENDBRANCH  15  16
ENDBRANCH  12  15
ENDBRANCH   1  12
TORSDOF 6
ENDMDL
MODEL 5
REMARK VINA RESULT:      -5.1      8.750      9.625
REMARK  6 active torsions:
REMARK  status: ('A' for Active; 'I' for Inactive)
REMARK    1  A    between atoms: N_2  and  S_1 
REMARK    2  A    between atoms: C_3  and  S_1 
REMARK    3  A    between atoms: C_6  and  N_2 
REMARK    4  A    between atoms: C_12  and  C_6 
REMARK    5  A    between atoms: C_7  and  S_9 
REMARK    6  A    between atoms: S_9  and  C_12 
ROOT
ATOM      1  N   UNL d   1     -40.226  15.048  18.927  0.00  0.00    -0.188 NA
ENDROOT
BRANCH   1   2
ATOM      2  S   UNL d   1     -39.831  14.786  18.252  0.00  0.00     0.281 S 
ATOM      3  O   UNL d   1     -39.313  15.440  18.281  0.00  0.00    -0.199 OA
ATOM      4  O   UNL d   1     -40.336  14.135  18.209  0.00  0.00    -0.199 OA
BRANCH   2   5
ATOM      5  C   UNL d   1     -39.427  14.518  17.558  0.00  0.00     0.105 A 
ATOM      6  C   UNL d   1     -39.419  14.986  16.877  0.00  0.00     0.014 A 
ATOM      7  C   UNL d   1     -39.034  14.732  16.216  0.00  0.00     0.012 A 
ATOM      8  C   UNL d   1     -38.638  13.996  16.207  0.00  0.00     0.058 A 
ATOM      9  C   UNL d   1     -38.656  13.541  16.896  0.00  0.00     0.012 A 
ATOM     10 CL   UNL d   1     -38.235  13.719  15.530  0.00  0.00    -0.082 Cl
ATOM     11  C   UNL d   1     -39.050  13.804  17.568  0.00  0.00     0.014 A 
ENDBRANCH   2   5
ENDBRANCH   1   2
BRANCH   1  12
ATOM     12  C   UNL d   1     -39.838  15.050  19.655  0.00  0.00     0.107 C 
ATOM     13  C   UNL d   1     -40.068  14.270  19.784  0.00  0.00     0.026 C 
ATOM     14  C   UNL d   1     -39.605  15.850  19.516  0.00  0.00     0.026 C 
BRANCH  12  15
ATOM     15  C   UNL d   1     -39.449  15.059  20.379  0.00  0.00     0.087 C 
BRANCH  15  16
ATOM     16  S   UNL d   1     -39.874  15.116  21.080  0.00  0.00    -0.093 SA
BRANCH  16  17
ATOM     17  C   UNL d   1     -39.501  15.155  21.801  0.00  0.00     0.107 A 
ATOM     18  N   UNL d   1     -39.154  14.489  22.128  0.00  0.00    -0.238 NA
ATOM     19  C   UNL d   1     -38.779  14.521  22.847  0.00  0.00     0.100 A 
ATOM     20  C   UNL d   1     -38.750  15.256  23.263  0.00  0.00     0.021 A 
ATOM     21  C   UNL d   1     -39.097  15.922  22.936  0.00  0.00     0.004 A 
ATOM     22  C   UNL d   1     -39.474  15.875  22.204  0.00  0.00     0.025 A 
ENDBRANCH  16  17
ENDBRANCH  15  16
ENDBRANCH  12  15
ENDBRANCH   1  12
TORSDOF 6
ENDMDL
MODEL 6
REMARK VINA RESULT:      -4.8      8.464      9.788
REMARK  6 active torsions:
REMARK  status: ('A' for Active; 'I' for Inactive)
REMARK    1  A    between atoms: N_2  and  S_1 
REMARK    2  A    between atoms: C_3  and  S_1 
REMARK    3  A    between atoms: C_6  and  N_2 
REMARK    4  A    between atoms: C_12  and  C_6 
REMARK    5  A    between atoms: C_7  and  S_9 
REMARK    6  A    between atoms: S_9  and  C_12 
ROOT
ATOM      1  N   UNL d   1     -40.306  14.987  19.780  0.00  0.00    -0.188 NA
ENDROOT
BRANCH   1   2
ATOM      2  S   UNL d   1     -39.993  15.059  20.540  0.00  0.00     0.281 S 
ATOM      3  O   UNL d   1     -40.263  14.296  20.742  0.00  0.00    -0.199 OA
ATOM      4  O   UNL d   1     -39.720  15.816  20.356  0.00  0.00    -0.199 OA
BRANCH   2   5
ATOM      5  C   UNL d   1     -39.671  15.133  21.320  0.00  0.00     0.105 A 
ATOM      6  C   UNL d   1     -39.325  14.480  21.688  0.00  0.00     0.014 A 
ATOM      7  C   UNL d   1     -39.018  14.549  22.430  0.00  0.00     0.012 A 
ATOM      8  C   UNL d   1     -39.045  15.278  22.839  0.00  0.00     0.058 A 
ATOM      9  C   UNL d   1     -39.395  15.921  22.456  0.00  0.00     0.012 A 
ATOM     10 CL   UNL d   1     -38.732  15.366  23.608  0.00  0.00    -0.082 Cl
ATOM     11  C   UNL d   1     -39.706  15.846  21.698  0.00  0.00     0.014 A 
ENDBRANCH   2   5
ENDBRANCH   1   2
BRANCH   1  12
ATOM     12  C   UNL d   1     -39.807  14.829  19.143  0.00  0.00     0.107 C 
ATOM     13  C   UNL d   1     -39.865  14.022  19.294  0.00  0.00     0.026 C 
ATOM     14  C   UNL d   1     -39.753  15.659  18.994  0.00  0.00     0.026 C 
BRANCH  12  15
ATOM     15  C   UNL d   1     -39.310  14.679  18.507  0.00  0.00     0.087 C 
BRANCH  15  16
ATOM     16  S   UNL d   1     -39.617  14.428  17.787  0.00  0.00    -0.093 SA
BRANCH  16  17
ATOM     17  C   UNL d   1     -39.138  14.294  17.144  0.00  0.00     0.107 A 
ATOM     18  N   UNL d   1     -39.012  14.883  16.589  0.00  0.00    -0.238 NA
ATOM     19  C   UNL d   1     -38.535  14.758  15.944  0.00  0.00     0.100 A 
ATOM     20  C   UNL d   1     -38.165  14.005  15.848  0.00  0.00     0.021 A 
ATOM     21  C   UNL d   1     -38.291  13.415  16.403  0.00  0.00     0.004 A 
ATOM     22  C   UNL d   1     -38.778  13.558  17.053  0.00  0.00     0.025 A 
ENDBRANCH  16  17
ENDBRANCH  15  16
ENDBRANCH  12  15
ENDBRANCH   1  12
TORSDOF 6
ENDMDL
MODEL 7
REMARK VINA RESULT:      -4.6      9.056     10.035
REMARK  6 active torsions:
REMARK  status: ('A' for Active; 'I' for Inactive)
REMARK    1  A    between atoms: N_2  and  S_1 
REMARK    2  A    between atoms: C_3  and  S_1 
REMARK    3  A    between atoms: C_6  and  N_2 
REMARK    4  A    between atoms: C_12  and  C_6 
REMARK    5  A    between atoms: C_7  and  S_9 
REMARK    6  A    between atoms: S_9  and  C_12 
ROOT
ATOM      1  N   UNL d   1     -38.566  14.935  18.676  0.00  0.00    -0.188 NA
ENDROOT
BRANCH   1   2
ATOM      2  S   UNL d   1     -39.212  15.132  18.202  0.00  0.00     0.281 S 
ATOM      3  O   UNL d   1     -39.295  14.338  17.958  0.00  0.00    -0.199 OA
ATOM      4  O   UNL d   1     -39.142  15.920  18.434  0.00  0.00    -0.199 OA
BRANCH   2   5
ATOM      5  C   UNL d   1     -39.875  15.334  17.716  0.00  0.00     0.105 A 
ATOM      6  C   UNL d   1     -39.754  15.661  16.967  0.00  0.00     0.014 A 
ATOM      7  C   UNL d   1     -40.384  15.854  16.503  0.00  0.00     0.012 A 
ATOM      8  C   UNL d   1     -41.167  15.728  16.769  0.00  0.00     0.058 A 
ATOM      9  C   UNL d   1     -41.270  15.400  17.520  0.00  0.00     0.012 A 
ATOM     10 CL   UNL d   1     -41.830  15.922  16.300  0.00  0.00    -0.082 Cl
ATOM     11  C   UNL d   1     -40.623  15.204  17.990  0.00  0.00     0.014 A 
ENDBRANCH   2   5
ENDBRANCH   1   2
BRANCH   1  12
ATOM     12  C   UNL d   1     -38.685  14.699  19.457  0.00  0.00     0.107 C 
ATOM     13  C   UNL d   1     -38.499  15.457  19.718  0.00  0.00     0.026 C 
ATOM     14  C   UNL d   1     -38.875  13.923  19.182  0.00  0.00     0.026 C 
BRANCH  12  15
ATOM     15  C   UNL d   1     -38.806  14.457  20.233  0.00  0.00     0.087 C 
BRANCH  15  16
ATOM     16  S   UNL d   1     -38.204  14.086  20.653  0.00  0.00    -0.093 SA
BRANCH  16  17
ATOM     17  C   UNL d   1     -38.288  13.900  21.440  0.00  0.00     0.107 A 
ATOM     18  N   UNL d   1     -38.680  14.408  21.948  0.00  0.00    -0.238 NA
ATOM     19  C   UNL d   1     -38.768  14.229  22.736  0.00  0.00     0.100 A 
ATOM     20  C   UNL d   1     -38.447  13.505  23.030  0.00  0.00     0.021 A 
ATOM     21  C   UNL d   1     -38.055  12.997  22.521  0.00  0.00     0.004 A 
ATOM     22  C   UNL d   1     -37.973  13.192  21.724  0.00  0.00     0.025 A 
ENDBRANCH  16  17
ENDBRANCH  15  16
ENDBRANCH  12  15
ENDBRANCH   1  12
TORSDOF 6
ENDMDL
