MODEL 1
REMARK VINA RESULT:      73.1      0.000      0.000
REMARK  10 active torsions:
REMARK  status: ('A' for Active; 'I' for Inactive)
REMARK    1  A    between atoms: N_3  and  C_1 
REMARK    2  A    between atoms: C_8  and  N_2 
REMARK       I    between atoms: C_7  and  N_3 
REMARK    3  A    between atoms: C_21  and  C_7 
REMARK    4  A    between atoms: C_11  and  C_8 
REMARK    5  A    between atoms: O_20  and  C_11 
REMARK    6  A    between atoms: C_12  and  C_23 
REMARK       I    between atoms: N_13  and  C_12 
REMARK    7  A    between atoms: C_22  and  N_13 
REMARK    8  A    between atoms: S_17  and  C_21 
REMARK    9  A    between atoms: C_23  and  S_17 
REMARK   10  A    between atoms: O_24  and  C_18 
ROOT
ATOM      1  C   UNL d   1     -47.741  29.480  34.943  0.00  0.00     0.183 A 
ATOM      2  N   UNL d   1     -47.373  29.952  35.516  0.00  0.00    -0.280 N 
ATOM      3  S   UNL d   1     -48.011  29.980  34.336  0.00  0.00    -0.048 SA
ATOM      4  C   UNL d   1     -47.808  30.761  34.538  0.00  0.00     0.050 A 
ATOM      5  C   UNL d   1     -47.414  30.744  35.267  0.00  0.00     0.072 A 
ATOM      6  C   UNL d   1     -47.936  31.481  34.145  0.00  0.00     0.032 A 
ATOM      7  C   UNL d   1     -47.148  31.447  35.601  0.00  0.00     0.020 A 
ATOM      8  C   UNL d   1     -47.663  32.175  34.493  0.00  0.00     0.095 A 
ATOM      9  C   UNL d   1     -47.270  32.158  35.222  0.00  0.00     0.026 A 
ENDROOT
BRANCH   1  10
ATOM     10  N   UNL d   1     -47.825  28.657  34.969  0.00  0.00    -0.183 NA
ATOM     11  C   UNL d   1     -48.461  28.491  34.461  0.00  0.00     0.287 C 
ATOM     12  O   UNL d   1     -48.850  29.111  34.068  0.00  0.00    -0.265 OA
BRANCH  11  13
ATOM     13  C   UNL d   1     -48.712  27.718  34.344  0.00  0.00     0.098 C 
BRANCH  13  14
ATOM     14  S   UNL d   1     -49.467  27.560  34.038  0.00  0.00    -0.076 SA
BRANCH  14  15
ATOM     15  C   UNL d   1     -49.581  26.927  33.516  0.00  0.00     0.098 C 
BRANCH  15  16
ATOM     16  C   UNL d   1     -50.311  26.547  33.476  0.00  0.00     0.286 C 
ATOM     17  N   UNL d   1     -50.346  25.724  33.436  0.00  0.00    -0.208 NA
ATOM     18  O   UNL d   1     -51.009  26.998  33.477  0.00  0.00    -0.265 OA
BRANCH  17  19
ATOM     19  C   UNL d   1     -51.085  25.345  33.396  0.00  0.00     0.085 A 
ATOM     20  C   UNL d   1     -51.118  24.528  33.345  0.00  0.00     0.019 A 
ATOM     21  C   UNL d   1     -51.850  24.156  33.305  0.00  0.00     0.002 A 
ATOM     22  C   UNL d   1     -52.549  24.608  33.317  0.00  0.00     0.000 A 
ATOM     23  C   UNL d   1     -52.499  25.432  33.369  0.00  0.00     0.002 A 
ATOM     24  C   UNL d   1     -51.768  25.805  33.408  0.00  0.00     0.019 A 
ENDBRANCH  17  19
ENDBRANCH  15  16
ENDBRANCH  14  15
ENDBRANCH  13  14
ENDBRANCH  11  13
ENDBRANCH   1  10
BRANCH   2  25
ATOM     25  C   UNL d   1     -47.029  29.679  36.208  0.00  0.00     0.151 C 
BRANCH  25  26
ATOM     26  C   UNL d   1     -47.376  29.831  36.938  0.00  0.00     0.314 C 
ATOM     27  O   UNL d   1     -48.169  29.643  37.071  0.00  0.00    -0.257 OA
BRANCH  26  28
ATOM     28  O   UNL d   1     -46.913  30.179  37.545  0.00  0.00    -0.295 OA
ATOM     29  C   UNL d   1     -46.196  29.822  37.764  0.00  0.00     0.185 C 
ENDBRANCH  26  28
ENDBRANCH  25  26
ENDBRANCH   2  25
BRANCH   8  30
ATOM     30  O   UNL d   1     -47.785  32.902  34.110  0.00  0.00    -0.328 OA
ATOM     31  C   UNL d   1     -47.964  33.572  34.547  0.00  0.00     0.181 C 
ENDBRANCH   8  30
TORSDOF 10
ENDMDL
