MODEL 1
REMARK VINA RESULT:      -1.5      0.000      0.000
REMARK  4 active torsions:
REMARK  status: ('A' for Active; 'I' for Inactive)
REMARK    1  A    between atoms: S_5  and  C_3 
REMARK    2  A    between atoms: C_13  and  S_5 
REMARK    3  A    between atoms: C_23  and  N_7 
REMARK    4  A    between atoms: C_29  and  C_23 
ROOT
ATOM      1  C   UNL d   1      58.663  -0.590  30.626  0.00  0.00     0.155 A 
ATOM      2  C   UNL d   1      58.054  -1.126  30.582  0.00  0.00     0.092 A 
ATOM      3  C   UNL d   1      57.393  -0.470  31.639  0.00  0.00     0.124 A 
ATOM      4  N   UNL d   1      59.302  -0.651  30.115  0.00  0.00    -0.210 NA
ATOM      5  N   UNL d   1      58.713  -1.787  29.520  0.00  0.00    -0.258 N 
ATOM      6  N   UNL d   1      58.642   0.005  31.173  0.00  0.00    -0.273 N 
ATOM      7  C   UNL d   1      59.327  -1.242  29.569  0.00  0.00     0.152 A 
ATOM      8  C   UNL d   1      58.009   0.072  31.684  0.00  0.00     0.181 A 
ATOM      9  C   UNL d   1      58.076  -1.728  30.028  0.00  0.00     0.269 A 
ATOM     10  C   UNL d   1      57.419  -1.069  31.086  0.00  0.00     0.022 A 
ATOM     11  C   UNL d   1      59.966  -1.304  29.058  0.00  0.00     0.035 A 
ATOM     12  C   UNL d   1      58.746  -2.387  28.961  0.00  0.00     0.084 A 
ATOM     13  N   UNL d   1      57.992   0.682  32.242  0.00  0.00    -0.128 N 
ATOM     14  O   UNL d   1      57.456  -2.279  29.978  0.00  0.00    -0.266 OA
ATOM     15  C   UNL d   1      59.382  -2.444  28.456  0.00  0.00     0.019 A 
ATOM     16  C   UNL d   1      59.995  -1.900  28.505  0.00  0.00     0.005 A 
ATOM     17  C   UNL d   1      60.586  -0.753  29.108  0.00  0.00     0.003 C 
ENDROOT
BRANCH   3  18
ATOM     18  S   UNL d   1      56.752  -0.408  32.153  0.00  0.00     0.213 S 
ATOM     19  O   UNL d   1      57.001  -1.088  32.563  0.00  0.00    -0.217 OA
ATOM     20  O   UNL d   1      56.496   0.267  31.754  0.00  0.00    -0.217 OA
BRANCH  18  21
ATOM     21  C   UNL d   1      56.101  -0.336  32.666  0.00  0.00     0.088 A 
ATOM     22  C   UNL d   1      55.741  -1.011  32.976  0.00  0.00     0.014 A 
ATOM     23  C   UNL d   1      55.091  -0.939  33.490  0.00  0.00     0.030 A 
ATOM     24  C   UNL d   1      54.803  -0.191  33.691  0.00  0.00     0.140 A 
ATOM     25  C   UNL d   1      55.173   0.490  33.373  0.00  0.00     0.030 A 
ATOM     26  F   UNL d   1      54.157  -0.110  34.200  0.00  0.00    -0.204 F 
ATOM     27  C   UNL d   1      55.820   0.416  32.863  0.00  0.00     0.014 A 
ENDBRANCH  18  21
ENDBRANCH   3  18
BRANCH   6  28
ATOM     28  C   UNL d   1      59.267   0.556  31.219  0.00  0.00     0.083 C 
BRANCH  28  29
ATOM     29  C   UNL d   1      59.738   0.588  31.906  0.00  0.00     0.019 C 
ATOM     30  C   UNL d   1      60.563   0.677  31.847  0.00  0.00     0.002 C 
ENDBRANCH  28  29
ENDBRANCH   6  28
TORSDOF 4
ENDMDL
