MODEL 1
REMARK VINA RESULT:      68.4      0.000      0.000
REMARK  6 active torsions:
REMARK  status: ('A' for Active; 'I' for Inactive)
REMARK    1  A    between atoms: C_10  and  N_1 
REMARK    2  A    between atoms: S_8  and  C_2 
REMARK       I    between atoms: N_7  and  C_9 
REMARK    3  A    between atoms: C_13  and  S_8 
REMARK    4  A    between atoms: C_9  and  C_13 
REMARK    5  A    between atoms: C_21  and  N_11 
REMARK    6  A    between atoms: C_25  and  C_21 
ROOT
ATOM      1  N   UNL d   1     -51.121  24.935  33.349  0.00  0.00    -0.254 N 
ATOM      2  C   UNL d   1     -51.394  25.708  33.321  0.00  0.00     0.182 A 
ATOM      3  C   UNL d   1     -51.660  24.310  33.363  0.00  0.00     0.268 A 
ATOM      4  N   UNL d   1     -52.206  25.854  33.306  0.00  0.00    -0.222 NA
ATOM      5  C   UNL d   1     -52.473  24.457  33.349  0.00  0.00     0.074 A 
ATOM      6  C   UNL d   1     -52.746  25.230  33.320  0.00  0.00     0.088 A 
ATOM      7  O   UNL d   1     -51.387  23.538  33.391  0.00  0.00    -0.267 OA
ATOM      8  C   UNL d   1     -52.996  23.837  33.363  0.00  0.00     0.006 A 
ATOM      9  C   UNL d   1     -53.542  25.382  33.306  0.00  0.00     0.019 A 
ATOM     10  C   UNL d   1     -53.809  23.985  33.348  0.00  0.00     0.000 A 
ATOM     11  C   UNL d   1     -54.082  24.757  33.320  0.00  0.00     0.002 A 
ENDROOT
BRANCH   2  12
ATOM     12  S   UNL d   1     -50.860  26.349  33.306  0.00  0.00    -0.044 SA
BRANCH  12  13
ATOM     13  C   UNL d   1     -50.665  26.721  34.027  0.00  0.00     0.099 C 
BRANCH  13  14
ATOM     14  C   UNL d   1     -50.455  27.528  34.015  0.00  0.00     0.272 C 
ATOM     15  N   UNL d   1     -49.838  27.786  34.513  0.00  0.00    -0.269 N 
ATOM     16  C   UNL d   1     -49.640  28.578  34.493  0.00  0.00     0.102 A 
ATOM     17  C   UNL d   1     -49.446  27.259  35.003  0.00  0.00     0.102 A 
ATOM     18  C   UNL d   1     -49.022  28.836  34.991  0.00  0.00     0.100 A 
ATOM     19  N   UNL d   1     -48.630  28.309  35.482  0.00  0.00    -0.297 N 
ATOM     20  C   UNL d   1     -48.848  27.512  35.484  0.00  0.00     0.100 A 
ATOM     21  O   UNL d   1     -50.847  28.055  33.525  0.00  0.00    -0.266 OA
BRANCH  19  22
ATOM     22  C   UNL d   1     -48.008  28.594  35.977  0.00  0.00     0.126 C 
BRANCH  22  23
ATOM     23  C   UNL d   1     -47.725  29.344  35.886  0.00  0.00     0.253 C 
ATOM     24  O   UNL d   1     -47.140  29.625  36.398  0.00  0.00    -0.281 OA
ENDBRANCH  22  23
ENDBRANCH  19  22
ENDBRANCH  13  14
ENDBRANCH  12  13
ENDBRANCH   2  12
BRANCH   1  25
ATOM     25  C   UNL d   1     -50.325  24.796  33.363  0.00  0.00     0.069 A 
ATOM     26  C   UNL d   1     -50.048  24.014  33.431  0.00  0.00     0.018 A 
ATOM     27  C   UNL d   1     -49.235  23.867  33.446  0.00  0.00     0.002 A 
ATOM     28  C   UNL d   1     -48.708  24.500  33.392  0.00  0.00     0.000 A 
ATOM     29  C   UNL d   1     -48.980  25.269  33.325  0.00  0.00     0.002 A 
ATOM     30  C   UNL d   1     -49.794  25.420  33.310  0.00  0.00     0.018 A 
ENDBRANCH   1  25
TORSDOF 6
ENDMDL
MODEL 2
REMARK VINA RESULT:      70.2      1.360      2.657
REMARK  6 active torsions:
REMARK  status: ('A' for Active; 'I' for Inactive)
REMARK    1  A    between atoms: C_10  and  N_1 
REMARK    2  A    between atoms: S_8  and  C_2 
REMARK       I    between atoms: N_7  and  C_9 
REMARK    3  A    between atoms: C_13  and  S_8 
REMARK    4  A    between atoms: C_9  and  C_13 
REMARK    5  A    between atoms: C_21  and  N_11 
REMARK    6  A    between atoms: C_25  and  C_21 
ROOT
ATOM      1  N   UNL d   1     -50.895  25.993  33.553  0.00  0.00    -0.254 N 
ATOM      2  C   UNL d   1     -50.107  26.187  33.674  0.00  0.00     0.182 A 
ATOM      3  C   UNL d   1     -51.108  25.204  33.434  0.00  0.00     0.268 A 
ATOM      4  N   UNL d   1     -49.534  25.593  33.675  0.00  0.00    -0.222 NA
ATOM      5  C   UNL d   1     -50.534  24.610  33.435  0.00  0.00     0.074 A 
ATOM      6  C   UNL d   1     -49.747  24.805  33.555  0.00  0.00     0.088 A 
ATOM      7  O   UNL d   1     -51.895  25.009  33.313  0.00  0.00    -0.267 OA
ATOM      8  C   UNL d   1     -50.752  23.837  33.317  0.00  0.00     0.006 A 
ATOM      9  C   UNL d   1     -49.178  24.227  33.558  0.00  0.00     0.019 A 
ATOM     10  C   UNL d   1     -50.178  23.243  33.318  0.00  0.00     0.000 A 
ATOM     11  C   UNL d   1     -49.391  23.438  33.439  0.00  0.00     0.002 A 
ENDROOT
BRANCH   2  12
ATOM     12  S   UNL d   1     -49.877  26.980  33.796  0.00  0.00    -0.044 SA
BRANCH  12  13
ATOM     13  C   UNL d   1     -49.169  27.130  34.210  0.00  0.00     0.099 C 
BRANCH  13  14
ATOM     14  C   UNL d   1     -49.216  27.486  34.963  0.00  0.00     0.272 C 
ATOM     15  N   UNL d   1     -48.716  28.133  35.129  0.00  0.00    -0.269 N 
ATOM     16  C   UNL d   1     -48.770  28.475  35.868  0.00  0.00     0.102 A 
ATOM     17  C   UNL d   1     -48.190  28.413  34.564  0.00  0.00     0.102 A 
ATOM     18  C   UNL d   1     -48.270  29.122  36.034  0.00  0.00     0.100 A 
ATOM     19  N   UNL d   1     -47.744  29.402  35.469  0.00  0.00    -0.297 N 
ATOM     20  C   UNL d   1     -47.708  29.040  34.728  0.00  0.00     0.100 A 
ATOM     21  O   UNL d   1     -49.740  27.207  35.527  0.00  0.00    -0.266 OA
BRANCH  19  22
ATOM     22  C   UNL d   1     -47.248  30.059  35.661  0.00  0.00     0.126 C 
BRANCH  22  23
ATOM     23  C   UNL d   1     -47.411  30.793  35.368  0.00  0.00     0.253 C 
ATOM     24  O   UNL d   1     -46.895  31.419  35.523  0.00  0.00    -0.281 OA
ENDBRANCH  22  23
ENDBRANCH  19  22
ENDBRANCH  13  14
ENDBRANCH  12  13
ENDBRANCH   2  12
BRANCH   1  25
ATOM     25  C   UNL d   1     -51.453  26.577  33.553  0.00  0.00     0.069 A 
ATOM     26  C   UNL d   1     -52.232  26.398  33.783  0.00  0.00     0.018 A 
ATOM     27  C   UNL d   1     -52.806  26.992  33.784  0.00  0.00     0.002 A 
ATOM     28  C   UNL d   1     -52.597  27.758  33.557  0.00  0.00     0.000 A 
ATOM     29  C   UNL d   1     -51.830  27.934  33.330  0.00  0.00     0.002 A 
ATOM     30  C   UNL d   1     -51.252  27.341  33.328  0.00  0.00     0.018 A 
ENDBRANCH   1  25
TORSDOF 6
ENDMDL
