MODEL 1
REMARK VINA RESULT:      -6.8      0.000      0.000
REMARK  3 active torsions:
REMARK  status: ('A' for Active; 'I' for Inactive)
REMARK    1  A    between atoms: N_9  and  C_3 
REMARK    2  A    between atoms: C_12  and  C_4 
REMARK    3  A    between atoms: C_17  and  N_10 
ROOT
ATOM      1  N   UNL d   1     -47.836  13.688  22.749  0.00  0.00    -0.196 N 
ATOM      2  C   UNL d   1     -48.620  13.739  22.986  0.00  0.00     0.167 A 
ATOM      3  C   UNL d   1     -47.424  12.975  22.821  0.00  0.00     0.152 A 
ATOM      4  C   UNL d   1     -48.879  14.507  22.849  0.00  0.00     0.057 A 
ATOM      5  N   UNL d   1     -47.606  14.424  22.466  0.00  0.00    -0.161 NA
ATOM      6  N   UNL d   1     -49.005  13.078  23.297  0.00  0.00    -0.227 NA
ATOM      7  C   UNL d   1     -47.810  12.311  23.134  0.00  0.00     0.057 A 
ATOM      8  C   UNL d   1     -48.258  14.927  22.531  0.00  0.00     0.124 A 
ATOM      9  C   UNL d   1     -48.593  12.361  23.370  0.00  0.00     0.086 A 
ATOM     10  C   UNL d   1     -48.975  11.688  23.684  0.00  0.00     0.021 C 
ENDROOT
BRANCH   3  11
ATOM     11  N   UNL d   1     -46.640  12.924  22.584  0.00  0.00    -0.286 N 
ATOM     12  C   UNL d   1     -46.452  12.786  21.788  0.00  0.00     0.101 A 
ATOM     13  C   UNL d   1     -45.664  12.735  21.551  0.00  0.00     0.100 A 
ATOM     14  N   UNL d   1     -45.059  12.821  22.108  0.00  0.00    -0.301 N 
ATOM     15  C   UNL d   1     -45.243  12.958  22.899  0.00  0.00     0.100 A 
ATOM     16  C   UNL d   1     -46.031  13.009  23.137  0.00  0.00     0.101 A 
BRANCH  14  17
ATOM     17  C   UNL d   1     -44.262  12.769  21.868  0.00  0.00     0.064 A 
ATOM     18  C   UNL d   1     -43.794  12.153  22.139  0.00  0.00     0.018 A 
ATOM     19  C   UNL d   1     -43.033  12.247  21.808  0.00  0.00     0.002 A 
ATOM     20  C   UNL d   1     -43.046  12.919  21.340  0.00  0.00     0.002 A 
ATOM     21  C   UNL d   1     -43.799  13.246  21.372  0.00  0.00     0.018 A 
ENDBRANCH  14  17
ENDBRANCH   3  11
BRANCH   4  22
ATOM     22  C   UNL d   1     -49.604  14.877  22.976  0.00  0.00     0.004 A 
ATOM     23  C   UNL d   1     -50.258  14.681  22.502  0.00  0.00     0.000 A 
ATOM     24  C   UNL d   1     -50.985  15.051  22.628  0.00  0.00     0.000 A 
ATOM     25  C   UNL d   1     -51.064  15.617  23.225  0.00  0.00     0.000 A 
ATOM     26  C   UNL d   1     -50.415  15.813  23.698  0.00  0.00     0.000 A 
ATOM     27  C   UNL d   1     -49.689  15.443  23.571  0.00  0.00     0.000 A 
ENDBRANCH   4  22
TORSDOF 3
ENDMDL
MODEL 2
REMARK VINA RESULT:      -6.7      1.578      2.319
REMARK  3 active torsions:
REMARK  status: ('A' for Active; 'I' for Inactive)
REMARK    1  A    between atoms: N_9  and  C_3 
REMARK    2  A    between atoms: C_12  and  C_4 
REMARK    3  A    between atoms: C_17  and  N_10 
ROOT
ATOM      1  N   UNL d   1     -47.522  12.766  22.669  0.00  0.00    -0.196 N 
ATOM      2  C   UNL d   1     -48.096  13.338  22.544  0.00  0.00     0.167 A 
ATOM      3  C   UNL d   1     -46.752  12.986  22.872  0.00  0.00     0.152 A 
ATOM      4  C   UNL d   1     -48.799  12.957  22.351  0.00  0.00     0.057 A 
ATOM      5  N   UNL d   1     -47.866  12.028  22.554  0.00  0.00    -0.161 NA
ATOM      6  N   UNL d   1     -47.911  14.139  22.620  0.00  0.00    -0.227 NA
ATOM      7  C   UNL d   1     -46.564  13.790  22.949  0.00  0.00     0.057 A 
ATOM      8  C   UNL d   1     -48.658  12.155  22.358  0.00  0.00     0.124 A 
ATOM      9  C   UNL d   1     -47.138  14.362  22.824  0.00  0.00     0.086 A 
ATOM     10  C   UNL d   1     -46.941  15.169  22.904  0.00  0.00     0.021 C 
ENDROOT
BRANCH   3  11
ATOM     11  N   UNL d   1     -46.177  12.413  22.997  0.00  0.00    -0.286 N 
ATOM     12  C   UNL d   1     -45.452  12.457  22.598  0.00  0.00     0.101 A 
ATOM     13  C   UNL d   1     -44.874  11.881  22.724  0.00  0.00     0.100 A 
ATOM     14  N   UNL d   1     -45.019  11.260  23.249  0.00  0.00    -0.301 N 
ATOM     15  C   UNL d   1     -45.739  11.215  23.647  0.00  0.00     0.100 A 
ATOM     16  C   UNL d   1     -46.316  11.790  23.521  0.00  0.00     0.101 A 
BRANCH  14  17
ATOM     17  C   UNL d   1     -44.435  10.678  23.377  0.00  0.00     0.064 A 
ATOM     18  C   UNL d   1     -44.654   9.925  23.617  0.00  0.00     0.018 A 
ATOM     19  C   UNL d   1     -43.959   9.472  23.698  0.00  0.00     0.002 A 
ATOM     20  C   UNL d   1     -43.323   9.951  23.506  0.00  0.00     0.002 A 
ATOM     21  C   UNL d   1     -43.609  10.696  23.307  0.00  0.00     0.018 A 
ENDBRANCH  14  17
ENDBRANCH   3  11
BRANCH   4  22
ATOM     22  C   UNL d   1     -49.552  13.242  22.171  0.00  0.00     0.004 A 
ATOM     23  C   UNL d   1     -50.107  13.360  22.778  0.00  0.00     0.000 A 
ATOM     24  C   UNL d   1     -50.860  13.645  22.597  0.00  0.00     0.000 A 
ATOM     25  C   UNL d   1     -51.064  13.813  21.815  0.00  0.00     0.000 A 
ATOM     26  C   UNL d   1     -50.513  13.696  21.209  0.00  0.00     0.000 A 
ATOM     27  C   UNL d   1     -49.760  13.411  21.390  0.00  0.00     0.000 A 
ENDBRANCH   4  22
TORSDOF 3
ENDMDL
MODEL 3
REMARK VINA RESULT:      -6.4      7.760      9.710
REMARK  3 active torsions:
REMARK  status: ('A' for Active; 'I' for Inactive)
REMARK    1  A    between atoms: N_9  and  C_3 
REMARK    2  A    between atoms: C_12  and  C_4 
REMARK    3  A    between atoms: C_17  and  N_10 
ROOT
ATOM      1  N   UNL d   1     -38.958  14.430  19.966  0.00  0.00    -0.196 N 
ATOM      2  C   UNL d   1     -39.211  14.536  20.738  0.00  0.00     0.167 A 
ATOM      3  C   UNL d   1     -39.359  14.794  19.342  0.00  0.00     0.152 A 
ATOM      4  C   UNL d   1     -38.710  14.111  21.233  0.00  0.00     0.057 A 
ATOM      5  N   UNL d   1     -38.299  13.940  19.977  0.00  0.00    -0.161 NA
ATOM      6  N   UNL d   1     -39.870  15.007  20.901  0.00  0.00    -0.227 NA
ATOM      7  C   UNL d   1     -40.020  15.268  19.503  0.00  0.00     0.057 A 
ATOM      8  C   UNL d   1     -38.151  13.746  20.767  0.00  0.00     0.124 A 
ATOM      9  C   UNL d   1     -40.274  15.374  20.275  0.00  0.00     0.086 A 
ATOM     10  C   UNL d   1     -40.941  15.852  20.430  0.00  0.00     0.021 C 
ENDROOT
BRANCH   3  11
ATOM     11  N   UNL d   1     -39.105  14.688  18.568  0.00  0.00    -0.286 N 
ATOM     12  C   UNL d   1     -39.451  14.103  18.092  0.00  0.00     0.101 A 
ATOM     13  C   UNL d   1     -39.196  13.997  17.315  0.00  0.00     0.100 A 
ATOM     14  N   UNL d   1     -38.594  14.475  17.010  0.00  0.00    -0.301 N 
ATOM     15  C   UNL d   1     -38.249  15.056  17.481  0.00  0.00     0.100 A 
ATOM     16  C   UNL d   1     -38.504  15.163  18.258  0.00  0.00     0.101 A 
BRANCH  14  17
ATOM     17  C   UNL d   1     -38.336  14.368  16.224  0.00  0.00     0.064 A 
ATOM     18  C   UNL d   1     -38.193  13.610  15.941  0.00  0.00     0.018 A 
ATOM     19  C   UNL d   1     -37.945  13.678  15.147  0.00  0.00     0.002 A 
ATOM     20  C   UNL d   1     -37.940  14.474  14.955  0.00  0.00     0.002 A 
ATOM     21  C   UNL d   1     -38.179  14.904  15.612  0.00  0.00     0.018 A 
ENDBRANCH  14  17
ENDBRANCH   3  11
BRANCH   4  22
ATOM     22  C   UNL d   1     -38.693  14.012  22.051  0.00  0.00     0.004 A 
ATOM     23  C   UNL d   1     -39.083  13.365  22.398  0.00  0.00     0.000 A 
ATOM     24  C   UNL d   1     -39.067  13.265  23.217  0.00  0.00     0.000 A 
ATOM     25  C   UNL d   1     -38.663  13.805  23.693  0.00  0.00     0.000 A 
ATOM     26  C   UNL d   1     -38.274  14.449  23.350  0.00  0.00     0.000 A 
ATOM     27  C   UNL d   1     -38.291  14.549  22.531  0.00  0.00     0.000 A 
ENDBRANCH   4  22
TORSDOF 3
ENDMDL
MODEL 4
REMARK VINA RESULT:      -6.2      8.361     10.350
REMARK  3 active torsions:
REMARK  status: ('A' for Active; 'I' for Inactive)
REMARK    1  A    between atoms: N_9  and  C_3 
REMARK    2  A    between atoms: C_12  and  C_4 
REMARK    3  A    between atoms: C_17  and  N_10 
ROOT
ATOM      1  N   UNL d   1     -39.185  14.909  17.740  0.00  0.00    -0.196 N 
ATOM      2  C   UNL d   1     -39.294  14.871  16.928  0.00  0.00     0.167 A 
ATOM      3  C   UNL d   1     -39.801  15.158  18.231  0.00  0.00     0.152 A 
ATOM      4  C   UNL d   1     -38.593  14.608  16.588  0.00  0.00     0.057 A 
ATOM      5  N   UNL d   1     -38.417  14.669  17.907  0.00  0.00    -0.161 NA
ATOM      6  N   UNL d   1     -40.019  15.081  16.593  0.00  0.00    -0.227 NA
ATOM      7  C   UNL d   1     -40.530  15.369  17.897  0.00  0.00     0.057 A 
ATOM      8  C   UNL d   1     -38.056  14.484  17.188  0.00  0.00     0.124 A 
ATOM      9  C   UNL d   1     -40.638  15.331  17.085  0.00  0.00     0.086 A 
ATOM     10  C   UNL d   1     -41.375  15.546  16.756  0.00  0.00     0.021 C 
ENDROOT
BRANCH   3  11
ATOM     11  N   UNL d   1     -39.693  15.196  19.044  0.00  0.00    -0.286 N 
ATOM     12  C   UNL d   1     -39.984  14.592  19.532  0.00  0.00     0.101 A 
ATOM     13  C   UNL d   1     -39.875  14.630  20.349  0.00  0.00     0.100 A 
ATOM     14  N   UNL d   1     -39.475  15.272  20.682  0.00  0.00    -0.301 N 
ATOM     15  C   UNL d   1     -39.185  15.873  20.199  0.00  0.00     0.100 A 
ATOM     16  C   UNL d   1     -39.294  15.835  19.382  0.00  0.00     0.101 A 
BRANCH  14  17
ATOM     17  C   UNL d   1     -39.365  15.311  21.508  0.00  0.00     0.064 A 
ATOM     18  C   UNL d   1     -38.810  14.827  21.868  0.00  0.00     0.018 A 
ATOM     19  C   UNL d   1     -38.825  14.988  22.687  0.00  0.00     0.002 A 
ATOM     20  C   UNL d   1     -39.389  15.568  22.817  0.00  0.00     0.002 A 
ATOM     21  C   UNL d   1     -39.726  15.771  22.096  0.00  0.00     0.018 A 
ENDBRANCH  14  17
ENDBRANCH   3  11
BRANCH   4  22
ATOM     22  C   UNL d   1     -38.376  14.465  15.806  0.00  0.00     0.004 A 
ATOM     23  C   UNL d   1     -38.164  15.099  15.312  0.00  0.00     0.000 A 
ATOM     24  C   UNL d   1     -37.947  14.956  14.528  0.00  0.00     0.000 A 
ATOM     25  C   UNL d   1     -37.940  14.185  14.233  0.00  0.00     0.000 A 
ATOM     26  C   UNL d   1     -38.150  13.553  14.724  0.00  0.00     0.000 A 
ATOM     27  C   UNL d   1     -38.367  13.696  15.506  0.00  0.00     0.000 A 
ENDBRANCH   4  22
TORSDOF 3
ENDMDL
MODEL 5
REMARK VINA RESULT:      -4.8      8.341      9.175
REMARK  3 active torsions:
REMARK  status: ('A' for Active; 'I' for Inactive)
REMARK    1  A    between atoms: N_9  and  C_3 
REMARK    2  A    between atoms: C_12  and  C_4 
REMARK    3  A    between atoms: C_17  and  N_10 
ROOT
ATOM      1  N   UNL d   1     -39.709  14.761  18.868  0.00  0.00    -0.196 N 
ATOM      2  C   UNL d   1     -39.897  14.711  18.071  0.00  0.00     0.167 A 
ATOM      3  C   UNL d   1     -39.157  14.244  19.200  0.00  0.00     0.152 A 
ATOM      4  C   UNL d   1     -40.455  15.291  17.903  0.00  0.00     0.057 A 
ATOM      5  N   UNL d   1     -40.150  15.372  19.197  0.00  0.00    -0.161 NA
ATOM      6  N   UNL d   1     -39.536  14.143  17.593  0.00  0.00    -0.227 NA
ATOM      7  C   UNL d   1     -38.794  13.672  18.721  0.00  0.00     0.057 A 
ATOM      8  C   UNL d   1     -40.610  15.696  18.593  0.00  0.00     0.124 A 
ATOM      9  C   UNL d   1     -38.982  13.622  17.924  0.00  0.00     0.086 A 
ATOM     10  C   UNL d   1     -38.612  13.044  17.448  0.00  0.00     0.021 C 
ENDROOT
BRANCH   3  11
ATOM     11  N   UNL d   1     -38.969  14.294  19.997  0.00  0.00    -0.286 N 
ATOM     12  C   UNL d   1     -38.284  14.693  20.240  0.00  0.00     0.101 A 
ATOM     13  C   UNL d   1     -38.095  14.743  21.041  0.00  0.00     0.100 A 
ATOM     14  N   UNL d   1     -38.590  14.394  21.604  0.00  0.00    -0.301 N 
ATOM     15  C   UNL d   1     -39.271  13.997  21.365  0.00  0.00     0.100 A 
ATOM     16  C   UNL d   1     -39.460  13.947  20.564  0.00  0.00     0.101 A 
BRANCH  14  17
ATOM     17  C   UNL d   1     -38.399  14.445  22.414  0.00  0.00     0.064 A 
ATOM     18  C   UNL d   1     -38.668  13.870  22.934  0.00  0.00     0.018 A 
ATOM     19  C   UNL d   1     -38.392  14.067  23.696  0.00  0.00     0.002 A 
ATOM     20  C   UNL d   1     -37.958  14.759  23.634  0.00  0.00     0.002 A 
ATOM     21  C   UNL d   1     -37.958  14.997  22.848  0.00  0.00     0.018 A 
ENDBRANCH  14  17
ENDBRANCH   3  11
BRANCH   4  22
ATOM     22  C   UNL d   1     -40.842  15.501  17.206  0.00  0.00     0.004 A 
ATOM     23  C   UNL d   1     -41.672  15.552  17.193  0.00  0.00     0.000 A 
ATOM     24  C   UNL d   1     -42.060  15.762  16.495  0.00  0.00     0.000 A 
ATOM     25  C   UNL d   1     -41.627  15.922  15.811  0.00  0.00     0.000 A 
ATOM     26  C   UNL d   1     -40.801  15.872  15.823  0.00  0.00     0.000 A 
ATOM     27  C   UNL d   1     -40.414  15.661  16.520  0.00  0.00     0.000 A 
ENDBRANCH   4  22
TORSDOF 3
ENDMDL
MODEL 6
REMARK VINA RESULT:      -4.3      0.818      5.239
REMARK  3 active torsions:
REMARK  status: ('A' for Active; 'I' for Inactive)
REMARK    1  A    between atoms: N_9  and  C_3 
REMARK    2  A    between atoms: C_12  and  C_4 
REMARK    3  A    between atoms: C_17  and  N_10 
ROOT
ATOM      1  N   UNL d   1     -46.475  12.989  22.556  0.00  0.00    -0.196 N 
ATOM      2  C   UNL d   1     -45.804  12.518  22.571  0.00  0.00     0.167 A 
ATOM      3  C   UNL d   1     -47.172  12.733  22.919  0.00  0.00     0.152 A 
ATOM      4  C   UNL d   1     -45.206  12.913  22.170  0.00  0.00     0.057 A 
ATOM      5  N   UNL d   1     -46.296  13.678  22.146  0.00  0.00    -0.161 NA
ATOM      6  N   UNL d   1     -45.819  11.783  22.948  0.00  0.00    -0.227 NA
ATOM      7  C   UNL d   1     -47.188  11.996  23.299  0.00  0.00     0.057 A 
ATOM      8  C   UNL d   1     -45.506  13.624  21.909  0.00  0.00     0.124 A 
ATOM      9  C   UNL d   1     -46.517  11.525  23.313  0.00  0.00     0.086 A 
ATOM     10  C   UNL d   1     -46.541  10.784  23.698  0.00  0.00     0.021 C 
ENDROOT
BRANCH   3  11
ATOM     11  N   UNL d   1     -47.844  13.205  22.904  0.00  0.00    -0.286 N 
ATOM     12  C   UNL d   1     -47.896  13.872  23.394  0.00  0.00     0.101 A 
ATOM     13  C   UNL d   1     -48.571  14.346  23.379  0.00  0.00     0.100 A 
ATOM     14  N   UNL d   1     -49.198  14.155  22.874  0.00  0.00    -0.301 N 
ATOM     15  C   UNL d   1     -49.148  13.493  22.387  0.00  0.00     0.100 A 
ATOM     16  C   UNL d   1     -48.473  13.019  22.402  0.00  0.00     0.101 A 
BRANCH  14  17
ATOM     17  C   UNL d   1     -49.880  14.634  22.860  0.00  0.00     0.064 A 
ATOM     18  C   UNL d   1     -50.456  14.506  22.289  0.00  0.00     0.018 A 
ATOM     19  C   UNL d   1     -51.064  15.064  22.413  0.00  0.00     0.002 A 
ATOM     20  C   UNL d   1     -50.854  15.525  23.056  0.00  0.00     0.002 A 
ATOM     21  C   UNL d   1     -50.127  15.266  23.336  0.00  0.00     0.018 A 
ENDBRANCH  14  17
ENDBRANCH   3  11
BRANCH   4  22
ATOM     22  C   UNL d   1     -44.422  12.713  22.009  0.00  0.00     0.004 A 
ATOM     23  C   UNL d   1     -44.010  13.106  21.403  0.00  0.00     0.000 A 
ATOM     24  C   UNL d   1     -43.226  12.907  21.241  0.00  0.00     0.000 A 
ATOM     25  C   UNL d   1     -42.848  12.318  21.680  0.00  0.00     0.000 A 
ATOM     26  C   UNL d   1     -43.256  11.926  22.283  0.00  0.00     0.000 A 
ATOM     27  C   UNL d   1     -44.040  12.126  22.444  0.00  0.00     0.000 A 
ENDBRANCH   4  22
TORSDOF 3
ENDMDL
MODEL 7
REMARK VINA RESULT:      -4.2      1.245      2.133
REMARK  3 active torsions:
REMARK  status: ('A' for Active; 'I' for Inactive)
REMARK    1  A    between atoms: N_9  and  C_3 
REMARK    2  A    between atoms: C_12  and  C_4 
REMARK    3  A    between atoms: C_17  and  N_10 
ROOT
ATOM      1  N   UNL d   1     -47.475  12.940  22.535  0.00  0.00    -0.196 N 
ATOM      2  C   UNL d   1     -48.255  13.120  22.711  0.00  0.00     0.167 A 
ATOM      3  C   UNL d   1     -46.915  13.542  22.457  0.00  0.00     0.152 A 
ATOM      4  C   UNL d   1     -48.677  12.416  22.754  0.00  0.00     0.057 A 
ATOM      5  N   UNL d   1     -47.409  12.123  22.469  0.00  0.00    -0.161 NA
ATOM      6  N   UNL d   1     -48.489  13.906  22.811  0.00  0.00    -0.227 NA
ATOM      7  C   UNL d   1     -47.149  14.332  22.557  0.00  0.00     0.057 A 
ATOM      8  C   UNL d   1     -48.159  11.805  22.606  0.00  0.00     0.124 A 
ATOM      9  C   UNL d   1     -47.929  14.512  22.733  0.00  0.00     0.086 A 
ATOM     10  C   UNL d   1     -48.156  15.309  22.832  0.00  0.00     0.021 C 
ENDROOT
BRANCH   3  11
ATOM     11  N   UNL d   1     -46.134  13.362  22.281  0.00  0.00    -0.286 N 
ATOM     12  C   UNL d   1     -45.875  13.355  21.493  0.00  0.00     0.101 A 
ATOM     13  C   UNL d   1     -45.090  13.174  21.316  0.00  0.00     0.100 A 
ATOM     14  N   UNL d   1     -44.560  12.998  21.926  0.00  0.00    -0.301 N 
ATOM     15  C   UNL d   1     -44.815  13.004  22.709  0.00  0.00     0.100 A 
ATOM     16  C   UNL d   1     -45.600  13.185  22.886  0.00  0.00     0.101 A 
BRANCH  14  17
ATOM     17  C   UNL d   1     -43.766  12.815  21.747  0.00  0.00     0.064 A 
ATOM     18  C   UNL d   1     -43.325  13.324  21.278  0.00  0.00     0.018 A 
ATOM     19  C   UNL d   1     -42.562  12.998  21.197  0.00  0.00     0.002 A 
ATOM     20  C   UNL d   1     -42.544  12.294  21.617  0.00  0.00     0.002 A 
ATOM     21  C   UNL d   1     -43.282  12.176  21.958  0.00  0.00     0.018 A 
ENDBRANCH  14  17
ENDBRANCH   3  11
BRANCH   4  22
ATOM     22  C   UNL d   1     -49.470  12.254  22.911  0.00  0.00     0.004 A 
ATOM     23  C   UNL d   1     -49.675  11.752  23.541  0.00  0.00     0.000 A 
ATOM     24  C   UNL d   1     -50.469  11.590  23.698  0.00  0.00     0.000 A 
ATOM     25  C   UNL d   1     -51.061  11.925  23.231  0.00  0.00     0.000 A 
ATOM     26  C   UNL d   1     -50.859  12.425  22.603  0.00  0.00     0.000 A 
ATOM     27  C   UNL d   1     -50.066  12.587  22.447  0.00  0.00     0.000 A 
ENDBRANCH   4  22
TORSDOF 3
ENDMDL
