MODEL 1
REMARK VINA RESULT:      -7.0      0.000      0.000
REMARK  6 active torsions:
REMARK  status: ('A' for Active; 'I' for Inactive)
REMARK    1  A    between atoms: C_6  and  C_1 
REMARK    2  A    between atoms: C_8  and  C_4 
REMARK       I    between atoms: N_22  and  C_6 
REMARK    3  A    between atoms: N_9  and  C_23 
REMARK    4  A    between atoms: C_25  and  N_22 
REMARK    5  A    between atoms: C_23  and  C_24 
REMARK    6  A    between atoms: C_24  and  C_25 
ROOT
ATOM      1  C   UNL d   1     -45.321  12.776  22.552  0.00  0.00     0.168 A 
ATOM      2  N   UNL d   1     -45.631  12.525  23.262  0.00  0.00    -0.121 NA
ATOM      3  C   UNL d   1     -45.919  13.183  22.144  0.00  0.00     0.053 A 
ATOM      4  C   UNL d   1     -46.589  13.175  22.614  0.00  0.00     0.127 A 
ATOM      5  O   UNL d   1     -46.406  12.766  23.305  0.00  0.00    -0.211 OA
ENDROOT
BRANCH   1   6
ATOM      6  C   UNL d   1     -43.826  12.560  21.972  0.00  0.00     0.299 C 
ATOM      7  O   UNL d   1     -43.410  11.860  22.062  0.00  0.00    -0.263 OA
ATOM      8  N   UNL d   1     -43.452  13.207  21.552  0.00  0.00    -0.205 NA
BRANCH   8   9
ATOM      9  C   UNL d   1     -42.649  13.111  21.232  0.00  0.00     0.104 C 
BRANCH   9  10
ATOM     10  C   UNL d   1     -42.245  13.789  20.896  0.00  0.00     0.040 C 
BRANCH  10  11
ATOM     11  C   UNL d   1     -41.390  13.848  20.930  0.00  0.00     0.083 C 
BRANCH  11  12
ATOM     12  N   UNL d   1     -40.983  14.503  20.554  0.00  0.00    -0.285 N 
ATOM     13  C   UNL d   1     -40.625  14.497  19.776  0.00  0.00     0.183 A 
ATOM     14  N   UNL d   1     -40.283  15.288  19.645  0.00  0.00    -0.222 NA
ATOM     15  C   UNL d   1     -40.428  15.757  20.321  0.00  0.00     0.120 A 
ATOM     16  C   UNL d   1     -40.863  15.284  20.899  0.00  0.00     0.102 A 
ENDBRANCH  11  12
ENDBRANCH  10  11
ENDBRANCH   9  10
ENDBRANCH   8   9
ENDBRANCH   1   6
BRANCH   4  17
ATOM     17  C   UNL d   1     -47.311  13.497  22.461  0.00  0.00     0.027 A 
ATOM     18  C   UNL d   1     -47.521  14.216  22.794  0.00  0.00     0.028 A 
ATOM     19  C   UNL d   1     -48.248  14.533  22.636  0.00  0.00     0.119 A 
ATOM     20  O   UNL d   1     -48.601  15.225  22.884  0.00  0.00    -0.300 OA
ATOM     21  C   UNL d   1     -48.781  14.155  22.152  0.00  0.00     0.119 A 
ATOM     22  C   UNL d   1     -49.341  15.269  22.555  0.00  0.00     0.304 A 
ATOM     23  O   UNL d   1     -49.455  14.606  22.100  0.00  0.00    -0.300 OA
ATOM     24  C   UNL d   1     -48.577  13.431  21.813  0.00  0.00     0.026 A 
ATOM     25  C   UNL d   1     -47.856  13.113  21.967  0.00  0.00     0.004 A 
ENDBRANCH   4  17
TORSDOF 6
ENDMDL
MODEL 2
REMARK VINA RESULT:      -6.6      1.272      1.601
REMARK  6 active torsions:
REMARK  status: ('A' for Active; 'I' for Inactive)
REMARK    1  A    between atoms: C_6  and  C_1 
REMARK    2  A    between atoms: C_8  and  C_4 
REMARK       I    between atoms: N_22  and  C_6 
REMARK    3  A    between atoms: N_9  and  C_23 
REMARK    4  A    between atoms: C_25  and  N_22 
REMARK    5  A    between atoms: C_23  and  C_24 
REMARK    6  A    between atoms: C_24  and  C_25 
ROOT
ATOM      1  C   UNL d   1     -45.253  13.076  22.331  0.00  0.00     0.168 A 
ATOM      2  N   UNL d   1     -45.598  13.784  22.541  0.00  0.00    -0.121 NA
ATOM      3  C   UNL d   1     -45.821  12.478  22.432  0.00  0.00     0.053 A 
ATOM      4  C   UNL d   1     -46.507  12.831  22.703  0.00  0.00     0.127 A 
ATOM      5  O   UNL d   1     -46.365  13.639  22.770  0.00  0.00    -0.211 OA
ENDROOT
BRANCH   1   6
ATOM      6  C   UNL d   1     -43.748  12.806  21.805  0.00  0.00     0.299 C 
ATOM      7  O   UNL d   1     -43.392  12.068  21.831  0.00  0.00    -0.263 OA
ATOM      8  N   UNL d   1     -43.300  13.464  21.485  0.00  0.00    -0.205 NA
BRANCH   8   9
ATOM      9  C   UNL d   1     -42.490  13.339  21.197  0.00  0.00     0.104 C 
BRANCH   9  10
ATOM     10  C   UNL d   1     -42.020  14.015  20.953  0.00  0.00     0.040 C 
BRANCH  10  11
ATOM     11  C   UNL d   1     -41.186  13.924  20.775  0.00  0.00     0.083 C 
BRANCH  11  12
ATOM     12  N   UNL d   1     -40.735  14.579  20.454  0.00  0.00    -0.285 N 
ATOM     13  C   UNL d   1     -40.462  14.659  19.645  0.00  0.00     0.183 A 
ATOM     14  N   UNL d   1     -40.032  15.415  19.594  0.00  0.00    -0.222 NA
ATOM     15  C   UNL d   1     -40.043  15.782  20.344  0.00  0.00     0.120 A 
ATOM     16  C   UNL d   1     -40.478  15.274  20.894  0.00  0.00     0.102 A 
ENDBRANCH  11  12
ENDBRANCH  10  11
ENDBRANCH   9  10
ENDBRANCH   8   9
ENDBRANCH   1   6
BRANCH   4  17
ATOM     17  C   UNL d   1     -47.211  12.483  22.883  0.00  0.00     0.027 A 
ATOM     18  C   UNL d   1     -47.880  12.653  22.441  0.00  0.00     0.028 A 
ATOM     19  C   UNL d   1     -48.583  12.301  22.627  0.00  0.00     0.119 A 
ATOM     20  O   UNL d   1     -49.324  12.363  22.292  0.00  0.00    -0.300 OA
ATOM     21  C   UNL d   1     -48.646  11.777  23.246  0.00  0.00     0.119 A 
ATOM     22  C   UNL d   1     -49.834  11.883  22.701  0.00  0.00     0.304 A 
ATOM     23  O   UNL d   1     -49.415  11.518  23.294  0.00  0.00    -0.300 OA
ATOM     24  C   UNL d   1     -47.978  11.600  23.696  0.00  0.00     0.026 A 
ATOM     25  C   UNL d   1     -47.277  11.949  23.514  0.00  0.00     0.004 A 
ENDBRANCH   4  17
TORSDOF 6
ENDMDL
MODEL 3
REMARK VINA RESULT:      -5.9      2.361      7.118
REMARK  6 active torsions:
REMARK  status: ('A' for Active; 'I' for Inactive)
REMARK    1  A    between atoms: C_6  and  C_1 
REMARK    2  A    between atoms: C_8  and  C_4 
REMARK       I    between atoms: N_22  and  C_6 
REMARK    3  A    between atoms: N_9  and  C_23 
REMARK    4  A    between atoms: C_25  and  N_22 
REMARK    5  A    between atoms: C_23  and  C_24 
REMARK    6  A    between atoms: C_24  and  C_25 
ROOT
ATOM      1  C   UNL d   1     -41.894  13.764  20.920  0.00  0.00     0.168 A 
ATOM      2  N   UNL d   1     -41.409  14.298  21.298  0.00  0.00    -0.121 NA
ATOM      3  C   UNL d   1     -41.635  13.701  20.133  0.00  0.00     0.053 A 
ATOM      4  C   UNL d   1     -40.993  14.200  20.043  0.00  0.00     0.127 A 
ATOM      5  O   UNL d   1     -40.857  14.567  20.766  0.00  0.00    -0.211 OA
ENDROOT
BRANCH   1   6
ATOM      6  C   UNL d   1     -43.148  12.939  21.521  0.00  0.00     0.299 C 
ATOM      7  O   UNL d   1     -43.104  12.148  21.729  0.00  0.00    -0.263 OA
ATOM      8  N   UNL d   1     -43.896  13.347  21.627  0.00  0.00    -0.205 NA
BRANCH   8   9
ATOM      9  C   UNL d   1     -44.582  12.922  21.948  0.00  0.00     0.104 C 
BRANCH   9  10
ATOM     10  C   UNL d   1     -45.310  13.349  22.099  0.00  0.00     0.040 C 
BRANCH  10  11
ATOM     11  C   UNL d   1     -45.951  12.978  22.532  0.00  0.00     0.083 C 
BRANCH  11  12
ATOM     12  N   UNL d   1     -46.714  13.365  22.599  0.00  0.00    -0.285 N 
ATOM     13  C   UNL d   1     -46.866  14.125  22.965  0.00  0.00     0.183 A 
ATOM     14  N   UNL d   1     -47.721  14.277  22.894  0.00  0.00    -0.222 NA
ATOM     15  C   UNL d   1     -48.076  13.632  22.499  0.00  0.00     0.120 A 
ATOM     16  C   UNL d   1     -47.462  13.053  22.308  0.00  0.00     0.102 A 
ENDBRANCH  11  12
ENDBRANCH  10  11
ENDBRANCH   9  10
ENDBRANCH   8   9
ENDBRANCH   1   6
BRANCH   4  17
ATOM     17  C   UNL d   1     -40.552  14.332  19.382  0.00  0.00     0.027 A 
ATOM     18  C   UNL d   1     -40.918  14.465  18.660  0.00  0.00     0.028 A 
ATOM     19  C   UNL d   1     -40.469  14.597  18.002  0.00  0.00     0.119 A 
ATOM     20  O   UNL d   1     -40.677  14.743  17.227  0.00  0.00    -0.300 OA
ATOM     21  C   UNL d   1     -39.656  14.602  18.035  0.00  0.00     0.119 A 
ATOM     22  C   UNL d   1     -39.999  14.835  16.791  0.00  0.00     0.304 A 
ATOM     23  O   UNL d   1     -39.364  14.749  17.290  0.00  0.00    -0.300 OA
ATOM     24  C   UNL d   1     -39.280  14.469  18.757  0.00  0.00     0.026 A 
ATOM     25  C   UNL d   1     -39.723  14.337  19.414  0.00  0.00     0.004 A 
ENDBRANCH   4  17
TORSDOF 6
ENDMDL
MODEL 4
REMARK VINA RESULT:      -5.1      1.640      2.782
REMARK  6 active torsions:
REMARK  status: ('A' for Active; 'I' for Inactive)
REMARK    1  A    between atoms: C_6  and  C_1 
REMARK    2  A    between atoms: C_8  and  C_4 
REMARK       I    between atoms: N_22  and  C_6 
REMARK    3  A    between atoms: N_9  and  C_23 
REMARK    4  A    between atoms: C_25  and  N_22 
REMARK    5  A    between atoms: C_23  and  C_24 
REMARK    6  A    between atoms: C_24  and  C_25 
ROOT
ATOM      1  C   UNL d   1     -43.085  12.905  21.615  0.00  0.00     0.168 A 
ATOM      2  N   UNL d   1     -43.212  12.113  21.753  0.00  0.00    -0.121 NA
ATOM      3  C   UNL d   1     -43.785  13.310  21.804  0.00  0.00     0.053 A 
ATOM      4  C   UNL d   1     -44.332  12.756  22.056  0.00  0.00     0.127 A 
ATOM      5  O   UNL d   1     -43.972  12.016  22.023  0.00  0.00    -0.211 OA
ENDROOT
BRANCH   1   6
ATOM      6  C   UNL d   1     -41.746  13.633  21.074  0.00  0.00     0.299 C 
ATOM      7  O   UNL d   1     -41.090  13.768  21.546  0.00  0.00    -0.263 OA
ATOM      8  N   UNL d   1     -41.720  13.890  20.256  0.00  0.00    -0.205 NA
BRANCH   8   9
ATOM      9  C   UNL d   1     -41.010  14.283  19.946  0.00  0.00     0.104 C 
BRANCH   9  10
ATOM     10  C   UNL d   1     -40.929  14.404  19.100  0.00  0.00     0.040 C 
BRANCH  10  11
ATOM     11  C   UNL d   1     -40.391  14.997  18.794  0.00  0.00     0.083 C 
BRANCH  11  12
ATOM     12  N   UNL d   1     -40.328  15.134  17.949  0.00  0.00    -0.285 N 
ATOM     13  C   UNL d   1     -39.841  14.694  17.399  0.00  0.00     0.183 A 
ATOM     14  N   UNL d   1     -39.967  15.042  16.610  0.00  0.00    -0.222 NA
ATOM     15  C   UNL d   1     -40.512  15.672  16.679  0.00  0.00     0.120 A 
ATOM     16  C   UNL d   1     -40.748  15.744  17.507  0.00  0.00     0.102 A 
ENDBRANCH  11  12
ENDBRANCH  10  11
ENDBRANCH   9  10
ENDBRANCH   8   9
ENDBRANCH   1   6
BRANCH   4  17
ATOM     17  C   UNL d   1     -45.090  12.876  22.299  0.00  0.00     0.027 A 
ATOM     18  C   UNL d   1     -45.458  12.330  22.787  0.00  0.00     0.028 A 
ATOM     19  C   UNL d   1     -46.219  12.456  23.027  0.00  0.00     0.119 A 
ATOM     20  O   UNL d   1     -46.716  12.018  23.503  0.00  0.00    -0.300 OA
ATOM     21  C   UNL d   1     -46.634  13.116  22.795  0.00  0.00     0.119 A 
ATOM     22  C   UNL d   1     -47.426  12.405  23.561  0.00  0.00     0.304 A 
ATOM     23  O   UNL d   1     -47.378  13.087  23.123  0.00  0.00    -0.300 OA
ATOM     24  C   UNL d   1     -46.272  13.670  22.304  0.00  0.00     0.026 A 
ATOM     25  C   UNL d   1     -45.515  13.548  22.064  0.00  0.00     0.004 A 
ENDBRANCH   4  17
TORSDOF 6
ENDMDL
MODEL 5
REMARK VINA RESULT:      -4.9      2.033      6.993
REMARK  6 active torsions:
REMARK  status: ('A' for Active; 'I' for Inactive)
REMARK    1  A    between atoms: C_6  and  C_1 
REMARK    2  A    between atoms: C_8  and  C_4 
REMARK       I    between atoms: N_22  and  C_6 
REMARK    3  A    between atoms: N_9  and  C_23 
REMARK    4  A    between atoms: C_25  and  N_22 
REMARK    5  A    between atoms: C_23  and  C_24 
REMARK    6  A    between atoms: C_24  and  C_25 
ROOT
ATOM      1  C   UNL d   1     -43.714  13.178  21.641  0.00  0.00     0.168 A 
ATOM      2  N   UNL d   1     -43.376  12.452  21.493  0.00  0.00    -0.121 NA
ATOM      3  C   UNL d   1     -43.176  13.762  21.396  0.00  0.00     0.053 A 
ATOM      4  C   UNL d   1     -42.515  13.381  21.100  0.00  0.00     0.127 A 
ATOM      5  O   UNL d   1     -42.643  12.571  21.162  0.00  0.00    -0.211 OA
ENDROOT
BRANCH   1   6
ATOM      6  C   UNL d   1     -45.159  13.504  22.290  0.00  0.00     0.299 C 
ATOM      7  O   UNL d   1     -45.517  14.239  22.235  0.00  0.00    -0.263 OA
ATOM      8  N   UNL d   1     -45.570  12.880  22.711  0.00  0.00    -0.205 NA
BRANCH   8   9
ATOM      9  C   UNL d   1     -46.348  13.035  23.067  0.00  0.00     0.104 C 
BRANCH   9  10
ATOM     10  C   UNL d   1     -46.937  12.411  23.083  0.00  0.00     0.040 C 
BRANCH  10  11
ATOM     11  C   UNL d   1     -47.538  12.396  23.695  0.00  0.00     0.083 C 
BRANCH  11  12
ATOM     12  N   UNL d   1     -48.303  12.037  23.544  0.00  0.00    -0.285 N 
ATOM     13  C   UNL d   1     -48.503  11.210  23.643  0.00  0.00     0.183 A 
ATOM     14  N   UNL d   1     -49.341  11.120  23.421  0.00  0.00    -0.222 NA
ATOM     15  C   UNL d   1     -49.640  11.868  23.196  0.00  0.00     0.120 A 
ATOM     16  C   UNL d   1     -49.006  12.452  23.266  0.00  0.00     0.102 A 
ENDBRANCH  11  12
ENDBRANCH  10  11
ENDBRANCH   9  10
ENDBRANCH   8   9
ENDBRANCH   1   6
BRANCH   4  17
ATOM     17  C   UNL d   1     -41.844  13.708  20.797  0.00  0.00     0.027 A 
ATOM     18  C   UNL d   1     -41.713  13.704  19.987  0.00  0.00     0.028 A 
ATOM     19  C   UNL d   1     -41.038  14.033  19.690  0.00  0.00     0.119 A 
ATOM     20  O   UNL d   1     -40.765  14.108  18.924  0.00  0.00    -0.300 OA
ATOM     21  C   UNL d   1     -40.480  14.371  20.175  0.00  0.00     0.119 A 
ATOM     22  C   UNL d   1     -40.049  14.487  18.942  0.00  0.00     0.304 A 
ATOM     23  O   UNL d   1     -39.869  14.652  19.717  0.00  0.00    -0.300 OA
ATOM     24  C   UNL d   1     -40.604  14.379  20.990  0.00  0.00     0.026 A 
ATOM     25  C   UNL d   1     -41.274  14.053  21.290  0.00  0.00     0.004 A 
ENDBRANCH   4  17
TORSDOF 6
ENDMDL
