MODEL 1
REMARK VINA RESULT:      -6.6      0.000      0.000
REMARK  3 active torsions:
REMARK  status: ('A' for Active; 'I' for Inactive)
REMARK    1  A    between atoms: C_5  and  C_1 
REMARK    2  A    between atoms: C_4  and  C_6 
REMARK    3  A    between atoms: C_6  and  C_5 
ROOT
ATOM      1  C   UNL d   1     -41.400-122.460 -52.440  0.00  0.00     0.068 C 
ENDROOT
BRANCH   1   2
ATOM      2  C   UNL d   1     -41.581-122.633 -51.648  0.00  0.00     0.114 A 
ATOM      3  N   UNL d   1     -42.249-122.375 -51.236  0.00  0.00    -0.238 NA
ATOM      4  C   UNL d   1     -42.203-122.677 -50.467  0.00  0.00     0.088 A 
ATOM      5  C   UNL d   1     -42.705-122.604 -49.817  0.00  0.00     0.020 A 
ATOM      6  C   UNL d   1     -41.509-123.120 -50.403  0.00  0.00     0.049 A 
ATOM      7  C   UNL d   1     -42.514-122.974 -49.103  0.00  0.00     0.002 A 
ATOM      8  C   UNL d   1     -41.820-123.414 -49.048  0.00  0.00     0.001 A 
ATOM      9  C   UNL d   1     -41.321-123.486 -49.696  0.00  0.00     0.008 A 
ATOM     10  S   UNL d   1     -41.124-123.091 -51.139  0.00  0.00    -0.066 SA
ENDBRANCH   1   2
BRANCH   1  11
ATOM     11  C   UNL d   1     -41.723-122.928 -53.043  0.00  0.00     0.201 C 
ATOM     12  O   UNL d   1     -41.928-123.717 -52.901  0.00  0.00    -0.286 OA
BRANCH  11  13
ATOM     13  C   UNL d   1     -41.842-122.600 -53.799  0.00  0.00     0.078 A 
ATOM     14  C   UNL d   1     -41.539-122.988 -54.473  0.00  0.00     0.202 A 
ATOM     15  C   UNL d   1     -41.655-122.665 -55.223  0.00  0.00     0.084 A 
ATOM     16  O   UNL d   1     -41.123-123.696 -54.390  0.00  0.00    -0.286 OA
ATOM     17  C   UNL d   1     -42.074-121.954 -55.299  0.00  0.00     0.199 A 
ATOM     18  C   UNL d   1     -42.374-121.570 -54.632  0.00  0.00     0.042 A 
ATOM     19  O   UNL d   1     -42.190-121.631 -56.050  0.00  0.00    -0.286 OA
ATOM     20  C   UNL d   1     -42.259-121.892 -53.881  0.00  0.00     0.010 A 
ENDBRANCH  11  13
ENDBRANCH   1  11
TORSDOF 3
ENDMDL
MODEL 2
REMARK VINA RESULT:      -6.2      1.559      4.592
REMARK  3 active torsions:
REMARK  status: ('A' for Active; 'I' for Inactive)
REMARK    1  A    between atoms: C_5  and  C_1 
REMARK    2  A    between atoms: C_4  and  C_6 
REMARK    3  A    between atoms: C_6  and  C_5 
ROOT
ATOM      1  C   UNL d   1     -41.464-122.536 -51.398  0.00  0.00     0.068 C 
ENDROOT
BRANCH   1   2
ATOM      2  C   UNL d   1     -41.519-122.519 -52.226  0.00  0.00     0.114 A 
ATOM      3  N   UNL d   1     -41.979-121.997 -52.671  0.00  0.00    -0.238 NA
ATOM      4  C   UNL d   1     -41.866-122.180 -53.470  0.00  0.00     0.088 A 
ATOM      5  C   UNL d   1     -42.177-121.849 -54.159  0.00  0.00     0.020 A 
ATOM      6  C   UNL d   1     -41.337-122.812 -53.520  0.00  0.00     0.049 A 
ATOM      7  C   UNL d   1     -41.961-122.150 -54.897  0.00  0.00     0.002 A 
ATOM      8  C   UNL d   1     -41.433-122.782 -54.938  0.00  0.00     0.001 A 
ATOM      9  C   UNL d   1     -41.123-123.110 -54.251  0.00  0.00     0.008 A 
ATOM     10  S   UNL d   1     -41.123-123.021 -52.745  0.00  0.00    -0.066 SA
ENDBRANCH   1   2
BRANCH   1  11
ATOM     11  C   UNL d   1     -41.852-123.135 -50.975  0.00  0.00     0.201 C 
ATOM     12  O   UNL d   1     -42.249-123.741 -51.373  0.00  0.00    -0.286 OA
BRANCH  11  13
ATOM     13  C   UNL d   1     -41.841-123.123 -50.143  0.00  0.00     0.078 A 
ATOM     14  C   UNL d   1     -42.552-123.008 -49.720  0.00  0.00     0.202 A 
ATOM     15  C   UNL d   1     -42.544-122.997 -48.895  0.00  0.00     0.084 A 
ATOM     16  O   UNL d   1     -43.262-122.907 -50.126  0.00  0.00    -0.286 OA
ATOM     17  C   UNL d   1     -41.825-123.100 -48.494  0.00  0.00     0.199 A 
ATOM     18  C   UNL d   1     -41.123-123.213 -48.912  0.00  0.00     0.042 A 
ATOM     19  O   UNL d   1     -41.818-123.088 -47.668  0.00  0.00    -0.286 OA
ATOM     20  C   UNL d   1     -41.130-123.225 -49.738  0.00  0.00     0.010 A 
ENDBRANCH  11  13
ENDBRANCH   1  11
TORSDOF 3
ENDMDL
MODEL 3
REMARK VINA RESULT:      -4.0      1.612      4.566
REMARK  3 active torsions:
REMARK  status: ('A' for Active; 'I' for Inactive)
REMARK    1  A    between atoms: C_5  and  C_1 
REMARK    2  A    between atoms: C_4  and  C_6 
REMARK    3  A    between atoms: C_6  and  C_5 
ROOT
ATOM      1  C   UNL d   1     -41.248-122.972 -52.369  0.00  0.00     0.068 C 
ENDROOT
BRANCH   1   2
ATOM      2  C   UNL d   1     -41.471-122.758 -53.139  0.00  0.00     0.114 A 
ATOM      3  N   UNL d   1     -41.509-123.263 -53.792  0.00  0.00    -0.238 NA
ATOM      4  C   UNL d   1     -41.756-122.816 -54.442  0.00  0.00     0.088 A 
ATOM      5  C   UNL d   1     -41.891-123.020 -55.230  0.00  0.00     0.020 A 
ATOM      6  C   UNL d   1     -41.870-122.037 -54.195  0.00  0.00     0.049 A 
ATOM      7  C   UNL d   1     -42.140-122.447 -55.770  0.00  0.00     0.002 A 
ATOM      8  C   UNL d   1     -42.252-121.671 -55.514  0.00  0.00     0.001 A 
ATOM      9  C   UNL d   1     -42.117-121.469 -54.730  0.00  0.00     0.008 A 
ATOM     10  S   UNL d   1     -41.693-122.003 -53.384  0.00  0.00    -0.066 SA
ENDBRANCH   1   2
BRANCH   1  11
ATOM     11  C   UNL d   1     -41.464-122.486 -51.732  0.00  0.00     0.201 C 
ATOM     12  O   UNL d   1     -41.572-121.673 -51.840  0.00  0.00    -0.286 OA
BRANCH  11  13
ATOM     13  C   UNL d   1     -41.573-122.822 -50.978  0.00  0.00     0.078 A 
ATOM     14  C   UNL d   1     -42.140-122.498 -50.457  0.00  0.00     0.202 A 
ATOM     15  C   UNL d   1     -42.250-122.829 -49.710  0.00  0.00     0.084 A 
ATOM     16  O   UNL d   1     -42.590-121.847 -50.689  0.00  0.00    -0.286 OA
ATOM     17  C   UNL d   1     -41.794-123.483 -49.483  0.00  0.00     0.199 A 
ATOM     18  C   UNL d   1     -41.234-123.804 -49.998  0.00  0.00     0.042 A 
ATOM     19  O   UNL d   1     -41.905-123.814 -48.735  0.00  0.00    -0.286 OA
ATOM     20  C   UNL d   1     -41.123-123.474 -50.747  0.00  0.00     0.010 A 
ENDBRANCH  11  13
ENDBRANCH   1  11
TORSDOF 3
ENDMDL
