MODEL 1
REMARK VINA RESULT:       2.9      0.000      0.000
REMARK  12 active torsions:
REMARK  status: ('A' for Active; 'I' for Inactive)
REMARK    1  A    between atoms: C_23  and  N_1 
REMARK    2  A    between atoms: S_8  and  C_2 
REMARK    3  A    between atoms: C_7  and  C_11 
REMARK       I    between atoms: N_12  and  C_7 
REMARK    4  A    between atoms: C_24  and  S_8 
REMARK    5  A    between atoms: C_25  and  N_12 
REMARK    6  A    between atoms: C_13  and  C_25 
REMARK    7  A    between atoms: C_15  and  C_24 
REMARK    8  A    between atoms: O_26  and  C_15 
REMARK    9  A    between atoms: C_28  and  C_23 
REMARK   10  A    between atoms: C_27  and  O_26 
REMARK   11  A    between atoms: C_30  and  C_28 
REMARK   12  A    between atoms: C_29  and  C_30 
ROOT
ATOM      1  N   UNL d   1      33.062  20.902 -22.288  0.00  0.00    -0.253 N 
ATOM      2  C   UNL d   1      33.090  21.159 -23.063  0.00  0.00     0.182 A 
ATOM      3  C   UNL d   1      32.942  20.108 -22.117  0.00  0.00     0.268 A 
ATOM      4  N   UNL d   1      32.997  20.615 -23.669  0.00  0.00    -0.222 NA
ATOM      5  C   UNL d   1      32.849  19.565 -22.720  0.00  0.00     0.074 A 
ATOM      6  C   UNL d   1      32.877  19.818 -23.510  0.00  0.00     0.088 A 
ATOM      7  C   UNL d   1      32.783  19.272 -24.127  0.00  0.00     0.024 A 
ATOM      8  C   UNL d   1      32.728  18.764 -22.559  0.00  0.00     0.006 A 
ATOM      9  C   UNL d   1      32.662  18.473 -23.955  0.00  0.00     0.059 A 
ATOM     10  O   UNL d   1      32.914  19.855 -21.327  0.00  0.00    -0.267 OA
ATOM     11  C   UNL d   1      32.635  18.220 -23.166  0.00  0.00     0.005 A 
ENDROOT
BRANCH   9  12
ATOM     12  C   UNL d   1      32.568  17.923 -24.572  0.00  0.00     0.279 C 
ATOM     13  N   UNL d   1      31.823  17.662 -24.757  0.00  0.00    -0.204 NA
ATOM     14  O   UNL d   1      33.235  17.661 -24.977  0.00  0.00    -0.265 OA
BRANCH  13  15
ATOM     15  C   UNL d   1      31.168  17.936 -24.341  0.00  0.00     0.127 C 
BRANCH  15  16
ATOM     16  C   UNL d   1      30.465  17.504 -24.345  0.00  0.00     0.119 A 
ATOM     17  O   UNL d   1      30.198  16.879 -23.904  0.00  0.00    -0.304 OA
ATOM     18  C   UNL d   1      29.445  16.668 -24.150  0.00  0.00     0.123 A 
ATOM     19  C   UNL d   1      29.251  17.188 -24.768  0.00  0.00     0.029 A 
ATOM     20  C   UNL d   1      29.868  17.698 -24.891  0.00  0.00     0.028 A 
ENDBRANCH  15  16
ENDBRANCH  13  15
ENDBRANCH   9  12
BRANCH   2  21
ATOM     21  S   UNL d   1      33.211  21.957 -23.235  0.00  0.00    -0.044 SA
BRANCH  21  22
ATOM     22  C   UNL d   1      33.239  22.213 -24.013  0.00  0.00     0.107 C 
BRANCH  22  23
ATOM     23  C   UNL d   1      32.935  22.956 -24.207  0.00  0.00     0.307 C 
ATOM     24  O   UNL d   1      32.986  23.588 -23.671  0.00  0.00    -0.258 OA
BRANCH  23  25
ATOM     25  O   UNL d   1      32.576  23.063 -24.948  0.00  0.00    -0.271 OA
BRANCH  25  26
ATOM     26  C   UNL d   1      32.063  23.703 -25.052  0.00  0.00     0.126 C 
ATOM     27  C   UNL d   1      31.263  23.558 -25.066  0.00  0.00     0.029 C 
ENDBRANCH  25  26
ENDBRANCH  23  25
ENDBRANCH  22  23
ENDBRANCH  21  22
ENDBRANCH   2  21
BRANCH   1  28
ATOM     28  C   UNL d   1      33.157  21.460 -21.673  0.00  0.00     0.085 C 
BRANCH  28  29
ATOM     29  C   UNL d   1      32.554  21.581 -21.124  0.00  0.00     0.019 C 
BRANCH  29  30
ATOM     30  C   UNL d   1      32.404  22.320 -20.816  0.00  0.00     0.002 C 
BRANCH  30  31
ATOM     31  C   UNL d   1      32.327  22.438 -20.005  0.00  0.00     0.000 C 
ATOM     32  C   UNL d   1      32.683  23.061 -19.643  0.00  0.00     0.000 C 
ENDBRANCH  30  31
ENDBRANCH  29  30
ENDBRANCH  28  29
ENDBRANCH   1  28
TORSDOF 12
ENDMDL
