MODEL 1
REMARK VINA RESULT:      -4.3      0.000      0.000
REMARK  4 active torsions:
REMARK  status: ('A' for Active; 'I' for Inactive)
REMARK    1  A    between atoms: C_6  and  C_1 
REMARK       I    between atoms: N_9  and  C_6 
REMARK       I    between atoms: C_8  and  N_10 
REMARK    2  A    between atoms: C_11  and  C_8 
REMARK    3  A    between atoms: N_10  and  N_9 
REMARK    4  A    between atoms: O_22  and  C_13 
ROOT
ATOM      1  C   UNL d   1     -42.362-122.461 -50.309  0.00  0.00     0.123 A 
ATOM      2  C   UNL d   1     -43.097-122.470 -49.934  0.00  0.00     0.305 A 
ATOM      3  O   UNL d   1     -43.172-122.801 -49.200  0.00  0.00    -0.271 OA
ATOM      4  C   UNL d   1     -41.722-122.783 -49.941  0.00  0.00     0.012 A 
ATOM      5  C   UNL d   1     -42.511-123.141 -48.803  0.00  0.00     0.125 A 
ATOM      6  C   UNL d   1     -41.776-123.132 -49.178  0.00  0.00     0.025 A 
ATOM      7  O   UNL d   1     -43.741-122.148 -50.299  0.00  0.00    -0.259 OA
ATOM      8  C   UNL d   1     -42.576-123.482 -48.052  0.00  0.00     0.117 A 
ATOM      9  C   UNL d   1     -41.127-123.464 -48.793  0.00  0.00     0.002 A 
ATOM     10  C   UNL d   1     -41.186-123.807 -48.041  0.00  0.00     0.002 A 
ATOM     11  C   UNL d   1     -41.921-123.816 -47.666  0.00  0.00     0.026 A 
ENDROOT
BRANCH   1  12
ATOM     12  C   UNL d   1     -42.264-122.130 -51.054  0.00  0.00     0.302 C 
ATOM     13  N   UNL d   1     -42.210-122.644 -51.701  0.00  0.00    -0.102 NA
ATOM     14  O   UNL d   1     -42.220-121.291 -51.156  0.00  0.00    -0.263 OA
BRANCH  13  15
ATOM     15  N   UNL d   1     -42.112-122.341 -52.447  0.00  0.00    -0.102 NA
ATOM     16  C   UNL d   1     -42.035-122.860 -53.091  0.00  0.00     0.297 C 
ATOM     17  O   UNL d   1     -42.056-123.663 -52.982  0.00  0.00    -0.264 OA
BRANCH  16  18
ATOM     18  C   UNL d   1     -41.937-122.562 -53.845  0.00  0.00     0.059 A 
ATOM     19  C   UNL d   1     -42.532-122.147 -54.215  0.00  0.00     0.005 A 
ATOM     20  C   UNL d   1     -42.440-121.847 -54.970  0.00  0.00     0.007 A 
ATOM     21  C   UNL d   1     -41.741-121.954 -55.379  0.00  0.00     0.035 A 
ATOM     22  C   UNL d   1     -41.123-122.381 -55.004  0.00  0.00     0.007 A 
ATOM     23 BR   UNL d   1     -41.654-121.651 -56.136  0.00  0.00    -0.049 Br
ATOM     24  C   UNL d   1     -41.216-122.682 -54.248  0.00  0.00     0.005 A 
ENDBRANCH  16  18
ENDBRANCH  13  15
ENDBRANCH   1  12
BRANCH   8  25
ATOM     25  O   UNL d   1     -43.303-123.491 -47.681  0.00  0.00    -0.326 OA
ATOM     26  C   UNL d   1     -43.366-123.740 -46.913  0.00  0.00     0.181 C 
ENDBRANCH   8  25
TORSDOF 4
ENDMDL
MODEL 2
REMARK VINA RESULT:      -1.4      2.149      5.731
REMARK  4 active torsions:
REMARK  status: ('A' for Active; 'I' for Inactive)
REMARK    1  A    between atoms: C_6  and  C_1 
REMARK       I    between atoms: N_9  and  C_6 
REMARK       I    between atoms: C_8  and  N_10 
REMARK    2  A    between atoms: C_11  and  C_8 
REMARK    3  A    between atoms: N_10  and  N_9 
REMARK    4  A    between atoms: O_22  and  C_13 
ROOT
ATOM      1  C   UNL d   1     -41.604-122.487 -52.553  0.00  0.00     0.123 A 
ATOM      2  C   UNL d   1     -41.404-123.187 -52.942  0.00  0.00     0.305 A 
ATOM      3  O   UNL d   1     -41.488-123.242 -53.744  0.00  0.00    -0.271 OA
ATOM      4  C   UNL d   1     -41.882-121.861 -52.976  0.00  0.00     0.012 A 
ATOM      5  C   UNL d   1     -41.779-122.595 -54.200  0.00  0.00     0.125 A 
ATOM      6  C   UNL d   1     -41.979-121.895 -53.811  0.00  0.00     0.025 A 
ATOM      7  O   UNL d   1     -41.124-123.817 -52.521  0.00  0.00    -0.259 OA
ATOM      8  C   UNL d   1     -41.869-122.641 -55.021  0.00  0.00     0.117 A 
ATOM      9  C   UNL d   1     -42.263-121.260 -54.253  0.00  0.00     0.002 A 
ATOM     10  C   UNL d   1     -42.356-121.300 -55.076  0.00  0.00     0.002 A 
ATOM     11  C   UNL d   1     -42.156-121.999 -55.465  0.00  0.00     0.026 A 
ENDROOT
BRANCH   1  12
ATOM     12  C   UNL d   1     -41.526-122.410 -51.740  0.00  0.00     0.302 C 
ATOM     13  N   UNL d   1     -41.845-123.006 -51.262  0.00  0.00    -0.102 NA
ATOM     14  O   UNL d   1     -41.131-121.741 -51.401  0.00  0.00    -0.263 OA
BRANCH  13  15
ATOM     15  N   UNL d   1     -41.780-122.952 -50.455  0.00  0.00    -0.102 NA
ATOM     16  C   UNL d   1     -42.319-123.363 -49.975  0.00  0.00     0.297 C 
ATOM     17  O   UNL d   1     -42.906-123.816 -50.303  0.00  0.00    -0.264 OA
BRANCH  16  18
ATOM     18  C   UNL d   1     -42.260-123.314 -49.162  0.00  0.00     0.059 A 
ATOM     19  C   UNL d   1     -41.645-123.668 -48.762  0.00  0.00     0.005 A 
ATOM     20  C   UNL d   1     -41.581-123.621 -47.947  0.00  0.00     0.007 A 
ATOM     21  C   UNL d   1     -42.137-123.215 -47.508  0.00  0.00     0.035 A 
ATOM     22  C   UNL d   1     -42.774-122.848 -47.914  0.00  0.00     0.007 A 
ATOM     23 BR   UNL d   1     -42.068-123.172 -46.692  0.00  0.00    -0.049 Br
ATOM     24  C   UNL d   1     -42.837-122.895 -48.729  0.00  0.00     0.005 A 
ENDBRANCH  16  18
ENDBRANCH  13  15
ENDBRANCH   1  12
BRANCH   8  25
ATOM     25  O   UNL d   1     -41.671-123.333 -55.405  0.00  0.00    -0.326 OA
ATOM     26  C   UNL d   1     -41.344-123.309 -56.145  0.00  0.00     0.181 C 
ENDBRANCH   8  25
TORSDOF 4
ENDMDL
