MODEL 1
REMARK VINA RESULT:      51.5      0.000      0.000
REMARK  6 active torsions:
REMARK  status: ('A' for Active; 'I' for Inactive)
REMARK    1  A    between atoms: N_5  and  C_1 
REMARK       I    between atoms: C_11  and  N_5 
REMARK    2  A    between atoms: C_22  and  C_7 
REMARK    3  A    between atoms: C_8  and  C_10 
REMARK    4  A    between atoms: C_20  and  C_11 
REMARK    5  A    between atoms: C_13  and  S_15 
REMARK    6  A    between atoms: S_15  and  C_20 
ROOT
ATOM      1  S   UNL d   1      60.880  49.031  51.534  0.00  0.00    -0.061 SA
ENDROOT
BRANCH   1   2
ATOM      2  C   UNL d   1      61.047  48.345  51.110  0.00  0.00     0.133 A 
ATOM      3  N   UNL d   1      61.409  48.385  50.380  0.00  0.00    -0.141 NA
ATOM      4  N   UNL d   1      61.577  47.708  49.956  0.00  0.00    -0.147 NA
ATOM      5  C   UNL d   1      61.377  46.973  50.270  0.00  0.00     0.109 A 
ATOM      6  C   UNL d   1      61.011  46.924  51.008  0.00  0.00     0.024 A 
ATOM      7  C   UNL d   1      60.847  47.602  51.423  0.00  0.00     0.029 A 
BRANCH   5   8
ATOM      8  C   UNL d   1      61.543  46.287  49.850  0.00  0.00     0.049 A 
ATOM      9  S   UNL d   1      62.287  46.013  49.633  0.00  0.00    -0.085 SA
ATOM     10  C   UNL d   1      62.202  45.307  49.218  0.00  0.00     0.035 A 
ATOM     11  C   UNL d   1      61.385  45.139  49.177  0.00  0.00     0.007 A 
ATOM     12  C   UNL d   1      60.978  45.743  49.566  0.00  0.00     0.009 A 
ENDBRANCH   5   8
ENDBRANCH   1   2
BRANCH   1  13
ATOM     13  C   UNL d   1      60.596  49.696  51.150  0.00  0.00     0.099 C 
BRANCH  13  14
ATOM     14  C   UNL d   1      59.939  49.630  50.655  0.00  0.00     0.288 C 
ATOM     15  N   UNL d   1      59.182  49.705  50.968  0.00  0.00    -0.181 NA
ATOM     16  O   UNL d   1      60.037  49.491  49.853  0.00  0.00    -0.265 OA
BRANCH  15  17
ATOM     17  C   UNL d   1      58.530  49.641  50.482  0.00  0.00     0.219 A 
ATOM     18  S   UNL d   1      57.752  49.504  50.727  0.00  0.00    -0.026 SA
ATOM     19  C   UNL d   1      57.280  49.481  50.063  0.00  0.00     0.135 A 
ATOM     20  N   UNL d   1      57.758  49.603  49.406  0.00  0.00    -0.139 NA
ATOM     21  N   UNL d   1      58.524  49.701  49.668  0.00  0.00    -0.121 NA
BRANCH  19  22
ATOM     22  C   UNL d   1      56.465  49.356  50.052  0.00  0.00     0.028 C 
ATOM     23  C   UNL d   1      56.089  49.020  50.695  0.00  0.00     0.002 C 
ENDBRANCH  19  22
ENDBRANCH  15  17
ENDBRANCH  13  14
ENDBRANCH   1  13
TORSDOF 6
ENDMDL
