MODEL 1
REMARK VINA RESULT:      -9.5      0.000      0.000
REMARK  5 active torsions:
REMARK  status: ('A' for Active; 'I' for Inactive)
REMARK    1  A    between atoms: C_8  and  N_1 
REMARK    2  A    between atoms: S_4  and  C_10 
REMARK    3  A    between atoms: C_5  and  C_8 
REMARK       I    between atoms: N_9  and  C_5 
REMARK    4  A    between atoms: C_20  and  C_8 
REMARK    5  A    between atoms: C_19  and  N_9 
ROOT
ATOM      1  C   UNL d   1      53.773  32.724  54.051  0.00  0.00     0.140 C 
ENDROOT
BRANCH   1   2
ATOM      2  C   UNL d   1      53.209  33.226  54.383  0.00  0.00     0.344 C 
ATOM      3  N   UNL d   1      52.575  33.480  53.928  0.00  0.00    -0.363 NA
ATOM      4  O   UNL d   1      53.285  33.469  55.168  0.00  0.00    -0.249 OA
BRANCH   3   5
ATOM      5  C   UNL d   1      51.935  33.748  53.499  0.00  0.00     0.135 A 
ATOM      6  C   UNL d   1      52.008  34.355  52.946  0.00  0.00     0.033 A 
ATOM      7  C   UNL d   1      51.351  34.616  52.519  0.00  0.00     0.016 A 
ATOM      8  C   UNL d   1      50.612  34.260  52.653  0.00  0.00     0.107 A 
ATOM      9  C   UNL d   1      50.540  33.653  53.206  0.00  0.00     0.016 A 
ATOM     10  C   UNL d   1      51.202  33.398  53.629  0.00  0.00     0.033 A 
BRANCH   8  11
ATOM     11  S   UNL d   1      49.956  34.520  52.227  0.00  0.00     0.302 S 
ATOM     12  O   UNL d   1      50.251  34.189  51.571  0.00  0.00    -0.197 OA
ATOM     13  O   UNL d   1      49.653  34.865  52.912  0.00  0.00    -0.197 OA
ATOM     14  N   UNL d   1      49.302  34.782  51.806  0.00  0.00    -0.043 N 
ENDBRANCH   8  11
ENDBRANCH   3   5
ENDBRANCH   1   2
BRANCH   1  15
ATOM     15  N   UNL d   1      53.616  31.916  53.981  0.00  0.00    -0.236 N 
ATOM     16  C   UNL d   1      53.456  31.506  53.282  0.00  0.00     0.267 A 
ATOM     17  C   UNL d   1      53.332  30.708  53.474  0.00  0.00     0.061 A 
ATOM     18  O   UNL d   1      53.425  31.833  52.526  0.00  0.00    -0.267 OA
ATOM     19  C   UNL d   1      53.153  30.036  53.016  0.00  0.00     0.005 A 
ATOM     20  C   UNL d   1      53.417  30.625  54.300  0.00  0.00     0.061 A 
ATOM     21  C   UNL d   1      53.061  29.303  53.371  0.00  0.00     0.000 A 
ATOM     22  C   UNL d   1      53.146  29.227  54.189  0.00  0.00     0.000 A 
ATOM     23  C   UNL d   1      53.323  29.884  54.651  0.00  0.00     0.005 A 
ATOM     24  C   UNL d   1      53.593  31.372  54.615  0.00  0.00     0.267 A 
ATOM     25  O   UNL d   1      53.720  31.540  55.408  0.00  0.00    -0.267 OA
ENDBRANCH   1  15
BRANCH   1  26
ATOM     26  C   UNL d   1      54.484  33.031  53.792  0.00  0.00     0.022 C 
ATOM     27  C   UNL d   1      54.677  33.029  52.994  0.00  0.00     0.002 C 
ATOM     28  C   UNL d   1      55.015  33.347  54.339  0.00  0.00     0.002 C 
ENDBRANCH   1  26
TORSDOF 5
ENDMDL
MODEL 2
REMARK VINA RESULT:      -8.3      0.860      2.714
REMARK  5 active torsions:
REMARK  status: ('A' for Active; 'I' for Inactive)
REMARK    1  A    between atoms: C_8  and  N_1 
REMARK    2  A    between atoms: S_4  and  C_10 
REMARK    3  A    between atoms: C_5  and  C_8 
REMARK       I    between atoms: N_9  and  C_5 
REMARK    4  A    between atoms: C_20  and  C_8 
REMARK    5  A    between atoms: C_19  and  N_9 
ROOT
ATOM      1  C   UNL d   1      53.428  31.658  53.501  0.00  0.00     0.140 C 
ENDROOT
BRANCH   1   2
ATOM      2  C   UNL d   1      53.036  31.884  52.811  0.00  0.00     0.344 C 
ATOM      3  N   UNL d   1      52.427  32.432  52.853  0.00  0.00    -0.363 NA
ATOM      4  O   UNL d   1      53.259  31.559  52.085  0.00  0.00    -0.249 OA
BRANCH   3   5
ATOM      5  C   UNL d   1      51.818  32.975  52.865  0.00  0.00     0.135 A 
ATOM      6  C   UNL d   1      51.111  32.823  53.262  0.00  0.00     0.033 A 
ATOM      7  C   UNL d   1      50.503  33.382  53.265  0.00  0.00     0.016 A 
ATOM      8  C   UNL d   1      50.611  34.101  52.864  0.00  0.00     0.107 A 
ATOM      9  C   UNL d   1      51.317  34.252  52.467  0.00  0.00     0.016 A 
ATOM     10  C   UNL d   1      51.920  33.687  52.469  0.00  0.00     0.033 A 
BRANCH   8  11
ATOM     11  S   UNL d   1      50.003  34.659  52.867  0.00  0.00     0.302 S 
ATOM     12  O   UNL d   1      50.310  34.989  53.519  0.00  0.00    -0.197 OA
ATOM     13  O   UNL d   1      49.687  34.313  52.188  0.00  0.00    -0.197 OA
ATOM     14  N   UNL d   1      49.397  35.213  52.867  0.00  0.00    -0.043 N 
ENDBRANCH   8  11
ENDBRANCH   3   5
ENDBRANCH   1   2
BRANCH   1  15
ATOM     15  N   UNL d   1      53.895  32.204  53.908  0.00  0.00    -0.236 N 
ATOM     16  C   UNL d   1      53.799  32.441  54.694  0.00  0.00     0.267 A 
ATOM     17  C   UNL d   1      54.391  32.997  54.869  0.00  0.00     0.061 A 
ATOM     18  O   UNL d   1      53.219  32.172  55.213  0.00  0.00    -0.267 OA
ATOM     19  C   UNL d   1      54.578  33.427  55.557  0.00  0.00     0.005 A 
ATOM     20  C   UNL d   1      54.855  33.104  54.184  0.00  0.00     0.061 A 
ATOM     21  C   UNL d   1      55.211  33.948  55.562  0.00  0.00     0.000 A 
ATOM     22  C   UNL d   1      55.667  34.050  54.881  0.00  0.00     0.000 A 
ATOM     23  C   UNL d   1      55.491  33.631  54.196  0.00  0.00     0.005 A 
ATOM     24  C   UNL d   1      54.550  32.614  53.588  0.00  0.00     0.267 A 
ATOM     25  O   UNL d   1      54.841  32.548  52.825  0.00  0.00    -0.267 OA
ENDBRANCH   1  15
BRANCH   1  26
ATOM     26  C   UNL d   1      53.351  30.893  53.777  0.00  0.00     0.022 C 
ATOM     27  C   UNL d   1      52.746  30.692  54.294  0.00  0.00     0.002 C 
ATOM     28  C   UNL d   1      53.887  30.315  53.533  0.00  0.00     0.002 C 
ENDBRANCH   1  26
TORSDOF 5
ENDMDL
MODEL 3
REMARK VINA RESULT:      -7.8      1.876      4.461
REMARK  5 active torsions:
REMARK  status: ('A' for Active; 'I' for Inactive)
REMARK    1  A    between atoms: C_8  and  N_1 
REMARK    2  A    between atoms: S_4  and  C_10 
REMARK    3  A    between atoms: C_5  and  C_8 
REMARK       I    between atoms: N_9  and  C_5 
REMARK    4  A    between atoms: C_20  and  C_8 
REMARK    5  A    between atoms: C_19  and  N_9 
ROOT
ATOM      1  C   UNL d   1      52.822  34.018  53.358  0.00  0.00     0.140 C 
ENDROOT
BRANCH   1   2
ATOM      2  C   UNL d   1      53.365  33.485  53.041  0.00  0.00     0.344 C 
ATOM      3  N   UNL d   1      53.304  32.688  53.224  0.00  0.00    -0.363 NA
ATOM      4  O   UNL d   1      53.966  33.755  52.543  0.00  0.00    -0.249 OA
BRANCH   3   5
ATOM      5  C   UNL d   1      53.267  31.889  53.388  0.00  0.00     0.135 A 
ATOM      6  C   UNL d   1      52.885  31.360  52.884  0.00  0.00     0.033 A 
ATOM      7  C   UNL d   1      52.855  30.556  53.063  0.00  0.00     0.016 A 
ATOM      8  C   UNL d   1      53.215  30.281  53.760  0.00  0.00     0.107 A 
ATOM      9  C   UNL d   1      53.597  30.810  54.264  0.00  0.00     0.016 A 
ATOM     10  C   UNL d   1      53.622  31.614  54.077  0.00  0.00     0.033 A 
BRANCH   8  11
ATOM     11  S   UNL d   1      53.185  29.477  53.939  0.00  0.00     0.302 S 
ATOM     12  O   UNL d   1      53.972  29.467  54.026  0.00  0.00    -0.197 OA
ATOM     13  O   UNL d   1      52.365  29.491  53.849  0.00  0.00    -0.197 OA
ATOM     14  N   UNL d   1      53.152  28.676  54.117  0.00  0.00    -0.043 N 
ENDBRANCH   8  11
ENDBRANCH   3   5
ENDBRANCH   1   2
BRANCH   1  15
ATOM     15  N   UNL d   1      52.074  34.096  53.016  0.00  0.00    -0.236 N 
ATOM     16  C   UNL d   1      51.348  33.981  53.394  0.00  0.00     0.267 A 
ATOM     17  C   UNL d   1      50.744  34.118  52.841  0.00  0.00     0.061 A 
ATOM     18  O   UNL d   1      51.242  33.768  54.183  0.00  0.00    -0.267 OA
ATOM     19  C   UNL d   1      49.914  34.090  52.890  0.00  0.00     0.005 A 
ATOM     20  C   UNL d   1      51.102  34.319  52.114  0.00  0.00     0.061 A 
ATOM     21  C   UNL d   1      49.452  34.257  52.233  0.00  0.00     0.000 A 
ATOM     22  C   UNL d   1      49.811  34.456  51.516  0.00  0.00     0.000 A 
ATOM     23  C   UNL d   1      50.631  34.487  51.457  0.00  0.00     0.005 A 
ATOM     24  C   UNL d   1      51.924  34.306  52.221  0.00  0.00     0.267 A 
ATOM     25  O   UNL d   1      52.485  34.470  51.646  0.00  0.00    -0.267 OA
ENDBRANCH   1  15
BRANCH   1  26
ATOM     26  C   UNL d   1      53.028  34.466  54.008  0.00  0.00     0.022 C 
ATOM     27  C   UNL d   1      52.977  34.155  54.766  0.00  0.00     0.002 C 
ATOM     28  C   UNL d   1      53.290  35.241  53.904  0.00  0.00     0.002 C 
ENDBRANCH   1  26
TORSDOF 5
ENDMDL
MODEL 4
REMARK VINA RESULT:      -7.1      1.323      2.009
REMARK  5 active torsions:
REMARK  status: ('A' for Active; 'I' for Inactive)
REMARK    1  A    between atoms: C_8  and  N_1 
REMARK    2  A    between atoms: S_4  and  C_10 
REMARK    3  A    between atoms: C_5  and  C_8 
REMARK       I    between atoms: N_9  and  C_5 
REMARK    4  A    between atoms: C_20  and  C_8 
REMARK    5  A    between atoms: C_19  and  N_9 
ROOT
ATOM      1  C   UNL d   1      52.249  33.879  53.308  0.00  0.00     0.140 C 
ENDROOT
BRANCH   1   2
ATOM      2  C   UNL d   1      51.522  34.037  53.665  0.00  0.00     0.344 C 
ATOM      3  N   UNL d   1      50.879  34.241  53.200  0.00  0.00    -0.363 NA
ATOM      4  O   UNL d   1      51.448  33.990  54.486  0.00  0.00    -0.249 OA
BRANCH   3   5
ATOM      5  C   UNL d   1      50.222  34.447  52.762  0.00  0.00     0.135 A 
ATOM      6  C   UNL d   1      50.094  34.144  52.005  0.00  0.00     0.033 A 
ATOM      7  C   UNL d   1      49.425  34.360  51.573  0.00  0.00     0.016 A 
ATOM      8  C   UNL d   1      48.878  34.888  51.909  0.00  0.00     0.107 A 
ATOM      9  C   UNL d   1      49.006  35.190  52.665  0.00  0.00     0.016 A 
ATOM     10  C   UNL d   1      49.679  34.968  53.090  0.00  0.00     0.033 A 
BRANCH   8  11
ATOM     11  S   UNL d   1      48.210  35.104  51.477  0.00  0.00     0.302 S 
ATOM     12  O   UNL d   1      47.943  35.518  52.098  0.00  0.00    -0.197 OA
ATOM     13  O   UNL d   1      48.491  34.673  50.833  0.00  0.00    -0.197 OA
ATOM     14  N   UNL d   1      47.545  35.318  51.044  0.00  0.00    -0.043 N 
ENDBRANCH   8  11
ENDBRANCH   3   5
ENDBRANCH   1   2
BRANCH   1  15
ATOM     15  N   UNL d   1      52.567  33.117  53.342  0.00  0.00    -0.236 N 
ATOM     16  C   UNL d   1      52.434  32.506  52.801  0.00  0.00     0.267 A 
ATOM     17  C   UNL d   1      52.863  31.841  53.053  0.00  0.00     0.061 A 
ATOM     18  O   UNL d   1      51.958  32.550  52.130  0.00  0.00    -0.267 OA
ATOM     19  C   UNL d   1      52.950  31.073  52.744  0.00  0.00     0.005 A 
ATOM     20  C   UNL d   1      53.265  32.045  53.756  0.00  0.00     0.061 A 
ATOM     21  C   UNL d   1      53.423  30.523  53.125  0.00  0.00     0.000 A 
ATOM     22  C   UNL d   1      53.818  30.729  53.821  0.00  0.00     0.000 A 
ATOM     23  C   UNL d   1      53.740  31.485  54.134  0.00  0.00     0.005 A 
ATOM     24  C   UNL d   1      53.082  32.833  53.936  0.00  0.00     0.267 A 
ATOM     25  O   UNL d   1      53.360  33.255  54.582  0.00  0.00    -0.267 OA
ENDBRANCH   1  15
BRANCH   1  26
ATOM     26  C   UNL d   1      52.649  34.477  52.923  0.00  0.00     0.022 C 
ATOM     27  C   UNL d   1      52.737  34.467  52.107  0.00  0.00     0.002 C 
ATOM     28  C   UNL d   1      52.970  35.100  53.359  0.00  0.00     0.002 C 
ENDBRANCH   1  26
TORSDOF 5
ENDMDL
