MODEL 1
REMARK VINA RESULT:      -6.9      0.000      0.000
REMARK  5 active torsions:
REMARK  status: ('A' for Active; 'I' for Inactive)
REMARK    1  A    between atoms: C_14  and  N_4 
REMARK    2  A    between atoms: C_15  and  C_9 
REMARK    3  A    between atoms: O_20  and  C_12 
REMARK    4  A    between atoms: O_21  and  C_13 
REMARK    5  A    between atoms: C_18  and  C_14 
ROOT
ATOM      1  C   UNL d   1     -47.510  14.246  22.597  0.00  0.00     0.056 A 
ATOM      2  C   UNL d   1     -46.708  14.358  22.413  0.00  0.00     0.107 A 
ATOM      3  C   UNL d   1     -46.190  13.719  22.415  0.00  0.00     0.038 A 
ATOM      4  N   UNL d   1     -47.258  12.855  22.782  0.00  0.00    -0.304 N 
ATOM      5  N   UNL d   1     -46.599  15.162  22.253  0.00  0.00    -0.148 NA
ATOM      6  C   UNL d   1     -47.787  13.491  22.783  0.00  0.00     0.083 A 
ATOM      7  N   UNL d   1     -47.325  15.545  22.338  0.00  0.00    -0.148 NA
ATOM      8  C   UNL d   1     -46.467  12.963  22.601  0.00  0.00     0.068 A 
ATOM      9  C   UNL d   1     -47.891  14.984  22.550  0.00  0.00     0.106 A 
ATOM     10  C   UNL d   1     -45.945  12.331  22.601  0.00  0.00     0.044 A 
ATOM     11  C   UNL d   1     -45.396  13.833  22.232  0.00  0.00     0.029 A 
ATOM     12  C   UNL d   1     -45.154  12.438  22.420  0.00  0.00     0.118 A 
ATOM     13  C   UNL d   1     -44.878  13.194  22.234  0.00  0.00     0.116 A 
ENDROOT
BRANCH   4  14
ATOM     14  C   UNL d   1     -47.537  12.093  22.970  0.00  0.00     0.080 C 
BRANCH  14  15
ATOM     15  C   UNL d   1     -48.346  11.940  22.973  0.00  0.00     0.018 A 
ATOM     16  C   UNL d   1     -48.752  11.863  22.262  0.00  0.00     0.002 A 
ATOM     17  C   UNL d   1     -49.568  11.708  22.262  0.00  0.00     0.000 A 
ATOM     18  C   UNL d   1     -49.973  11.632  22.982  0.00  0.00     0.000 A 
ATOM     19  C   UNL d   1     -49.559  11.711  23.698  0.00  0.00     0.000 A 
ATOM     20  C   UNL d   1     -50.789  11.477  22.991  0.00  0.00     0.000 C 
ATOM     21  C   UNL d   1     -48.751  11.864  23.694  0.00  0.00     0.002 A 
ENDBRANCH  14  15
ENDBRANCH   4  14
BRANCH   9  22
ATOM     22  C   UNL d   1     -48.673  15.218  22.671  0.00  0.00     0.020 A 
ATOM     23  C   UNL d   1     -48.923  15.427  23.428  0.00  0.00     0.004 A 
ATOM     24  C   UNL d   1     -49.707  15.663  23.558  0.00  0.00     0.030 A 
ATOM     25  C   UNL d   1     -50.242  15.687  22.914  0.00  0.00     0.140 A 
ATOM     26  C   UNL d   1     -49.983  15.476  22.157  0.00  0.00     0.030 A 
ATOM     27  F   UNL d   1     -51.029  15.921  23.023  0.00  0.00    -0.204 F 
ATOM     28  C   UNL d   1     -49.202  15.242  22.036  0.00  0.00     0.004 A 
ENDBRANCH   9  22
BRANCH  12  29
ATOM     29  O   UNL d   1     -44.626  11.790  22.422  0.00  0.00    -0.326 OA
ATOM     30  C   UNL d   1     -44.655  11.230  23.029  0.00  0.00     0.181 C 
ENDBRANCH  12  29
BRANCH  13  31
ATOM     31  O   UNL d   1     -44.072  13.304  22.050  0.00  0.00    -0.326 OA
ATOM     32  C   UNL d   1     -43.812  13.228  21.269  0.00  0.00     0.181 C 
ENDBRANCH  13  31
TORSDOF 5
ENDMDL
