MODEL 1
REMARK VINA RESULT:      -3.5      0.000      0.000
REMARK  7 active torsions:
REMARK  status: ('A' for Active; 'I' for Inactive)
REMARK    1  A    between atoms: C_2  and  S_1 
REMARK    2  A    between atoms: N_8  and  S_1 
REMARK    3  A    between atoms: C_13  and  N_8 
REMARK    4  A    between atoms: N_9  and  C_14 
REMARK    5  A    between atoms: O_15  and  C_10 
REMARK    6  A    between atoms: C_14  and  C_13 
REMARK    7  A    between atoms: C_22  and  O_15 
ROOT
ATOM      1  C   UNL d   1      58.683  -0.733  29.638  0.00  0.00     0.105 A 
ATOM      2  C   UNL d   1      59.357  -0.477  29.254  0.00  0.00     0.014 A 
ATOM      3  C   UNL d   1      59.841  -1.015  28.859  0.00  0.00     0.024 A 
ATOM      4  C   UNL d   1      58.485  -1.537  29.631  0.00  0.00     0.015 A 
ATOM      5  C   UNL d   1      59.652  -1.810  28.848  0.00  0.00     0.100 A 
ATOM      6  C   UNL d   1      58.969  -2.076  29.236  0.00  0.00     0.025 A 
ATOM      7  C   UNL d   1      59.553   0.324  29.262  0.00  0.00     0.001 A 
ATOM      8  C   UNL d   1      60.521  -0.753  28.472  0.00  0.00     0.002 A 
ATOM      9  C   UNL d   1      60.232   0.588  28.876  0.00  0.00     0.000 A 
ATOM     10  C   UNL d   1      60.717   0.049  28.481  0.00  0.00     0.000 A 
ENDROOT
BRANCH   1  11
ATOM     11  S   UNL d   1      58.199  -0.194  30.033  0.00  0.00     0.285 S 
ATOM     12  O   UNL d   1      57.754  -0.085  29.338  0.00  0.00    -0.198 OA
ATOM     13  O   UNL d   1      58.635  -0.301  30.713  0.00  0.00    -0.198 OA
BRANCH  11  14
ATOM     14  N   UNL d   1      57.715   0.345  30.428  0.00  0.00    -0.155 NA
BRANCH  14  15
ATOM     15  C   UNL d   1      57.437   0.178  31.178  0.00  0.00     0.131 C 
BRANCH  15  16
ATOM     16  C   UNL d   1      56.893   0.680  31.543  0.00  0.00     0.102 C 
BRANCH  16  17
ATOM     17  N   UNL d   1      56.645   0.527  32.314  0.00  0.00    -0.298 N 
ATOM     18  C   UNL d   1      55.892   0.219  32.452  0.00  0.00     0.107 A 
ATOM     19  C   UNL d   1      55.639   0.065  33.226  0.00  0.00     0.142 A 
ATOM     20  O   UNL d   1      56.143   0.220  33.860  0.00  0.00    -0.300 OA
ATOM     21  C   UNL d   1      56.900   0.529  33.720  0.00  0.00     0.142 A 
ATOM     22  C   UNL d   1      57.149   0.682  32.948  0.00  0.00     0.107 A 
ENDBRANCH  16  17
ENDBRANCH  15  16
ENDBRANCH  14  15
ENDBRANCH  11  14
ENDBRANCH   1  11
BRANCH   5  23
ATOM     23  O   UNL d   1      60.131  -2.353  28.455  0.00  0.00    -0.305 OA
BRANCH  23  24
ATOM     24  C   UNL d   1      59.970  -3.160  28.495  0.00  0.00     0.123 C 
ATOM     25  C   UNL d   1      60.589  -3.704  28.520  0.00  0.00     0.029 C 
ENDBRANCH  23  24
ENDBRANCH   5  23
TORSDOF 7
ENDMDL
MODEL 2
REMARK VINA RESULT:      -0.6      8.808      9.282
REMARK  7 active torsions:
REMARK  status: ('A' for Active; 'I' for Inactive)
REMARK    1  A    between atoms: C_2  and  S_1 
REMARK    2  A    between atoms: N_8  and  S_1 
REMARK    3  A    between atoms: C_13  and  N_8 
REMARK    4  A    between atoms: N_9  and  C_14 
REMARK    5  A    between atoms: O_15  and  C_10 
REMARK    6  A    between atoms: C_14  and  C_13 
REMARK    7  A    between atoms: C_22  and  O_15 
ROOT
ATOM      1  C   UNL d   1      59.002  -9.676  32.295  0.00  0.00     0.105 A 
ATOM      2  C   UNL d   1      59.539  -9.715  31.681  0.00  0.00     0.014 A 
ATOM      3  C   UNL d   1      59.276  -9.746  30.900  0.00  0.00     0.024 A 
ATOM      4  C   UNL d   1      58.190  -9.667  32.133  0.00  0.00     0.015 A 
ATOM      5  C   UNL d   1      58.476  -9.737  30.733  0.00  0.00     0.100 A 
ATOM      6  C   UNL d   1      57.927  -9.698  31.352  0.00  0.00     0.025 A 
ATOM      7  C   UNL d   1      60.347  -9.724  31.845  0.00  0.00     0.001 A 
ATOM      8  C   UNL d   1      59.821  -9.786  30.282  0.00  0.00     0.002 A 
ATOM      9  C   UNL d   1      60.893  -9.764  31.227  0.00  0.00     0.000 A 
ATOM     10  C   UNL d   1      60.630  -9.794  30.446  0.00  0.00     0.000 A 
ENDROOT
BRANCH   1  11
ATOM     11  S   UNL d   1      59.265  -9.645  33.077  0.00  0.00     0.285 S 
ATOM     12  O   UNL d   1      58.496  -9.816  33.342  0.00  0.00    -0.198 OA
ATOM     13  O   UNL d   1      60.019  -9.477  32.816  0.00  0.00    -0.198 OA
BRANCH  11  14
ATOM     14  N   UNL d   1      59.528  -9.614  33.858  0.00  0.00    -0.155 NA
BRANCH  14  15
ATOM     15  C   UNL d   1      59.489  -8.915  34.280  0.00  0.00     0.131 C 
BRANCH  15  16
ATOM     16  C   UNL d   1      59.667  -8.903  35.085  0.00  0.00     0.102 C 
BRANCH  16  17
ATOM     17  N   UNL d   1      59.858  -8.192  35.455  0.00  0.00    -0.298 N 
ATOM     18  C   UNL d   1      60.607  -8.086  35.785  0.00  0.00     0.107 A 
ATOM     19  C   UNL d   1      60.802  -7.372  36.157  0.00  0.00     0.142 A 
ATOM     20  O   UNL d   1      60.245  -6.765  36.197  0.00  0.00    -0.300 OA
ATOM     21  C   UNL d   1      59.492  -6.872  35.865  0.00  0.00     0.142 A 
ATOM     22  C   UNL d   1      59.301  -7.585  35.495  0.00  0.00     0.107 A 
ENDBRANCH  16  17
ENDBRANCH  15  16
ENDBRANCH  14  15
ENDBRANCH  11  14
ENDBRANCH   1  11
BRANCH   5  23
ATOM     23  O   UNL d   1      58.207  -9.768  29.954  0.00  0.00    -0.305 OA
BRANCH  23  24
ATOM     24  C   UNL d   1      57.459  -9.486  29.758  0.00  0.00     0.123 C 
ATOM     25  C   UNL d   1      57.229  -9.438  28.968  0.00  0.00     0.029 C 
ENDBRANCH  23  24
ENDBRANCH   5  23
TORSDOF 7
ENDMDL
