MODEL 1
REMARK VINA RESULT:      -4.5      0.000      0.000
REMARK  5 active torsions:
REMARK  status: ('A' for Active; 'I' for Inactive)
REMARK    1  A    between atoms: C_6  and  C_1 
REMARK    2  A    between atoms: C_7  and  C_4 
REMARK    3  A    between atoms: O_14  and  C_6 
REMARK    4  A    between atoms: O_15  and  C_9 
REMARK    5  A    between atoms: O_16  and  C_10 
ROOT
ATOM      1  C   UNL d   1     -41.326-123.102 -52.088  0.00  0.00     0.027 A 
ATOM      2  C   UNL d   1     -41.302-122.372 -51.699  0.00  0.00     0.028 A 
ATOM      3  C   UNL d   1     -41.235-122.341 -50.881  0.00  0.00     0.116 A 
ATOM      4  C   UNL d   1     -41.190-123.042 -50.442  0.00  0.00     0.116 A 
ATOM      5  C   UNL d   1     -41.281-123.803 -51.650  0.00  0.00     0.004 A 
ATOM      6  C   UNL d   1     -41.213-123.768 -50.825  0.00  0.00     0.026 A 
ENDROOT
BRANCH   1   7
ATOM      7  C   UNL d   1     -41.394-123.135 -52.909  0.00  0.00     0.127 A 
ATOM      8  C   UNL d   1     -41.557-122.498 -53.402  0.00  0.00     0.054 A 
ATOM      9  C   UNL d   1     -41.575-122.776 -54.180  0.00  0.00     0.173 A 
ATOM     10  N   UNL d   1     -41.422-123.586 -54.160  0.00  0.00    -0.121 NA
ATOM     11  O   UNL d   1     -41.310-123.802 -53.371  0.00  0.00    -0.211 OA
BRANCH   9  12
ATOM     12  C   UNL d   1     -41.719-122.330 -54.852  0.00  0.00     0.316 C 
ATOM     13  O   UNL d   1     -41.132-121.827 -55.150  0.00  0.00    -0.257 OA
BRANCH  12  14
ATOM     14  O   UNL d   1     -42.448-122.379 -55.232  0.00  0.00    -0.294 OA
ATOM     15  C   UNL d   1     -42.557-122.002 -55.951  0.00  0.00     0.185 C 
ENDBRANCH  12  14
ENDBRANCH   9  12
ENDBRANCH   1   7
BRANCH   3  16
ATOM     16  O   UNL d   1     -41.212-121.615 -50.499  0.00  0.00    -0.326 OA
ATOM     17  C   UNL d   1     -41.446-120.935 -50.895  0.00  0.00     0.181 C 
ENDBRANCH   3  16
BRANCH   4  18
ATOM     18  O   UNL d   1     -41.123-123.008 -49.627  0.00  0.00    -0.326 OA
ATOM     19  C   UNL d   1     -41.234-123.689 -49.179  0.00  0.00     0.181 C 
ENDBRANCH   4  18
TORSDOF 5
ENDMDL
MODEL 2
REMARK VINA RESULT:      -4.4      1.527      2.354
REMARK  5 active torsions:
REMARK  status: ('A' for Active; 'I' for Inactive)
REMARK    1  A    between atoms: C_6  and  C_1 
REMARK    2  A    between atoms: C_7  and  C_4 
REMARK    3  A    between atoms: O_14  and  C_6 
REMARK    4  A    between atoms: O_15  and  C_9 
REMARK    5  A    between atoms: O_16  and  C_10 
ROOT
ATOM      1  C   UNL d   1     -41.663-123.119 -50.108  0.00  0.00     0.027 A 
ATOM      2  C   UNL d   1     -42.334-123.480 -49.784  0.00  0.00     0.028 A 
ATOM      3  C   UNL d   1     -42.465-123.458 -48.973  0.00  0.00     0.116 A 
ATOM      4  C   UNL d   1     -41.924-123.074 -48.477  0.00  0.00     0.116 A 
ATOM      5  C   UNL d   1     -41.123-122.735 -49.612  0.00  0.00     0.004 A 
ATOM      6  C   UNL d   1     -41.258-122.715 -48.795  0.00  0.00     0.026 A 
ENDROOT
BRANCH   1   7
ATOM      7  C   UNL d   1     -41.531-123.140 -50.922  0.00  0.00     0.127 A 
ATOM      8  C   UNL d   1     -41.650-122.515 -51.442  0.00  0.00     0.054 A 
ATOM      9  C   UNL d   1     -41.450-122.776 -52.201  0.00  0.00     0.173 A 
ATOM     10  N   UNL d   1     -41.208-123.562 -52.141  0.00  0.00    -0.121 NA
ATOM     11  O   UNL d   1     -41.261-123.782 -51.347  0.00  0.00    -0.211 OA
BRANCH   9  12
ATOM     12  C   UNL d   1     -41.484-122.334 -52.890  0.00  0.00     0.316 C 
ATOM     13  O   UNL d   1     -41.123-121.589 -52.925  0.00  0.00    -0.257 OA
BRANCH  12  14
ATOM     14  O   UNL d   1     -41.879-122.629 -53.550  0.00  0.00    -0.294 OA
ATOM     15  C   UNL d   1     -41.901-122.187 -54.241  0.00  0.00     0.185 C 
ENDBRANCH  12  14
ENDBRANCH   9  12
ENDBRANCH   1   7
BRANCH   3  16
ATOM     16  O   UNL d   1     -43.131-123.817 -48.655  0.00  0.00    -0.326 OA
ATOM     17  C   UNL d   1     -43.843-123.797 -49.065  0.00  0.00     0.181 C 
ENDBRANCH   3  16
BRANCH   4  18
ATOM     18  O   UNL d   1     -42.057-123.054 -47.669  0.00  0.00    -0.326 OA
ATOM     19  C   UNL d   1     -41.422-123.114 -47.149  0.00  0.00     0.181 C 
ENDBRANCH   4  18
TORSDOF 5
ENDMDL
MODEL 3
REMARK VINA RESULT:      -3.9      1.363      4.156
REMARK  5 active torsions:
REMARK  status: ('A' for Active; 'I' for Inactive)
REMARK    1  A    between atoms: C_6  and  C_1 
REMARK    2  A    between atoms: C_7  and  C_4 
REMARK    3  A    between atoms: O_14  and  C_6 
REMARK    4  A    between atoms: O_15  and  C_9 
REMARK    5  A    between atoms: O_16  and  C_10 
ROOT
ATOM      1  C   UNL d   1     -41.382-122.647 -52.491  0.00  0.00     0.027 A 
ATOM      2  C   UNL d   1     -41.603-122.047 -53.017  0.00  0.00     0.028 A 
ATOM      3  C   UNL d   1     -41.584-122.181 -53.827  0.00  0.00     0.116 A 
ATOM      4  C   UNL d   1     -41.343-122.917 -54.120  0.00  0.00     0.116 A 
ATOM      5  C   UNL d   1     -41.141-123.383 -52.783  0.00  0.00     0.004 A 
ATOM      6  C   UNL d   1     -41.123-123.514 -53.601  0.00  0.00     0.026 A 
ENDROOT
BRANCH   1   7
ATOM      7  C   UNL d   1     -41.400-122.514 -51.677  0.00  0.00     0.127 A 
ATOM      8  C   UNL d   1     -41.677-123.043 -51.112  0.00  0.00     0.054 A 
ATOM      9  C   UNL d   1     -41.595-122.688 -50.370  0.00  0.00     0.173 A 
ATOM     10  N   UNL d   1     -41.266-121.940 -50.484  0.00  0.00    -0.121 NA
ATOM     11  O   UNL d   1     -41.148-121.839 -51.295  0.00  0.00    -0.211 OA
BRANCH   9  12
ATOM     12  C   UNL d   1     -41.801-123.018 -49.649  0.00  0.00     0.316 C 
ATOM     13  O   UNL d   1     -41.320-123.598 -49.304  0.00  0.00    -0.257 OA
BRANCH  12  14
ATOM     14  O   UNL d   1     -42.488-122.774 -49.265  0.00  0.00    -0.294 OA
ATOM     15  C   UNL d   1     -42.833-123.261 -48.702  0.00  0.00     0.185 C 
ENDBRANCH  12  14
ENDBRANCH   9  12
ENDBRANCH   1   7
BRANCH   3  16
ATOM     16  O   UNL d   1     -41.804-121.584 -54.347  0.00  0.00    -0.326 OA
ATOM     17  C   UNL d   1     -42.561-121.268 -54.310  0.00  0.00     0.181 C 
ENDBRANCH   3  16
BRANCH   4  18
ATOM     18  O   UNL d   1     -41.325-123.048 -54.929  0.00  0.00    -0.326 OA
ATOM     19  C   UNL d   1     -41.343-123.817 -55.219  0.00  0.00     0.181 C 
ENDBRANCH   4  18
TORSDOF 5
ENDMDL
MODEL 4
REMARK VINA RESULT:      -3.9      1.793      4.425
REMARK  5 active torsions:
REMARK  status: ('A' for Active; 'I' for Inactive)
REMARK    1  A    between atoms: C_6  and  C_1 
REMARK    2  A    between atoms: C_7  and  C_4 
REMARK    3  A    between atoms: O_14  and  C_6 
REMARK    4  A    between atoms: O_15  and  C_9 
REMARK    5  A    between atoms: O_16  and  C_10 
ROOT
ATOM      1  C   UNL d   1     -41.547-122.964 -51.044  0.00  0.00     0.027 A 
ATOM      2  C   UNL d   1     -41.456-122.156 -51.198  0.00  0.00     0.028 A 
ATOM      3  C   UNL d   1     -41.341-121.891 -51.967  0.00  0.00     0.116 A 
ATOM      4  C   UNL d   1     -41.316-122.434 -52.592  0.00  0.00     0.116 A 
ATOM      5  C   UNL d   1     -41.522-123.507 -51.669  0.00  0.00     0.004 A 
ATOM      6  C   UNL d   1     -41.406-123.237 -52.443  0.00  0.00     0.026 A 
ENDROOT
BRANCH   1   7
ATOM      7  C   UNL d   1     -41.663-123.231 -50.272  0.00  0.00     0.127 A 
ATOM      8  C   UNL d   1     -42.333-123.099 -49.815  0.00  0.00     0.054 A 
ATOM      9  C   UNL d   1     -42.216-123.462 -49.082  0.00  0.00     0.173 A 
ATOM     10  N   UNL d   1     -41.471-123.817 -49.093  0.00  0.00    -0.121 NA
ATOM     11  O   UNL d   1     -41.134-123.670 -49.832  0.00  0.00    -0.211 OA
BRANCH   9  12
ATOM     12  C   UNL d   1     -42.744-123.470 -48.455  0.00  0.00     0.316 C 
ATOM     13  O   UNL d   1     -43.542-123.651 -48.585  0.00  0.00    -0.257 OA
BRANCH  12  14
ATOM     14  O   UNL d   1     -42.482-123.298 -47.693  0.00  0.00    -0.294 OA
ATOM     15  C   UNL d   1     -43.024-123.086 -47.116  0.00  0.00     0.185 C 
ENDBRANCH  12  14
ENDBRANCH   9  12
ENDBRANCH   1   7
BRANCH   3  16
ATOM     16  O   UNL d   1     -41.251-121.089 -52.115  0.00  0.00    -0.326 OA
ATOM     17  C   UNL d   1     -41.123-120.569 -51.493  0.00  0.00     0.181 C 
ENDBRANCH   3  16
BRANCH   4  18
ATOM     18  O   UNL d   1     -41.201-122.167 -53.358  0.00  0.00    -0.326 OA
ATOM     19  C   UNL d   1     -41.337-122.674 -53.992  0.00  0.00     0.181 C 
ENDBRANCH   4  18
TORSDOF 5
ENDMDL
