MODEL 1
REMARK VINA RESULT:       0.6      0.000      0.000
REMARK  4 active torsions:
REMARK  status: ('A' for Active; 'I' for Inactive)
REMARK    1  A    between atoms: N_5  and  C_1 
REMARK    2  A    between atoms: N_8  and  C_3 
REMARK    3  A    between atoms: C_13  and  N_8 
REMARK    4  A    between atoms: C_12  and  C_13 
ROOT
ATOM      1  C   UNL d   1      32.671  20.928 -21.808  0.00  0.00     0.200 A 
ATOM      2  C   UNL d   1      32.563  21.733 -21.672  0.00  0.00     0.288 A 
ATOM      3  C   UNL d   1      32.868  20.649 -22.568  0.00  0.00     0.109 A 
ATOM      4  N   UNL d   1      32.653  22.270 -22.299  0.00  0.00    -0.270 N 
ATOM      5  C   UNL d   1      32.957  21.192 -23.190  0.00  0.00     0.036 A 
ATOM      6  C   UNL d   1      32.849  22.001 -23.054  0.00  0.00     0.069 A 
ATOM      7  O   UNL d   1      32.368  22.002 -20.918  0.00  0.00    -0.265 OA
ATOM      8  C   UNL d   1      32.546  23.075 -22.164  0.00  0.00     0.102 C 
ATOM      9  C   UNL d   1      33.153  20.923 -23.945  0.00  0.00     0.003 A 
ATOM     10  C   UNL d   1      32.938  22.537 -23.674  0.00  0.00     0.018 A 
ATOM     11  C   UNL d   1      33.241  21.463 -24.564  0.00  0.00     0.000 A 
ATOM     12  C   UNL d   1      33.133  22.268 -24.429  0.00  0.00     0.002 A 
ENDROOT
BRANCH   3  13
ATOM     13  N   UNL d   1      32.976  19.844 -22.704  0.00  0.00    -0.242 NA
BRANCH  13  14
ATOM     14  C   UNL d   1      32.422  19.422 -23.146  0.00  0.00     0.100 C 
BRANCH  14  15
ATOM     15  C   UNL d   1      32.498  18.606 -23.231  0.00  0.00     0.030 A 
ATOM     16  C   UNL d   1      31.902  18.180 -23.611  0.00  0.00     0.059 A 
ATOM     17 CL   UNL d   1      31.234  18.563 -23.905  0.00  0.00    -0.082 Cl
ATOM     18  C   UNL d   1      31.977  17.365 -23.697  0.00  0.00     0.011 A 
ATOM     19  C   UNL d   1      32.649  16.975 -23.402  0.00  0.00     0.001 A 
ATOM     20  C   UNL d   1      33.241  17.408 -23.023  0.00  0.00     0.000 A 
ATOM     21  C   UNL d   1      33.165  18.224 -22.938  0.00  0.00     0.002 A 
ENDBRANCH  14  15
ENDBRANCH  13  14
ENDBRANCH   3  13
BRANCH   1  22
ATOM     22  N   UNL d   1      32.582  20.385 -21.186  0.00  0.00    -0.107 N 
ATOM     23  O   UNL d   1      31.838  20.075 -21.015  0.00  0.00    -0.531 OA
ATOM     24  O   UNL d   1      33.239  20.155 -20.738  0.00  0.00    -0.531 OA
ENDBRANCH   1  22
TORSDOF 4
ENDMDL
MODEL 2
REMARK VINA RESULT:       0.9      2.464      4.846
REMARK  4 active torsions:
REMARK  status: ('A' for Active; 'I' for Inactive)
REMARK    1  A    between atoms: N_5  and  C_1 
REMARK    2  A    between atoms: N_8  and  C_3 
REMARK    3  A    between atoms: C_13  and  N_8 
REMARK    4  A    between atoms: C_12  and  C_13 
ROOT
ATOM      1  C   UNL d   1      30.556  17.579 -24.419  0.00  0.00     0.200 A 
ATOM      2  C   UNL d   1      30.141  16.879 -24.547  0.00  0.00     0.288 A 
ATOM      3  C   UNL d   1      31.389  17.581 -24.399  0.00  0.00     0.109 A 
ATOM      4  N   UNL d   1      30.560  16.170 -24.656  0.00  0.00    -0.270 N 
ATOM      5  C   UNL d   1      31.800  16.867 -24.509  0.00  0.00     0.036 A 
ATOM      6  C   UNL d   1      31.385  16.164 -24.637  0.00  0.00     0.069 A 
ATOM      7  O   UNL d   1      29.317  16.884 -24.566  0.00  0.00    -0.265 OA
ATOM      8  C   UNL d   1      30.146  15.469 -24.784  0.00  0.00     0.102 C 
ATOM      9  C   UNL d   1      32.624  16.862 -24.490  0.00  0.00     0.003 A 
ATOM     10  C   UNL d   1      31.795  15.458 -24.746  0.00  0.00     0.018 A 
ATOM     11  C   UNL d   1      33.034  16.153 -24.599  0.00  0.00     0.000 A 
ATOM     12  C   UNL d   1      32.620  15.453 -24.727  0.00  0.00     0.002 A 
ENDROOT
BRANCH   3  13
ATOM     13  N   UNL d   1      31.804  18.280 -24.271  0.00  0.00    -0.242 NA
BRANCH  13  14
ATOM     14  C   UNL d   1      32.224  18.390 -23.570  0.00  0.00     0.100 C 
BRANCH  14  15
ATOM     15  C   UNL d   1      32.562  19.122 -23.402  0.00  0.00     0.030 A 
ATOM     16  C   UNL d   1      32.895  19.255 -22.659  0.00  0.00     0.059 A 
ATOM     17 CL   UNL d   1      32.892  18.663 -22.086  0.00  0.00    -0.082 Cl
ATOM     18  C   UNL d   1      33.234  19.986 -22.491  0.00  0.00     0.011 A 
ATOM     19  C   UNL d   1      33.239  20.585 -23.066  0.00  0.00     0.001 A 
ATOM     20  C   UNL d   1      32.904  20.445 -23.807  0.00  0.00     0.000 A 
ATOM     21  C   UNL d   1      32.566  19.713 -23.975  0.00  0.00     0.002 A 
ENDBRANCH  14  15
ENDBRANCH  13  14
ENDBRANCH   3  13
BRANCH   1  22
ATOM     22  N   UNL d   1      30.145  18.292 -24.309  0.00  0.00    -0.107 N 
ATOM     23  O   UNL d   1      29.836  18.476 -23.568  0.00  0.00    -0.531 OA
ATOM     24  O   UNL d   1      30.046  18.817 -24.941  0.00  0.00    -0.531 OA
ENDBRANCH   1  22
TORSDOF 4
ENDMDL
MODEL 3
REMARK VINA RESULT:       2.1      1.709      2.457
REMARK  4 active torsions:
REMARK  status: ('A' for Active; 'I' for Inactive)
REMARK    1  A    between atoms: N_5  and  C_1 
REMARK    2  A    between atoms: N_8  and  C_3 
REMARK    3  A    between atoms: C_13  and  N_8 
REMARK    4  A    between atoms: C_12  and  C_13 
ROOT
ATOM      1  C   UNL d   1      32.885  20.261 -23.851  0.00  0.00     0.200 A 
ATOM      2  C   UNL d   1      32.875  21.009 -23.506  0.00  0.00     0.288 A 
ATOM      3  C   UNL d   1      32.980  19.579 -23.382  0.00  0.00     0.109 A 
ATOM      4  N   UNL d   1      32.959  21.081 -22.683  0.00  0.00    -0.270 N 
ATOM      5  C   UNL d   1      33.063  19.660 -22.559  0.00  0.00     0.036 A 
ATOM      6  C   UNL d   1      33.053  20.411 -22.212  0.00  0.00     0.069 A 
ATOM      7  O   UNL d   1      32.781  21.679 -23.977  0.00  0.00    -0.265 OA
ATOM      8  C   UNL d   1      32.949  21.829 -22.338  0.00  0.00     0.102 C 
ATOM      9  C   UNL d   1      33.157  18.990 -22.088  0.00  0.00     0.003 A 
ATOM     10  C   UNL d   1      33.137  20.488 -21.396  0.00  0.00     0.018 A 
ATOM     11  C   UNL d   1      33.241  19.069 -21.270  0.00  0.00     0.000 A 
ATOM     12  C   UNL d   1      33.230  19.817 -20.925  0.00  0.00     0.002 A 
ENDROOT
BRANCH   3  13
ATOM     13  N   UNL d   1      32.990  18.831 -23.725  0.00  0.00    -0.242 NA
BRANCH  13  14
ATOM     14  C   UNL d   1      32.284  18.421 -23.846  0.00  0.00     0.100 C 
BRANCH  14  15
ATOM     15  C   UNL d   1      32.297  17.608 -23.974  0.00  0.00     0.030 A 
ATOM     16  C   UNL d   1      31.586  17.191 -24.009  0.00  0.00     0.059 A 
ATOM     17 CL   UNL d   1      30.866  17.581 -23.917  0.00  0.00    -0.082 Cl
ATOM     18  C   UNL d   1      31.597  16.378 -24.137  0.00  0.00     0.011 A 
ATOM     19  C   UNL d   1      32.322  15.981 -24.230  0.00  0.00     0.001 A 
ATOM     20  C   UNL d   1      33.029  16.405 -24.194  0.00  0.00     0.000 A 
ATOM     21  C   UNL d   1      33.016  17.218 -24.066  0.00  0.00     0.002 A 
ENDBRANCH  14  15
ENDBRANCH  13  14
ENDBRANCH   3  13
BRANCH   1  22
ATOM     22  N   UNL d   1      32.801  20.180 -24.673  0.00  0.00    -0.107 N 
ATOM     23  O   UNL d   1      32.279  20.669 -25.082  0.00  0.00    -0.531 OA
ATOM     24  O   UNL d   1      33.241  19.610 -25.082  0.00  0.00    -0.531 OA
ENDBRANCH   1  22
TORSDOF 4
ENDMDL
MODEL 4
REMARK VINA RESULT:       2.7      1.102      1.567
REMARK  4 active torsions:
REMARK  status: ('A' for Active; 'I' for Inactive)
REMARK    1  A    between atoms: N_5  and  C_1 
REMARK    2  A    between atoms: N_8  and  C_3 
REMARK    3  A    between atoms: C_13  and  N_8 
REMARK    4  A    between atoms: C_12  and  C_13 
ROOT
ATOM      1  C   UNL d   1      32.963  19.428 -22.351  0.00  0.00     0.200 A 
ATOM      2  C   UNL d   1      33.055  20.213 -22.115  0.00  0.00     0.288 A 
ATOM      3  C   UNL d   1      32.962  19.225 -23.159  0.00  0.00     0.109 A 
ATOM      4  N   UNL d   1      33.148  20.804 -22.691  0.00  0.00    -0.270 N 
ATOM      5  C   UNL d   1      33.055  19.823 -23.728  0.00  0.00     0.036 A 
ATOM      6  C   UNL d   1      33.148  20.610 -23.493  0.00  0.00     0.069 A 
ATOM      7  O   UNL d   1      33.054  20.406 -21.314  0.00  0.00    -0.265 OA
ATOM      8  C   UNL d   1      33.240  21.588 -22.456  0.00  0.00     0.102 C 
ATOM      9  C   UNL d   1      33.056  19.630 -24.530  0.00  0.00     0.003 A 
ATOM     10  C   UNL d   1      33.240  21.201 -24.060  0.00  0.00     0.018 A 
ATOM     11  C   UNL d   1      33.149  20.223 -25.097  0.00  0.00     0.000 A 
ATOM     12  C   UNL d   1      33.241  21.007 -24.862  0.00  0.00     0.002 A 
ENDROOT
BRANCH   3  13
ATOM     13  N   UNL d   1      32.870  18.442 -23.395  0.00  0.00    -0.242 NA
BRANCH  13  14
ATOM     14  C   UNL d   1      32.145  18.181 -23.690  0.00  0.00     0.100 C 
BRANCH  14  15
ATOM     15  C   UNL d   1      32.053  17.396 -23.920  0.00  0.00     0.030 A 
ATOM     16  C   UNL d   1      31.366  17.167 -24.315  0.00  0.00     0.059 A 
ATOM     17 CL   UNL d   1      30.774  17.716 -24.481  0.00  0.00    -0.082 Cl
ATOM     18  C   UNL d   1      31.272  16.382 -24.546  0.00  0.00     0.011 A 
ATOM     19  C   UNL d   1      31.867  15.826 -24.381  0.00  0.00     0.001 A 
ATOM     20  C   UNL d   1      32.551  16.062 -23.985  0.00  0.00     0.000 A 
ATOM     21  C   UNL d   1      32.644  16.848 -23.755  0.00  0.00     0.002 A 
ENDBRANCH  14  15
ENDBRANCH  13  14
ENDBRANCH   3  13
BRANCH   1  22
ATOM     22  N   UNL d   1      32.869  18.831 -21.782  0.00  0.00    -0.107 N 
ATOM     23  O   UNL d   1      32.406  18.969 -21.115  0.00  0.00    -0.531 OA
ATOM     24  O   UNL d   1      33.240  18.099 -21.882  0.00  0.00    -0.531 OA
ENDBRANCH   1  22
TORSDOF 4
ENDMDL
