MODEL 1
REMARK VINA RESULT:      -5.4      0.000      0.000
REMARK  8 active torsions:
REMARK  status: ('A' for Active; 'I' for Inactive)
REMARK    1  A    between atoms: S_3  and  C_1 
REMARK    2  A    between atoms: C_7  and  C_2 
REMARK    3  A    between atoms: N_9  and  S_3 
REMARK    4  A    between atoms: C_8  and  C_6 
REMARK    5  A    between atoms: O_21  and  C_7 
REMARK    6  A    between atoms: O_22  and  C_8 
REMARK    7  A    between atoms: C_14  and  N_9 
REMARK    8  A    between atoms: C_10  and  C_14 
ROOT
ATOM      1  C   UNL d   1     -47.553  13.600  22.661  0.00  0.00     0.140 A 
ATOM      2  C   UNL d   1     -48.197  13.117  22.806  0.00  0.00     0.082 A 
ATOM      3  C   UNL d   1     -48.868  13.596  22.896  0.00  0.00     0.018 A 
ATOM      4  S   UNL d   1     -47.831  14.372  22.662  0.00  0.00    -0.069 SA
ATOM      5  C   UNL d   1     -48.630  14.351  22.806  0.00  0.00     0.093 A 
ATOM      6  C   UNL d   1     -49.630  13.368  23.047  0.00  0.00     0.001 C 
ENDROOT
BRANCH   1   7
ATOM      7  S   UNL d   1     -46.824  13.263  22.551  0.00  0.00     0.291 S 
ATOM      8  O   UNL d   1     -46.617  13.454  23.342  0.00  0.00    -0.198 OA
ATOM      9  O   UNL d   1     -47.006  13.073  21.792  0.00  0.00    -0.198 OA
BRANCH   7  10
ATOM     10  N   UNL d   1     -46.078  12.923  22.453  0.00  0.00    -0.156 NA
BRANCH  10  11
ATOM     11  C   UNL d   1     -45.427  13.386  22.237  0.00  0.00     0.119 C 
BRANCH  11  12
ATOM     12  C   UNL d   1     -44.716  13.022  22.031  0.00  0.00     0.049 A 
ATOM     13  S   UNL d   1     -44.171  13.255  21.449  0.00  0.00    -0.085 SA
ATOM     14  C   UNL d   1     -43.550  12.727  21.444  0.00  0.00     0.035 A 
ATOM     15  C   UNL d   1     -43.695  12.155  22.021  0.00  0.00     0.007 A 
ATOM     16  C   UNL d   1     -44.418  12.342  22.382  0.00  0.00     0.009 A 
ENDBRANCH  11  12
ENDBRANCH  10  11
ENDBRANCH   7  10
ENDBRANCH   1   7
BRANCH   2  17
ATOM     17  C   UNL d   1     -48.200  12.286  22.858  0.00  0.00     0.297 C 
ATOM     18  O   UNL d   1     -48.296  11.831  22.180  0.00  0.00    -0.259 OA
BRANCH  17  19
ATOM     19  O   UNL d   1     -48.106  11.925  23.598  0.00  0.00    -0.296 OA
ATOM     20  C   UNL d   1     -48.268  11.129  23.690  0.00  0.00     0.185 C 
ENDBRANCH  17  19
ENDBRANCH   2  17
BRANCH   5  21
ATOM     21  C   UNL d   1     -49.146  15.024  22.857  0.00  0.00     0.302 C 
ATOM     22  O   UNL d   1     -49.146  15.556  22.243  0.00  0.00    -0.259 OA
BRANCH  21  23
ATOM     23  O   UNL d   1     -49.636  15.128  23.519  0.00  0.00    -0.295 OA
ATOM     24  C   UNL d   1     -49.950  15.869  23.698  0.00  0.00     0.185 C 
ENDBRANCH  21  23
ENDBRANCH   5  21
TORSDOF 8
ENDMDL
MODEL 2
REMARK VINA RESULT:      -4.9      1.342      4.302
REMARK  8 active torsions:
REMARK  status: ('A' for Active; 'I' for Inactive)
REMARK    1  A    between atoms: S_3  and  C_1 
REMARK    2  A    between atoms: C_7  and  C_2 
REMARK    3  A    between atoms: N_9  and  S_3 
REMARK    4  A    between atoms: C_8  and  C_6 
REMARK    5  A    between atoms: O_21  and  C_7 
REMARK    6  A    between atoms: O_22  and  C_8 
REMARK    7  A    between atoms: C_14  and  N_9 
REMARK    8  A    between atoms: C_10  and  C_14 
ROOT
ATOM      1  C   UNL d   1     -47.260  13.529  22.634  0.00  0.00     0.140 A 
ATOM      2  C   UNL d   1     -47.090  12.733  22.717  0.00  0.00     0.082 A 
ATOM      3  C   UNL d   1     -46.282  12.623  22.571  0.00  0.00     0.018 A 
ATOM      4  S   UNL d   1     -46.557  13.903  22.438  0.00  0.00    -0.069 SA
ATOM      5  C   UNL d   1     -45.974  13.339  22.405  0.00  0.00     0.093 A 
ATOM      6  C   UNL d   1     -45.859  11.933  22.588  0.00  0.00     0.001 C 
ENDROOT
BRANCH   1   7
ATOM      7  S   UNL d   1     -48.022  13.784  22.748  0.00  0.00     0.291 S 
ATOM      8  O   UNL d   1     -48.109  13.896  21.922  0.00  0.00    -0.198 OA
ATOM      9  O   UNL d   1     -47.955  13.683  23.542  0.00  0.00    -0.198 OA
BRANCH   7  10
ATOM     10  N   UNL d   1     -48.798  14.045  22.851  0.00  0.00    -0.156 NA
BRANCH  10  11
ATOM     11  C   UNL d   1     -48.961  14.844  22.994  0.00  0.00     0.119 C 
BRANCH  11  12
ATOM     12  C   UNL d   1     -49.728  15.078  23.186  0.00  0.00     0.049 A 
ATOM     13  S   UNL d   1     -49.969  15.762  23.589  0.00  0.00    -0.085 SA
ATOM     14  C   UNL d   1     -50.782  15.759  23.651  0.00  0.00     0.035 A 
ATOM     15  C   UNL d   1     -51.063  15.073  23.288  0.00  0.00     0.007 A 
ATOM     16  C   UNL d   1     -50.407  14.655  23.001  0.00  0.00     0.009 A 
ENDBRANCH  11  12
ENDBRANCH  10  11
ENDBRANCH   7  10
ENDBRANCH   1   7
BRANCH   2  17
ATOM     17  C   UNL d   1     -47.622  12.123  22.913  0.00  0.00     0.297 C 
ATOM     18  O   UNL d   1     -47.697  11.878  23.693  0.00  0.00    -0.259 OA
BRANCH  17  19
ATOM     19  O   UNL d   1     -48.073  11.770  22.314  0.00  0.00    -0.296 OA
ATOM     20  C   UNL d   1     -48.468  11.069  22.458  0.00  0.00     0.185 C 
ENDBRANCH  17  19
ENDBRANCH   2  17
BRANCH   5  21
ATOM     21  C   UNL d   1     -45.156  13.476  22.221  0.00  0.00     0.302 C 
ATOM     22  O   UNL d   1     -44.811  14.160  22.490  0.00  0.00    -0.259 OA
BRANCH  21  23
ATOM     23  O   UNL d   1     -44.726  12.921  21.778  0.00  0.00    -0.295 OA
ATOM     24  C   UNL d   1     -43.951  13.077  21.544  0.00  0.00     0.185 C 
ENDBRANCH  21  23
ENDBRANCH   5  21
TORSDOF 8
ENDMDL
MODEL 3
REMARK VINA RESULT:      -4.5      7.756      9.438
REMARK  8 active torsions:
REMARK  status: ('A' for Active; 'I' for Inactive)
REMARK    1  A    between atoms: S_3  and  C_1 
REMARK    2  A    between atoms: C_7  and  C_2 
REMARK    3  A    between atoms: N_9  and  S_3 
REMARK    4  A    between atoms: C_8  and  C_6 
REMARK    5  A    between atoms: O_21  and  C_7 
REMARK    6  A    between atoms: O_22  and  C_8 
REMARK    7  A    between atoms: C_14  and  N_9 
REMARK    8  A    between atoms: C_10  and  C_14 
ROOT
ATOM      1  C   UNL d   1     -39.012  14.376  19.207  0.00  0.00     0.140 A 
ATOM      2  C   UNL d   1     -39.707  14.636  18.862  0.00  0.00     0.082 A 
ATOM      3  C   UNL d   1     -39.605  14.636  18.040  0.00  0.00     0.018 A 
ATOM      4  S   UNL d   1     -38.488  14.218  18.596  0.00  0.00    -0.069 SA
ATOM      5  C   UNL d   1     -38.864  14.382  17.895  0.00  0.00     0.093 A 
ATOM      6  C   UNL d   1     -40.138  14.849  17.469  0.00  0.00     0.001 C 
ENDROOT
BRANCH   1   7
ATOM      7  S   UNL d   1     -38.968  14.325  20.015  0.00  0.00     0.291 S 
ATOM      8  O   UNL d   1     -39.273  13.544  19.983  0.00  0.00    -0.198 OA
ATOM      9  O   UNL d   1     -38.675  15.071  20.065  0.00  0.00    -0.198 OA
BRANCH   7  10
ATOM     10  N   UNL d   1     -38.929  14.260  20.837  0.00  0.00    -0.156 NA
BRANCH  10  11
ATOM     11  C   UNL d   1     -38.272  13.915  21.204  0.00  0.00     0.119 C 
BRANCH  11  12
ATOM     12  C   UNL d   1     -38.269  13.805  22.022  0.00  0.00     0.049 A 
ATOM     13  S   UNL d   1     -38.197  13.093  22.442  0.00  0.00    -0.085 SA
ATOM     14  C   UNL d   1     -38.223  13.255  23.241  0.00  0.00     0.035 A 
ATOM     15  C   UNL d   1     -38.312  14.070  23.333  0.00  0.00     0.007 A 
ATOM     16  C   UNL d   1     -38.340  14.406  22.575  0.00  0.00     0.009 A 
ENDBRANCH  11  12
ENDBRANCH  10  11
ENDBRANCH   7  10
ENDBRANCH   1   7
BRANCH   2  17
ATOM     17  C   UNL d   1     -40.406  14.865  19.252  0.00  0.00     0.297 C 
ATOM     18  O   UNL d   1     -40.957  14.298  19.476  0.00  0.00    -0.259 OA
BRANCH  17  19
ATOM     19  O   UNL d   1     -40.539  15.668  19.409  0.00  0.00    -0.296 OA
ATOM     20  C   UNL d   1     -41.279  15.922  19.645  0.00  0.00     0.185 C 
ENDBRANCH  17  19
ENDBRANCH   2  17
BRANCH   5  21
ATOM     21  C   UNL d   1     -38.531  14.299  17.118  0.00  0.00     0.302 C 
ATOM     22  O   UNL d   1     -38.378  14.972  16.692  0.00  0.00    -0.259 OA
BRANCH  21  23
ATOM     23  O   UNL d   1     -38.368  13.546  16.809  0.00  0.00    -0.295 OA
ATOM     24  C   UNL d   1     -37.953  13.461  16.102  0.00  0.00     0.185 C 
ENDBRANCH  21  23
ENDBRANCH   5  21
TORSDOF 8
ENDMDL
MODEL 4
REMARK VINA RESULT:      -4.2      1.678      2.498
REMARK  8 active torsions:
REMARK  status: ('A' for Active; 'I' for Inactive)
REMARK    1  A    between atoms: S_3  and  C_1 
REMARK    2  A    between atoms: C_7  and  C_2 
REMARK    3  A    between atoms: N_9  and  S_3 
REMARK    4  A    between atoms: C_8  and  C_6 
REMARK    5  A    between atoms: O_21  and  C_7 
REMARK    6  A    between atoms: O_22  and  C_8 
REMARK    7  A    between atoms: C_14  and  N_9 
REMARK    8  A    between atoms: C_10  and  C_14 
ROOT
ATOM      1  C   UNL d   1     -47.092  12.810  22.760  0.00  0.00     0.140 A 
ATOM      2  C   UNL d   1     -47.130  13.627  22.791  0.00  0.00     0.082 A 
ATOM      3  C   UNL d   1     -47.916  13.855  22.662  0.00  0.00     0.018 A 
ATOM      4  S   UNL d   1     -47.853  12.542  22.612  0.00  0.00    -0.069 SA
ATOM      5  C   UNL d   1     -48.340  13.189  22.556  0.00  0.00     0.093 A 
ATOM      6  C   UNL d   1     -48.223  14.604  22.643  0.00  0.00     0.001 C 
ENDROOT
BRANCH   1   7
ATOM      7  S   UNL d   1     -46.377  12.444  22.870  0.00  0.00     0.291 S 
ATOM      8  O   UNL d   1     -46.303  12.338  22.041  0.00  0.00    -0.198 OA
ATOM      9  O   UNL d   1     -46.431  12.537  23.666  0.00  0.00    -0.198 OA
BRANCH   7  10
ATOM     10  N   UNL d   1     -45.648  12.070  22.968  0.00  0.00    -0.156 NA
BRANCH  10  11
ATOM     11  C   UNL d   1     -45.584  11.373  23.410  0.00  0.00     0.119 C 
BRANCH  11  12
ATOM     12  C   UNL d   1     -44.865  10.970  23.441  0.00  0.00     0.049 A 
ATOM     13  S   UNL d   1     -44.112  11.250  23.233  0.00  0.00    -0.085 SA
ATOM     14  C   UNL d   1     -43.567  10.655  23.355  0.00  0.00     0.035 A 
ATOM     15  C   UNL d   1     -43.970   9.995  23.642  0.00  0.00     0.007 A 
ATOM     16  C   UNL d   1     -44.774  10.195  23.693  0.00  0.00     0.009 A 
ENDBRANCH  11  12
ENDBRANCH  10  11
ENDBRANCH   7  10
ENDBRANCH   1   7
BRANCH   2  17
ATOM     17  C   UNL d   1     -46.501  14.154  22.928  0.00  0.00     0.297 C 
ATOM     18  O   UNL d   1     -46.264  14.321  23.697  0.00  0.00    -0.259 OA
BRANCH  17  19
ATOM     19  O   UNL d   1     -46.118  14.506  22.283  0.00  0.00    -0.296 OA
ATOM     20  C   UNL d   1     -45.428  14.928  22.396  0.00  0.00     0.185 C 
ENDBRANCH  17  19
ENDBRANCH   2  17
BRANCH   5  21
ATOM     21  C   UNL d   1     -49.176  13.174  22.406  0.00  0.00     0.302 C 
ATOM     22  O   UNL d   1     -49.681  13.230  23.040  0.00  0.00    -0.259 OA
BRANCH  21  23
ATOM     23  O   UNL d   1     -49.463  13.104  21.631  0.00  0.00    -0.295 OA
ATOM     24  C   UNL d   1     -50.185  12.734  21.480  0.00  0.00     0.185 C 
ENDBRANCH  21  23
ENDBRANCH   5  21
TORSDOF 8
ENDMDL
MODEL 5
REMARK VINA RESULT:      -4.1      1.634      4.612
REMARK  8 active torsions:
REMARK  status: ('A' for Active; 'I' for Inactive)
REMARK    1  A    between atoms: S_3  and  C_1 
REMARK    2  A    between atoms: C_7  and  C_2 
REMARK    3  A    between atoms: N_9  and  S_3 
REMARK    4  A    between atoms: C_8  and  C_6 
REMARK    5  A    between atoms: O_21  and  C_7 
REMARK    6  A    between atoms: O_22  and  C_8 
REMARK    7  A    between atoms: C_14  and  N_9 
REMARK    8  A    between atoms: C_10  and  C_14 
ROOT
ATOM      1  C   UNL d   1     -46.966  12.763  22.734  0.00  0.00     0.140 A 
ATOM      2  C   UNL d   1     -46.619  13.459  22.480  0.00  0.00     0.082 A 
ATOM      3  C   UNL d   1     -45.803  13.332  22.408  0.00  0.00     0.018 A 
ATOM      4  S   UNL d   1     -46.362  12.214  22.816  0.00  0.00    -0.069 SA
ATOM      5  C   UNL d   1     -45.664  12.575  22.615  0.00  0.00     0.093 A 
ATOM      6  C   UNL d   1     -45.233  13.857  22.174  0.00  0.00     0.001 C 
ENDROOT
BRANCH   1   7
ATOM      7  S   UNL d   1     -47.768  12.741  22.848  0.00  0.00     0.291 S 
ATOM      8  O   UNL d   1     -47.875  12.489  22.055  0.00  0.00    -0.198 OA
ATOM      9  O   UNL d   1     -47.684  12.982  23.610  0.00  0.00    -0.198 OA
BRANCH   7  10
ATOM     10  N   UNL d   1     -48.587  12.715  22.952  0.00  0.00    -0.156 NA
BRANCH  10  11
ATOM     11  C   UNL d   1     -48.962  12.015  23.184  0.00  0.00     0.119 C 
BRANCH  11  12
ATOM     12  C   UNL d   1     -49.777  12.011  23.317  0.00  0.00     0.049 A 
ATOM     13  S   UNL d   1     -50.231  11.429  23.696  0.00  0.00    -0.085 SA
ATOM     14  C   UNL d   1     -51.012  11.663  23.697  0.00  0.00     0.035 A 
ATOM     15  C   UNL d   1     -51.059  12.395  23.319  0.00  0.00     0.007 A 
ATOM     16  C   UNL d   1     -50.292  12.606  23.085  0.00  0.00     0.009 A 
ENDBRANCH  11  12
ENDBRANCH  10  11
ENDBRANCH   7  10
ENDBRANCH   1   7
BRANCH   2  17
ATOM     17  C   UNL d   1     -47.001  14.180  22.316  0.00  0.00     0.297 C 
ATOM     18  O   UNL d   1     -47.360  14.299  21.586  0.00  0.00    -0.259 OA
BRANCH  17  19
ATOM     19  O   UNL d   1     -47.015  14.773  22.895  0.00  0.00    -0.296 OA
ATOM     20  C   UNL d   1     -47.305  15.515  22.714  0.00  0.00     0.185 C 
ENDBRANCH  17  19
ENDBRANCH   2  17
BRANCH   5  21
ATOM     21  C   UNL d   1     -44.895  12.215  22.619  0.00  0.00     0.302 C 
ATOM     22  O   UNL d   1     -44.702  11.728  23.239  0.00  0.00    -0.259 OA
BRANCH  21  23
ATOM     23  O   UNL d   1     -44.359  12.360  22.002  0.00  0.00    -0.295 OA
ATOM     24  C   UNL d   1     -43.598  12.045  22.021  0.00  0.00     0.185 C 
ENDBRANCH  21  23
ENDBRANCH   5  21
TORSDOF 8
ENDMDL
MODEL 6
REMARK VINA RESULT:      -3.8      1.070      2.260
REMARK  8 active torsions:
REMARK  status: ('A' for Active; 'I' for Inactive)
REMARK    1  A    between atoms: S_3  and  C_1 
REMARK    2  A    between atoms: C_7  and  C_2 
REMARK    3  A    between atoms: N_9  and  S_3 
REMARK    4  A    between atoms: C_8  and  C_6 
REMARK    5  A    between atoms: O_21  and  C_7 
REMARK    6  A    between atoms: O_22  and  C_8 
REMARK    7  A    between atoms: C_14  and  N_9 
REMARK    8  A    between atoms: C_10  and  C_14 
ROOT
ATOM      1  C   UNL d   1     -47.540  12.800  22.877  0.00  0.00     0.140 A 
ATOM      2  C   UNL d   1     -48.042  13.443  22.938  0.00  0.00     0.082 A 
ATOM      3  C   UNL d   1     -48.794  13.168  23.151  0.00  0.00     0.018 A 
ATOM      4  S   UNL d   1     -47.986  12.134  23.053  0.00  0.00    -0.069 SA
ATOM      5  C   UNL d   1     -48.744  12.376  23.217  0.00  0.00     0.093 A 
ATOM      6  C   UNL d   1     -49.468  13.599  23.275  0.00  0.00     0.001 C 
ENDROOT
BRANCH   1   7
ATOM      7  S   UNL d   1     -46.765  12.922  22.673  0.00  0.00     0.291 S 
ATOM      8  O   UNL d   1     -46.970  12.869  21.861  0.00  0.00    -0.198 OA
ATOM      9  O   UNL d   1     -46.551  12.975  23.445  0.00  0.00    -0.198 OA
BRANCH   7  10
ATOM     10  N   UNL d   1     -45.980  13.045  22.452  0.00  0.00    -0.156 NA
BRANCH  10  11
ATOM     11  C   UNL d   1     -45.483  12.407  22.275  0.00  0.00     0.119 C 
BRANCH  11  12
ATOM     12  C   UNL d   1     -44.705  12.545  22.039  0.00  0.00     0.049 A 
ATOM     13  S   UNL d   1     -44.423  13.125  21.517  0.00  0.00    -0.085 SA
ATOM     14  C   UNL d   1     -43.614  13.050  21.452  0.00  0.00     0.035 A 
ATOM     15  C   UNL d   1     -43.376  12.422  21.931  0.00  0.00     0.007 A 
ATOM     16  C   UNL d   1     -44.056  12.112  22.293  0.00  0.00     0.009 A 
ENDBRANCH  11  12
ENDBRANCH  10  11
ENDBRANCH   7  10
ENDBRANCH   1   7
BRANCH   2  17
ATOM     17  C   UNL d   1     -47.850  14.244  22.811  0.00  0.00     0.297 C 
ATOM     18  O   UNL d   1     -47.346  14.633  23.330  0.00  0.00    -0.259 OA
BRANCH  17  19
ATOM     19  O   UNL d   1     -48.172  14.640  22.158  0.00  0.00    -0.296 OA
ATOM     20  C   UNL d   1     -48.132  15.455  22.113  0.00  0.00     0.185 C 
ENDBRANCH  17  19
ENDBRANCH   2  17
BRANCH   5  21
ATOM     21  C   UNL d   1     -49.394  11.872  23.428  0.00  0.00     0.302 C 
ATOM     22  O   UNL d   1     -49.229  11.124  23.698  0.00  0.00    -0.259 OA
BRANCH  21  23
ATOM     23  O   UNL d   1     -50.176  12.143  23.358  0.00  0.00    -0.295 OA
ATOM     24  C   UNL d   1     -50.811  11.647  23.532  0.00  0.00     0.185 C 
ENDBRANCH  21  23
ENDBRANCH   5  21
TORSDOF 8
ENDMDL
MODEL 7
REMARK VINA RESULT:      -3.5      6.164      8.367
REMARK  8 active torsions:
REMARK  status: ('A' for Active; 'I' for Inactive)
REMARK    1  A    between atoms: S_3  and  C_1 
REMARK    2  A    between atoms: C_7  and  C_2 
REMARK    3  A    between atoms: N_9  and  S_3 
REMARK    4  A    between atoms: C_8  and  C_6 
REMARK    5  A    between atoms: O_21  and  C_7 
REMARK    6  A    between atoms: O_22  and  C_8 
REMARK    7  A    between atoms: C_14  and  N_9 
REMARK    8  A    between atoms: C_10  and  C_14 
ROOT
ATOM      1  C   UNL d   1     -39.923  14.646  20.490  0.00  0.00     0.140 A 
ATOM      2  C   UNL d   1     -40.491  14.439  21.042  0.00  0.00     0.082 A 
ATOM      3  C   UNL d   1     -40.106  14.168  21.723  0.00  0.00     0.018 A 
ATOM      4  S   UNL d   1     -39.194  14.500  20.836  0.00  0.00    -0.069 SA
ATOM      5  C   UNL d   1     -39.323  14.211  21.583  0.00  0.00     0.093 A 
ATOM      6  C   UNL d   1     -40.436  13.903  22.414  0.00  0.00     0.001 C 
ENDROOT
BRANCH   1   7
ATOM      7  S   UNL d   1     -40.160  14.930  19.768  0.00  0.00     0.291 S 
ATOM      8  O   UNL d   1     -40.055  14.168  19.433  0.00  0.00    -0.198 OA
ATOM      9  O   UNL d   1     -40.265  15.666  20.073  0.00  0.00    -0.198 OA
BRANCH   7  10
ATOM     10  N   UNL d   1     -40.398  15.207  19.029  0.00  0.00    -0.156 NA
BRANCH  10  11
ATOM     11  C   UNL d   1     -40.055  14.913  18.335  0.00  0.00     0.119 C 
BRANCH  11  12
ATOM     12  C   UNL d   1     -40.231  15.264  17.609  0.00  0.00     0.049 A 
ATOM     13  S   UNL d   1     -40.965  15.304  17.224  0.00  0.00    -0.085 SA
ATOM     14  C   UNL d   1     -40.872  15.705  16.520  0.00  0.00     0.035 A 
ATOM     15  C   UNL d   1     -40.078  15.922  16.453  0.00  0.00     0.007 A 
ATOM     16  C   UNL d   1     -39.686  15.646  17.130  0.00  0.00     0.009 A 
ENDBRANCH  11  12
ENDBRANCH  10  11
ENDBRANCH   7  10
ENDBRANCH   1   7
BRANCH   2  17
ATOM     17  C   UNL d   1     -41.318  14.486  20.953  0.00  0.00     0.297 C 
ATOM     18  O   UNL d   1     -41.697  15.213  21.007  0.00  0.00    -0.259 OA
BRANCH  17  19
ATOM     19  O   UNL d   1     -41.751  13.794  20.810  0.00  0.00    -0.296 OA
ATOM     20  C   UNL d   1     -42.536  13.748  21.034  0.00  0.00     0.185 C 
ENDBRANCH  17  19
ENDBRANCH   2  17
BRANCH   5  21
ATOM     21  C   UNL d   1     -38.725  13.984  22.142  0.00  0.00     0.302 C 
ATOM     22  O   UNL d   1     -38.467  14.540  22.675  0.00  0.00    -0.259 OA
BRANCH  21  23
ATOM     23  O   UNL d   1     -38.415  13.214  22.137  0.00  0.00    -0.295 OA
ATOM     24  C   UNL d   1     -37.940  12.947  22.755  0.00  0.00     0.185 C 
ENDBRANCH  21  23
ENDBRANCH   5  21
TORSDOF 8
ENDMDL
