MODEL 1
REMARK VINA RESULT:      -4.9      0.000      0.000
REMARK  5 active torsions:
REMARK  status: ('A' for Active; 'I' for Inactive)
REMARK    1  A    between atoms: C_7  and  C_1 
REMARK    2  A    between atoms: O_13  and  C_7 
REMARK    3  A    between atoms: C_15  and  C_9 
REMARK    4  A    between atoms: C_11  and  C_15 
REMARK    5  A    between atoms: C_18  and  O_13 
ROOT
ATOM      1  C   UNL d   1      56.629  -0.478  32.227  0.00  0.00     0.127 A 
ATOM      2  C   UNL d   1      56.694  -1.217  31.915  0.00  0.00     0.305 A 
ATOM      3  O   UNL d   1      57.177  -1.362  31.237  0.00  0.00    -0.273 OA
ATOM      4  C   UNL d   1      57.041   0.176  31.887  0.00  0.00     0.013 A 
ATOM      5  C   UNL d   1      57.592  -0.733  30.886  0.00  0.00     0.103 A 
ATOM      6  C   UNL d   1      57.522   0.052  31.217  0.00  0.00     0.023 A 
ATOM      7  O   UNL d   1      56.270  -1.857  32.276  0.00  0.00    -0.259 OA
ATOM      8  C   UNL d   1      58.066  -0.856  30.225  0.00  0.00     0.023 A 
ATOM      9  C   UNL d   1      57.930   0.682  30.875  0.00  0.00     0.002 A 
ATOM     10  C   UNL d   1      58.413   0.537  30.196  0.00  0.00     0.000 A 
ATOM     11  C   UNL d   1      58.479  -0.202  29.884  0.00  0.00     0.002 A 
ENDROOT
BRANCH   1  12
ATOM     12  C   UNL d   1      56.145  -0.411  32.883  0.00  0.00     0.305 C 
ATOM     13  O   UNL d   1      56.245  -0.930  33.535  0.00  0.00    -0.259 OA
BRANCH  12  14
ATOM     14  O   UNL d   1      55.539   0.162  32.943  0.00  0.00    -0.271 OA
BRANCH  14  15
ATOM     15  C   UNL d   1      55.268   0.413  33.700  0.00  0.00     0.126 C 
ATOM     16  C   UNL d   1      54.494   0.682  33.774  0.00  0.00     0.029 C 
ENDBRANCH  14  15
ENDBRANCH  12  14
ENDBRANCH   1  12
BRANCH   8  17
ATOM     17  C   UNL d   1      58.133  -1.610  29.907  0.00  0.00     0.002 C 
BRANCH  17  18
ATOM     18  C   UNL d   1      58.570  -1.730  29.203  0.00  0.00     0.000 C 
ATOM     19  C   UNL d   1      58.880  -2.471  29.034  0.00  0.00     0.000 C 
ENDBRANCH  17  18
ENDBRANCH   8  17
TORSDOF 5
ENDMDL
MODEL 2
REMARK VINA RESULT:      -3.0      1.313      2.072
REMARK  5 active torsions:
REMARK  status: ('A' for Active; 'I' for Inactive)
REMARK    1  A    between atoms: C_7  and  C_1 
REMARK    2  A    between atoms: O_13  and  C_7 
REMARK    3  A    between atoms: C_15  and  C_9 
REMARK    4  A    between atoms: C_11  and  C_15 
REMARK    5  A    between atoms: C_18  and  O_13 
ROOT
ATOM      1  C   UNL d   1      57.886  -0.152  30.644  0.00  0.00     0.127 A 
ATOM      2  C   UNL d   1      57.799  -0.938  30.494  0.00  0.00     0.305 A 
ATOM      3  O   UNL d   1      58.289  -1.329  29.928  0.00  0.00    -0.273 OA
ATOM      4  C   UNL d   1      58.469   0.307  30.240  0.00  0.00     0.013 A 
ATOM      5  C   UNL d   1      58.870  -0.897  29.518  0.00  0.00     0.103 A 
ATOM      6  C   UNL d   1      58.961  -0.063  29.677  0.00  0.00     0.023 A 
ATOM      7  O   UNL d   1      57.206  -1.375  30.914  0.00  0.00    -0.259 OA
ATOM      8  C   UNL d   1      59.355  -1.262  28.964  0.00  0.00     0.023 A 
ATOM      9  C   UNL d   1      59.535   0.373  29.276  0.00  0.00     0.002 A 
ATOM     10  C   UNL d   1      60.025  -0.018  28.709  0.00  0.00     0.000 A 
ATOM     11  C   UNL d   1      59.938  -0.804  28.559  0.00  0.00     0.002 A 
ENDROOT
BRANCH   1  12
ATOM     12  C   UNL d   1      57.378   0.161  31.203  0.00  0.00     0.305 C 
ATOM     13  O   UNL d   1      56.659   0.522  30.965  0.00  0.00    -0.259 OA
BRANCH  12  14
ATOM     14  O   UNL d   1      57.539   0.141  32.024  0.00  0.00    -0.271 OA
BRANCH  14  15
ATOM     15  C   UNL d   1      57.155   0.682  32.544  0.00  0.00     0.126 C 
ATOM     16  C   UNL d   1      56.973   0.435  33.307  0.00  0.00     0.029 C 
ENDBRANCH  14  15
ENDBRANCH  12  14
ENDBRANCH   1  12
BRANCH   8  17
ATOM     17  C   UNL d   1      59.267  -2.064  28.811  0.00  0.00     0.002 C 
BRANCH  17  18
ATOM     18  C   UNL d   1      59.901  -2.500  28.480  0.00  0.00     0.000 C 
ATOM     19  C   UNL d   1      59.909  -3.319  28.534  0.00  0.00     0.000 C 
ENDBRANCH  17  18
ENDBRANCH   8  17
TORSDOF 5
ENDMDL
MODEL 3
REMARK VINA RESULT:      -3.0      1.733      4.227
REMARK  5 active torsions:
REMARK  status: ('A' for Active; 'I' for Inactive)
REMARK    1  A    between atoms: C_7  and  C_1 
REMARK    2  A    between atoms: O_13  and  C_7 
REMARK    3  A    between atoms: C_15  and  C_9 
REMARK    4  A    between atoms: C_11  and  C_15 
REMARK    5  A    between atoms: C_18  and  O_13 
ROOT
ATOM      1  C   UNL d   1      57.939   0.617  31.362  0.00  0.00     0.127 A 
ATOM      2  C   UNL d   1      57.141   0.594  31.256  0.00  0.00     0.305 A 
ATOM      3  O   UNL d   1      56.614   0.595  31.916  0.00  0.00    -0.273 OA
ATOM      4  C   UNL d   1      58.274   0.642  32.137  0.00  0.00     0.013 A 
ATOM      5  C   UNL d   1      56.923   0.619  32.689  0.00  0.00     0.103 A 
ATOM      6  C   UNL d   1      57.769   0.643  32.801  0.00  0.00     0.023 A 
ATOM      7  O   UNL d   1      56.830   0.570  30.467  0.00  0.00    -0.259 OA
ATOM      8  C   UNL d   1      56.424   0.620  33.343  0.00  0.00     0.023 A 
ATOM      9  C   UNL d   1      58.084   0.667  33.563  0.00  0.00     0.002 A 
ATOM     10  C   UNL d   1      57.557   0.668  34.224  0.00  0.00     0.000 A 
ATOM     11  C   UNL d   1      56.760   0.646  34.118  0.00  0.00     0.002 A 
ENDROOT
BRANCH   1  12
ATOM     12  C   UNL d   1      58.388   0.613  30.679  0.00  0.00     0.305 C 
ATOM     13  O   UNL d   1      58.012   0.611  29.928  0.00  0.00    -0.259 OA
BRANCH  12  14
ATOM     14  O   UNL d   1      59.224   0.612  30.686  0.00  0.00    -0.271 OA
BRANCH  14  15
ATOM     15  C   UNL d   1      59.653   0.681  29.963  0.00  0.00     0.126 C 
ATOM     16  C   UNL d   1      60.448   0.471  29.953  0.00  0.00     0.029 C 
ENDBRANCH  14  15
ENDBRANCH  12  14
ENDBRANCH   1  12
BRANCH   8  17
ATOM     17  C   UNL d   1      55.611   0.598  33.235  0.00  0.00     0.002 C 
BRANCH  17  18
ATOM     18  C   UNL d   1      55.099   0.647  33.895  0.00  0.00     0.000 C 
ATOM     19  C   UNL d   1      54.285   0.659  33.785  0.00  0.00     0.000 C 
ENDBRANCH  17  18
ENDBRANCH   8  17
TORSDOF 5
ENDMDL
MODEL 4
REMARK VINA RESULT:      -2.6      2.053      4.589
REMARK  5 active torsions:
REMARK  status: ('A' for Active; 'I' for Inactive)
REMARK    1  A    between atoms: C_7  and  C_1 
REMARK    2  A    between atoms: O_13  and  C_7 
REMARK    3  A    between atoms: C_15  and  C_9 
REMARK    4  A    between atoms: C_11  and  C_15 
REMARK    5  A    between atoms: C_18  and  O_13 
ROOT
ATOM      1  C   UNL d   1      59.224  -2.126  29.156  0.00  0.00     0.127 A 
ATOM      2  C   UNL d   1      58.499  -2.111  29.508  0.00  0.00     0.305 A 
ATOM      3  O   UNL d   1      58.201  -1.403  29.859  0.00  0.00    -0.273 OA
ATOM      4  C   UNL d   1      59.708  -1.434  29.128  0.00  0.00     0.013 A 
ATOM      5  C   UNL d   1      58.660  -0.710  29.843  0.00  0.00     0.103 A 
ATOM      6  C   UNL d   1      59.429  -0.726  29.470  0.00  0.00     0.023 A 
ATOM      7  O   UNL d   1      58.033  -2.819  29.522  0.00  0.00    -0.259 OA
ATOM      8  C   UNL d   1      58.385  -0.013  30.180  0.00  0.00     0.023 A 
ATOM      9  C   UNL d   1      59.892  -0.043  29.450  0.00  0.00     0.002 A 
ATOM     10  C   UNL d   1      59.593   0.665  29.801  0.00  0.00     0.000 A 
ATOM     11  C   UNL d   1      58.869   0.680  30.152  0.00  0.00     0.002 A 
ENDROOT
BRANCH   1  12
ATOM     12  C   UNL d   1      59.449  -2.843  28.837  0.00  0.00     0.305 C 
ATOM     13  O   UNL d   1      58.881  -3.333  28.460  0.00  0.00    -0.259 OA
BRANCH  12  14
ATOM     14  O   UNL d   1      60.235  -3.126  28.866  0.00  0.00    -0.271 OA
BRANCH  14  15
ATOM     15  C   UNL d   1      60.432  -3.868  28.516  0.00  0.00     0.126 C 
ATOM     16  C   UNL d   1      61.129  -4.241  28.744  0.00  0.00     0.029 C 
ENDBRANCH  14  15
ENDBRANCH  12  14
ENDBRANCH   1  12
BRANCH   8  17
ATOM     17  C   UNL d   1      57.646   0.002  30.538  0.00  0.00     0.002 C 
BRANCH  17  18
ATOM     18  C   UNL d   1      57.488   0.551  31.151  0.00  0.00     0.000 C 
ATOM     19  C   UNL d   1      56.721   0.650  31.426  0.00  0.00     0.000 C 
ENDBRANCH  17  18
ENDBRANCH   8  17
TORSDOF 5
ENDMDL
MODEL 5
REMARK VINA RESULT:      -2.3      1.393      1.773
REMARK  5 active torsions:
REMARK  status: ('A' for Active; 'I' for Inactive)
REMARK    1  A    between atoms: C_7  and  C_1 
REMARK    2  A    between atoms: O_13  and  C_7 
REMARK    3  A    between atoms: C_15  and  C_9 
REMARK    4  A    between atoms: C_11  and  C_15 
REMARK    5  A    between atoms: C_18  and  O_13 
ROOT
ATOM      1  C   UNL d   1      56.745   0.025  32.353  0.00  0.00     0.127 A 
ATOM      2  C   UNL d   1      57.474   0.096  32.688  0.00  0.00     0.305 A 
ATOM      3  O   UNL d   1      58.151   0.281  32.219  0.00  0.00    -0.273 OA
ATOM      4  C   UNL d   1      56.635   0.133  31.523  0.00  0.00     0.013 A 
ATOM      5  C   UNL d   1      58.066   0.392  31.399  0.00  0.00     0.103 A 
ATOM      6  C   UNL d   1      57.293   0.317  31.044  0.00  0.00     0.023 A 
ATOM      7  O   UNL d   1      57.557  -0.018  33.524  0.00  0.00    -0.259 OA
ATOM      8  C   UNL d   1      58.715   0.573  30.928  0.00  0.00     0.023 A 
ATOM      9  C   UNL d   1      57.199   0.425  30.232  0.00  0.00     0.002 A 
ATOM     10  C   UNL d   1      57.877   0.611  29.762  0.00  0.00     0.000 A 
ATOM     11  C   UNL d   1      58.605   0.682  30.096  0.00  0.00     0.002 A 
ENDROOT
BRANCH   1  12
ATOM     12  C   UNL d   1      56.135  -0.156  32.867  0.00  0.00     0.305 C 
ATOM     13  O   UNL d   1      56.127  -0.892  33.269  0.00  0.00    -0.259 OA
BRANCH  12  14
ATOM     14  O   UNL d   1      55.499   0.366  33.018  0.00  0.00    -0.271 OA
BRANCH  14  15
ATOM     15  C   UNL d   1      54.838   0.107  33.472  0.00  0.00     0.126 C 
ATOM     16  C   UNL d   1      54.230   0.640  33.625  0.00  0.00     0.029 C 
ENDBRANCH  14  15
ENDBRANCH  12  14
ENDBRANCH   1  12
BRANCH   8  17
ATOM     17  C   UNL d   1      59.458   0.645  31.268  0.00  0.00     0.002 C 
BRANCH  17  18
ATOM     18  C   UNL d   1      60.146   0.530  30.804  0.00  0.00     0.000 C 
ATOM     19  C   UNL d   1      60.887   0.682  31.122  0.00  0.00     0.000 C 
ENDBRANCH  17  18
ENDBRANCH   8  17
TORSDOF 5
ENDMDL
MODEL 6
REMARK VINA RESULT:      -2.1      9.207      9.434
REMARK  5 active torsions:
REMARK  status: ('A' for Active; 'I' for Inactive)
REMARK    1  A    between atoms: C_7  and  C_1 
REMARK    2  A    between atoms: O_13  and  C_7 
REMARK    3  A    between atoms: C_15  and  C_9 
REMARK    4  A    between atoms: C_11  and  C_15 
REMARK    5  A    between atoms: C_18  and  O_13 
ROOT
ATOM      1  C   UNL d   1      59.687  -9.383  33.395  0.00  0.00     0.127 A 
ATOM      2  C   UNL d   1      58.985  -9.438  33.004  0.00  0.00     0.305 A 
ATOM      3  O   UNL d   1      58.962  -9.563  32.169  0.00  0.00    -0.273 OA
ATOM      4  C   UNL d   1      60.421  -9.449  32.983  0.00  0.00     0.013 A 
ATOM      5  C   UNL d   1      59.673  -9.630  31.743  0.00  0.00     0.103 A 
ATOM      6  C   UNL d   1      60.417  -9.572  32.158  0.00  0.00     0.023 A 
ATOM      7  O   UNL d   1      58.262  -9.368  33.441  0.00  0.00    -0.259 OA
ATOM      8  C   UNL d   1      59.668  -9.752  30.930  0.00  0.00     0.023 A 
ATOM      9  C   UNL d   1      61.127  -9.638  31.744  0.00  0.00     0.002 A 
ATOM     10  C   UNL d   1      61.104  -9.763  30.908  0.00  0.00     0.000 A 
ATOM     11  C   UNL d   1      60.403  -9.818  30.517  0.00  0.00     0.002 A 
ENDROOT
BRANCH   1  12
ATOM     12  C   UNL d   1      59.635  -9.262  34.202  0.00  0.00     0.305 C 
ATOM     13  O   UNL d   1      59.176  -9.780  34.677  0.00  0.00    -0.259 OA
BRANCH  12  14
ATOM     14  O   UNL d   1      60.024  -8.633  34.592  0.00  0.00    -0.271 OA
BRANCH  14  15
ATOM     15  C   UNL d   1      60.044  -8.606  35.435  0.00  0.00     0.126 C 
ATOM     16  C   UNL d   1      60.661  -8.205  35.803  0.00  0.00     0.029 C 
ENDBRANCH  14  15
ENDBRANCH  12  14
ENDBRANCH   1  12
BRANCH   8  17
ATOM     17  C   UNL d   1      58.953  -9.808  30.531  0.00  0.00     0.002 C 
BRANCH  17  18
ATOM     18  C   UNL d   1      58.906  -9.596  29.722  0.00  0.00     0.000 C 
ATOM     19  C   UNL d   1      58.211  -9.721  29.303  0.00  0.00     0.000 C 
ENDBRANCH  17  18
ENDBRANCH   8  17
TORSDOF 5
ENDMDL
MODEL 7
REMARK VINA RESULT:      -2.0      1.414      3.951
REMARK  5 active torsions:
REMARK  status: ('A' for Active; 'I' for Inactive)
REMARK    1  A    between atoms: C_7  and  C_1 
REMARK    2  A    between atoms: O_13  and  C_7 
REMARK    3  A    between atoms: C_15  and  C_9 
REMARK    4  A    between atoms: C_11  and  C_15 
REMARK    5  A    between atoms: C_18  and  O_13 
ROOT
ATOM      1  C   UNL d   1      58.261  -0.671  30.177  0.00  0.00     0.127 A 
ATOM      2  C   UNL d   1      57.763  -1.286  30.324  0.00  0.00     0.305 A 
ATOM      3  O   UNL d   1      57.250  -1.279  30.995  0.00  0.00    -0.273 OA
ATOM      4  C   UNL d   1      58.286   0.001  30.688  0.00  0.00     0.013 A 
ATOM      5  C   UNL d   1      57.258  -0.628  31.513  0.00  0.00     0.103 A 
ATOM      6  C   UNL d   1      57.786   0.025  31.356  0.00  0.00     0.023 A 
ATOM      7  O   UNL d   1      57.757  -1.949  29.795  0.00  0.00    -0.259 OA
ATOM      8  C   UNL d   1      56.765  -0.605  32.171  0.00  0.00     0.023 A 
ATOM      9  C   UNL d   1      57.801   0.675  31.864  0.00  0.00     0.002 A 
ATOM     10  C   UNL d   1      57.288   0.682  32.535  0.00  0.00     0.000 A 
ATOM     11  C   UNL d   1      56.790   0.067  32.683  0.00  0.00     0.002 A 
ENDROOT
BRANCH   1  12
ATOM     12  C   UNL d   1      58.728  -0.745  29.511  0.00  0.00     0.305 C 
ATOM     13  O   UNL d   1      58.377  -0.754  28.748  0.00  0.00    -0.259 OA
BRANCH  12  14
ATOM     14  O   UNL d   1      59.561  -0.813  29.545  0.00  0.00    -0.271 OA
BRANCH  14  15
ATOM     15  C   UNL d   1      60.024  -0.711  28.848  0.00  0.00     0.126 C 
ATOM     16  C   UNL d   1      60.837  -0.831  28.892  0.00  0.00     0.029 C 
ENDBRANCH  14  15
ENDBRANCH  12  14
ENDBRANCH   1  12
BRANCH   8  17
ATOM     17  C   UNL d   1      56.258  -1.233  32.321  0.00  0.00     0.002 C 
BRANCH  17  18
ATOM     18  C   UNL d   1      55.897  -1.309  33.073  0.00  0.00     0.000 C 
ATOM     19  C   UNL d   1      55.399  -1.943  33.227  0.00  0.00     0.000 C 
ENDBRANCH  17  18
ENDBRANCH   8  17
TORSDOF 5
ENDMDL
