MODEL 1
REMARK VINA RESULT:      -5.5      0.000      0.000
REMARK  5 active torsions:
REMARK  status: ('A' for Active; 'I' for Inactive)
REMARK    1  A    between atoms: C_3  and  S_1 
REMARK    2  A    between atoms: N_5  and  S_1 
REMARK    3  A    between atoms: C_2  and  C_8 
REMARK       I    between atoms: N_4  and  C_2 
REMARK    4  A    between atoms: C_9  and  N_4 
REMARK    5  A    between atoms: O_17  and  C_16 
ROOT
ATOM      1  C   UNL d   1     -41.789-122.985 -49.611  0.00  0.00     0.104 A 
ATOM      2  C   UNL d   1     -41.623-122.753 -51.265  0.00  0.00     0.058 A 
ATOM      3  C   UNL d   1     -42.118-122.360 -49.975  0.00  0.00     0.013 A 
ATOM      4  C   UNL d   1     -41.369-123.508 -50.066  0.00  0.00     0.013 A 
ATOM      5  C   UNL d   1     -41.269-123.423 -50.881  0.00  0.00     0.005 A 
ATOM      6  C   UNL d   1     -42.038-122.242 -50.793  0.00  0.00     0.005 A 
ENDROOT
BRANCH   2   7
ATOM      7  C   UNL d   1     -41.541-122.633 -52.101  0.00  0.00     0.279 C 
ATOM      8  N   UNL d   1     -41.829-123.133 -52.629  0.00  0.00    -0.208 NA
ATOM      9  O   UNL d   1     -41.123-121.932 -52.345  0.00  0.00    -0.265 OA
BRANCH   8  10
ATOM     10  C   UNL d   1     -41.734-122.991 -53.436  0.00  0.00     0.087 A 
ATOM     11  C   UNL d   1     -42.146-122.389 -53.783  0.00  0.00     0.043 A 
ATOM     12  C   UNL d   1     -42.051-122.248 -54.590  0.00  0.00     0.096 A 
ATOM     13  C   UNL d   1     -41.544-122.709 -55.050  0.00  0.00     0.024 A 
ATOM     14  C   UNL d   1     -41.123-123.330 -54.680  0.00  0.00     0.004 A 
ATOM     15  C   UNL d   1     -41.221-123.467 -53.873  0.00  0.00     0.019 A 
BRANCH  12  16
ATOM     16  O   UNL d   1     -42.375-121.774 -54.862  0.00  0.00    -0.328 OA
ATOM     17  C   UNL d   1     -42.536-121.625 -55.649  0.00  0.00     0.181 C 
ENDBRANCH  12  16
ENDBRANCH   8  10
ENDBRANCH   2   7
BRANCH   1  18
ATOM     18  S   UNL d   1     -41.835-123.171 -48.743  0.00  0.00     0.271 S 
ATOM     19  O   UNL d   1     -41.204-123.730 -48.759  0.00  0.00    -0.200 OA
ATOM     20  O   UNL d   1     -42.437-122.635 -48.734  0.00  0.00    -0.200 OA
BRANCH  18  21
ATOM     21  N   UNL d   1     -41.934-123.307 -47.881  0.00  0.00    -0.226 N 
ATOM     22  C   UNL d   1     -41.332-123.072 -47.351  0.00  0.00     0.111 C 
ATOM     23  C   UNL d   1     -42.620-123.667 -47.594  0.00  0.00     0.111 C 
ENDBRANCH  18  21
ENDBRANCH   1  18
TORSDOF 5
ENDMDL
MODEL 2
REMARK VINA RESULT:      -4.0      1.682      5.279
REMARK  5 active torsions:
REMARK  status: ('A' for Active; 'I' for Inactive)
REMARK    1  A    between atoms: C_3  and  S_1 
REMARK    2  A    between atoms: N_5  and  S_1 
REMARK    3  A    between atoms: C_2  and  C_8 
REMARK       I    between atoms: N_4  and  C_2 
REMARK    4  A    between atoms: C_9  and  N_4 
REMARK    5  A    between atoms: O_17  and  C_16 
ROOT
ATOM      1  C   UNL d   1     -41.762-122.463 -53.614  0.00  0.00     0.104 A 
ATOM      2  C   UNL d   1     -41.690-122.702 -51.954  0.00  0.00     0.058 A 
ATOM      3  C   UNL d   1     -41.161-122.861 -53.280  0.00  0.00     0.013 A 
ATOM      4  C   UNL d   1     -42.341-122.176 -53.125  0.00  0.00     0.013 A 
ATOM      5  C   UNL d   1     -42.335-122.276 -52.306  0.00  0.00     0.005 A 
ATOM      6  C   UNL d   1     -41.123-122.981 -52.459  0.00  0.00     0.005 A 
ENDROOT
BRANCH   2   7
ATOM      7  C   UNL d   1     -41.651-122.825 -51.115  0.00  0.00     0.279 C 
ATOM      8  N   UNL d   1     -42.014-123.419 -50.759  0.00  0.00    -0.208 NA
ATOM      9  O   UNL d   1     -41.191-122.262 -50.671  0.00  0.00    -0.265 OA
BRANCH   8  10
ATOM     10  C   UNL d   1     -41.959-123.513 -49.941  0.00  0.00     0.087 A 
ATOM     11  C   UNL d   1     -42.617-123.402 -49.484  0.00  0.00     0.043 A 
ATOM     12  C   UNL d   1     -42.560-123.497 -48.667  0.00  0.00     0.096 A 
ATOM     13  C   UNL d   1     -41.847-123.703 -48.306  0.00  0.00     0.024 A 
ATOM     14  C   UNL d   1     -41.173-123.815 -48.789  0.00  0.00     0.004 A 
ATOM     15  C   UNL d   1     -41.234-123.719 -49.606  0.00  0.00     0.019 A 
BRANCH  12  16
ATOM     16  O   UNL d   1     -43.078-123.409 -48.309  0.00  0.00    -0.328 OA
ATOM     17  C   UNL d   1     -43.239-123.645 -47.543  0.00  0.00     0.181 C 
ENDBRANCH  12  16
ENDBRANCH   8  10
ENDBRANCH   2   7
BRANCH   1  18
ATOM     18  S   UNL d   1     -41.866-122.299 -54.481  0.00  0.00     0.271 S 
ATOM     19  O   UNL d   1     -41.529-123.030 -54.731  0.00  0.00    -0.200 OA
ATOM     20  O   UNL d   1     -42.187-121.602 -54.237  0.00  0.00    -0.200 OA
BRANCH  18  21
ATOM     21  N   UNL d   1     -41.997-122.073 -55.321  0.00  0.00    -0.226 N 
ATOM     22  C   UNL d   1     -41.342-121.952 -55.825  0.00  0.00     0.111 C 
ATOM     23  C   UNL d   1     -42.765-121.982 -55.610  0.00  0.00     0.111 C 
ENDBRANCH  18  21
ENDBRANCH   1  18
TORSDOF 5
ENDMDL
