MODEL 1
REMARK VINA RESULT:      -5.8      0.000      0.000
REMARK  3 active torsions:
REMARK  status: ('A' for Active; 'I' for Inactive)
REMARK    1  A    between atoms: C_6  and  C_1 
REMARK    2  A    between atoms: C_7  and  C_5 
REMARK    3  A    between atoms: O_11  and  C_6 
ROOT
ATOM      1  C   UNL d   1      58.008  -0.340  30.268  0.00  0.00     0.167 A 
ATOM      2  C   UNL d   1      57.796   0.292  30.680  0.00  0.00     0.047 A 
ATOM      3  N   UNL d   1      57.225  -1.115  31.055  0.00  0.00    -0.148 NA
ATOM      4  N   UNL d   1      57.721  -1.050  30.456  0.00  0.00    -0.143 NA
ATOM      5  C   UNL d   1      57.011  -0.476  31.471  0.00  0.00     0.105 A 
ENDROOT
BRANCH   5   6
ATOM      6  C   UNL d   1      56.514  -0.346  32.117  0.00  0.00     0.019 A 
ATOM      7  C   UNL d   1      56.336   0.437  32.335  0.00  0.00     0.002 A 
ATOM      8  C   UNL d   1      55.839   0.577  32.982  0.00  0.00     0.011 A 
ATOM      9  C   UNL d   1      55.524  -0.067  33.406  0.00  0.00     0.058 A 
ATOM     10  C   UNL d   1      55.710  -0.839  33.179  0.00  0.00     0.011 A 
ATOM     11 CL   UNL d   1      55.017   0.078  34.065  0.00  0.00    -0.082 Cl
ATOM     12  C   UNL d   1      56.202  -0.975  32.538  0.00  0.00     0.002 A 
ENDBRANCH   5   6
BRANCH   1  13
ATOM     13  C   UNL d   1      58.511  -0.267  29.662  0.00  0.00     0.316 C 
ATOM     14  O   UNL d   1      58.236  -0.238  28.920  0.00  0.00    -0.257 OA
BRANCH  13  15
ATOM     15  O   UNL d   1      59.319  -0.223  29.814  0.00  0.00    -0.294 OA
ATOM     16  C   UNL d   1      59.862  -0.131  29.171  0.00  0.00     0.185 C 
ENDBRANCH  13  15
ENDBRANCH   1  13
TORSDOF 3
ENDMDL
MODEL 2
REMARK VINA RESULT:      -4.7      2.566      4.167
REMARK  3 active torsions:
REMARK  status: ('A' for Active; 'I' for Inactive)
REMARK    1  A    between atoms: C_6  and  C_1 
REMARK    2  A    between atoms: C_7  and  C_5 
REMARK    3  A    between atoms: O_11  and  C_6 
ROOT
ATOM      1  C   UNL d   1      56.438  -0.601  32.211  0.00  0.00     0.167 A 
ATOM      2  C   UNL d   1      56.714   0.085  31.949  0.00  0.00     0.047 A 
ATOM      3  N   UNL d   1      57.139  -1.249  31.252  0.00  0.00    -0.148 NA
ATOM      4  N   UNL d   1      56.652  -1.274  31.860  0.00  0.00    -0.143 NA
ATOM      5  C   UNL d   1      57.418  -0.557  30.987  0.00  0.00     0.105 A 
ENDROOT
BRANCH   5   6
ATOM      6  C   UNL d   1      57.926  -0.332  30.377  0.00  0.00     0.019 A 
ATOM      7  C   UNL d   1      58.304  -0.925  29.931  0.00  0.00     0.002 A 
ATOM      8  C   UNL d   1      58.816  -0.708  29.318  0.00  0.00     0.011 A 
ATOM      9  C   UNL d   1      58.946   0.098  29.153  0.00  0.00     0.058 A 
ATOM     10  C   UNL d   1      58.563   0.675  29.605  0.00  0.00     0.011 A 
ATOM     11 CL   UNL d   1      59.467   0.315  28.528  0.00  0.00    -0.082 Cl
ATOM     12  C   UNL d   1      58.057   0.459  30.211  0.00  0.00     0.002 A 
ENDBRANCH   5   6
BRANCH   1  13
ATOM     13  C   UNL d   1      55.944  -0.619  32.829  0.00  0.00     0.316 C 
ATOM     14  O   UNL d   1      55.666  -1.311  33.094  0.00  0.00    -0.257 OA
BRANCH  13  15
ATOM     15  O   UNL d   1      55.724   0.089  33.187  0.00  0.00    -0.294 OA
ATOM     16  C   UNL d   1      55.141   0.084  33.802  0.00  0.00     0.185 C 
ENDBRANCH  13  15
ENDBRANCH   1  13
TORSDOF 3
ENDMDL
