MODEL 1
REMARK VINA RESULT:      -9.4      0.000      0.000
REMARK  3 active torsions:
REMARK  status: ('A' for Active; 'I' for Inactive)
REMARK    1  A    between atoms: C_12  and  N_3 
REMARK    2  A    between atoms: C_11  and  C_6 
REMARK    3  A    between atoms: C_22  and  C_12 
ROOT
ATOM      1  C   UNL d   1     -48.132  12.274  23.398  0.00  0.00     0.130 A 
ATOM      2  C   UNL d   1     -47.683  12.946  23.228  0.00  0.00     0.157 A 
ATOM      3  N   UNL d   1     -49.331  13.054  23.305  0.00  0.00    -0.256 N 
ATOM      4  C   UNL d   1     -48.953  12.334  23.435  0.00  0.00     0.272 A 
ATOM      5  N   UNL d   1     -48.052  13.674  23.096  0.00  0.00    -0.208 NA
ATOM      6  C   UNL d   1     -48.872  13.734  23.133  0.00  0.00     0.175 A 
ATOM      7  C   UNL d   1     -47.763  11.555  23.529  0.00  0.00     0.204 A 
ATOM      8  N   UNL d   1     -46.856  12.897  23.189  0.00  0.00    -0.289 N 
ATOM      9  C   UNL d   1     -46.940  11.499  23.491  0.00  0.00     0.055 A 
ATOM     10  C   UNL d   1     -46.484  12.166  23.321  0.00  0.00     0.069 A 
ATOM     11  O   UNL d   1     -49.408  11.667  23.605  0.00  0.00    -0.266 OA
ATOM     12  O   UNL d   1     -48.215  10.886  23.698  0.00  0.00    -0.286 OA
ATOM     13  C   UNL d   1     -46.401  13.563  23.019  0.00  0.00     0.101 C 
ATOM     14  C   UNL d   1     -46.575  10.773  23.623  0.00  0.00     0.005 A 
ATOM     15  C   UNL d   1     -45.664  12.107  23.284  0.00  0.00     0.018 A 
ATOM     16  C   UNL d   1     -45.755  10.713  23.586  0.00  0.00     0.000 A 
ATOM     17  C   UNL d   1     -45.299  11.380  23.416  0.00  0.00     0.002 A 
ENDROOT
BRANCH   6  18
ATOM     18  C   UNL d   1     -49.250  14.463  23.001  0.00  0.00     0.135 A 
ATOM     19  O   UNL d   1     -49.413  14.956  23.642  0.00  0.00    -0.302 OA
ATOM     20  C   UNL d   1     -49.785  15.633  23.349  0.00  0.00     0.123 A 
ATOM     21  C   UNL d   1     -49.851  15.556  22.528  0.00  0.00     0.029 A 
ATOM     22  C   UNL d   1     -49.520  14.833  22.316  0.00  0.00     0.030 A 
ENDBRANCH   6  18
BRANCH   3  23
ATOM     23  C   UNL d   1     -50.157  13.112  23.343  0.00  0.00     0.085 C 
BRANCH  23  24
ATOM     24  C   UNL d   1     -50.630  12.465  23.115  0.00  0.00     0.018 C 
ATOM     25  C   UNL d   1     -51.064  12.042  23.698  0.00  0.00     0.002 C 
ATOM     26  C   UNL d   1     -50.674  12.236  22.315  0.00  0.00     0.002 C 
ENDBRANCH  23  24
ENDBRANCH   3  23
TORSDOF 3
ENDMDL
MODEL 2
REMARK VINA RESULT:      -7.4      1.186      2.650
REMARK  3 active torsions:
REMARK  status: ('A' for Active; 'I' for Inactive)
REMARK    1  A    between atoms: C_12  and  N_3 
REMARK    2  A    between atoms: C_11  and  C_6 
REMARK    3  A    between atoms: C_22  and  C_12 
ROOT
ATOM      1  C   UNL d   1     -47.735  13.870  22.771  0.00  0.00     0.130 A 
ATOM      2  C   UNL d   1     -47.788  13.049  22.706  0.00  0.00     0.157 A 
ATOM      3  N   UNL d   1     -49.146  13.941  23.010  0.00  0.00    -0.256 N 
ATOM      4  C   UNL d   1     -48.415  14.310  22.922  0.00  0.00     0.272 A 
ATOM      5  N   UNL d   1     -48.517  12.668  22.793  0.00  0.00    -0.208 NA
ATOM      6  C   UNL d   1     -49.197  13.107  22.945  0.00  0.00     0.175 A 
ATOM      7  C   UNL d   1     -47.012  14.244  22.684  0.00  0.00     0.204 A 
ATOM      8  N   UNL d   1     -47.110  12.597  22.554  0.00  0.00    -0.289 N 
ATOM      9  C   UNL d   1     -46.332  13.800  22.532  0.00  0.00     0.055 A 
ATOM     10  C   UNL d   1     -46.377  12.979  22.467  0.00  0.00     0.069 A 
ATOM     11  O   UNL d   1     -48.370  15.131  22.988  0.00  0.00    -0.266 OA
ATOM     12  O   UNL d   1     -46.963  15.064  22.749  0.00  0.00    -0.286 OA
ATOM     13  C   UNL d   1     -47.154  11.776  22.489  0.00  0.00     0.101 C 
ATOM     14  C   UNL d   1     -45.608  14.181  22.446  0.00  0.00     0.005 A 
ATOM     15  C   UNL d   1     -45.698  12.539  22.315  0.00  0.00     0.018 A 
ATOM     16  C   UNL d   1     -44.928  13.742  22.295  0.00  0.00     0.000 A 
ATOM     17  C   UNL d   1     -44.973  12.921  22.229  0.00  0.00     0.002 A 
ENDROOT
BRANCH   6  18
ATOM     18  C   UNL d   1     -49.933  12.730  23.033  0.00  0.00     0.135 A 
ATOM     19  O   UNL d   1     -50.358  12.510  22.361  0.00  0.00    -0.302 OA
ATOM     20  C   UNL d   1     -51.058  12.152  22.614  0.00  0.00     0.123 A 
ATOM     21  C   UNL d   1     -51.064  12.152  23.442  0.00  0.00     0.029 A 
ATOM     22  C   UNL d   1     -50.368  12.509  23.698  0.00  0.00     0.030 A 
ENDBRANCH   6  18
BRANCH   3  23
ATOM     23  C   UNL d   1     -49.830  14.385  23.163  0.00  0.00     0.085 C 
BRANCH  23  24
ATOM     24  C   UNL d   1     -49.884  15.170  22.892  0.00  0.00     0.018 C 
ATOM     25  C   UNL d   1     -49.998  15.320  22.072  0.00  0.00     0.002 C 
ATOM     26  C   UNL d   1     -49.826  15.806  23.427  0.00  0.00     0.002 C 
ENDBRANCH  23  24
ENDBRANCH   3  23
TORSDOF 3
ENDMDL
MODEL 3
REMARK VINA RESULT:      -6.9      1.229      2.298
REMARK  3 active torsions:
REMARK  status: ('A' for Active; 'I' for Inactive)
REMARK    1  A    between atoms: C_12  and  N_3 
REMARK    2  A    between atoms: C_11  and  C_6 
REMARK    3  A    between atoms: C_22  and  C_12 
ROOT
ATOM      1  C   UNL d   1     -47.263  12.975  22.790  0.00  0.00     0.130 A 
ATOM      2  C   UNL d   1     -47.686  12.343  23.109  0.00  0.00     0.157 A 
ATOM      3  N   UNL d   1     -48.488  13.687  22.577  0.00  0.00    -0.256 N 
ATOM      4  C   UNL d   1     -47.668  13.643  22.527  0.00  0.00     0.272 A 
ATOM      5  N   UNL d   1     -48.511  12.376  23.164  0.00  0.00    -0.208 NA
ATOM      6  C   UNL d   1     -48.916  13.043  22.901  0.00  0.00     0.175 A 
ATOM      7  C   UNL d   1     -46.446  12.939  22.737  0.00  0.00     0.204 A 
ATOM      8  N   UNL d   1     -47.289  11.666  23.376  0.00  0.00    -0.289 N 
ATOM      9  C   UNL d   1     -46.044  12.268  23.001  0.00  0.00     0.055 A 
ATOM     10  C   UNL d   1     -46.460  11.632  23.321  0.00  0.00     0.069 A 
ATOM     11  O   UNL d   1     -47.251  14.279  22.207  0.00  0.00    -0.266 OA
ATOM     12  O   UNL d   1     -46.027  13.573  22.418  0.00  0.00    -0.286 OA
ATOM     13  C   UNL d   1     -47.705  11.030  23.696  0.00  0.00     0.101 C 
ATOM     14  C   UNL d   1     -45.224  12.237  22.945  0.00  0.00     0.005 A 
ATOM     15  C   UNL d   1     -46.056  10.964  23.584  0.00  0.00     0.018 A 
ATOM     16  C   UNL d   1     -44.819  11.570  23.208  0.00  0.00     0.000 A 
ATOM     17  C   UNL d   1     -45.235  10.934  23.528  0.00  0.00     0.002 A 
ENDROOT
BRANCH   6  18
ATOM     18  C   UNL d   1     -49.745  13.083  22.954  0.00  0.00     0.135 A 
ATOM     19  O   UNL d   1     -50.101  13.140  23.696  0.00  0.00    -0.302 OA
ATOM     20  C   UNL d   1     -50.918  13.171  23.580  0.00  0.00     0.123 A 
ATOM     21  C   UNL d   1     -51.064  13.132  22.767  0.00  0.00     0.029 A 
ATOM     22  C   UNL d   1     -50.339  13.078  22.383  0.00  0.00     0.030 A 
ENDBRANCH   6  18
BRANCH   3  23
ATOM     23  C   UNL d   1     -48.894  14.360  22.312  0.00  0.00     0.085 C 
BRANCH  23  24
ATOM     24  C   UNL d   1     -48.575  15.117  22.445  0.00  0.00     0.018 C 
ATOM     25  C   UNL d   1     -48.649  15.472  23.204  0.00  0.00     0.002 C 
ATOM     26  C   UNL d   1     -48.183  15.523  21.832  0.00  0.00     0.002 C 
ENDBRANCH  23  24
ENDBRANCH   3  23
TORSDOF 3
ENDMDL
MODEL 4
REMARK VINA RESULT:      -6.7      1.005      4.383
REMARK  3 active torsions:
REMARK  status: ('A' for Active; 'I' for Inactive)
REMARK    1  A    between atoms: C_12  and  N_3 
REMARK    2  A    between atoms: C_11  and  C_6 
REMARK    3  A    between atoms: C_22  and  C_12 
ROOT
ATOM      1  C   UNL d   1     -48.299  13.991  23.037  0.00  0.00     0.130 A 
ATOM      2  C   UNL d   1     -48.758  13.354  23.291  0.00  0.00     0.157 A 
ATOM      3  N   UNL d   1     -47.138  13.150  23.028  0.00  0.00    -0.256 N 
ATOM      4  C   UNL d   1     -47.492  13.884  22.908  0.00  0.00     0.272 A 
ATOM      5  N   UNL d   1     -48.413  12.612  23.414  0.00  0.00    -0.208 NA
ATOM      6  C   UNL d   1     -47.607  12.504  23.285  0.00  0.00     0.175 A 
ATOM      7  C   UNL d   1     -48.643  14.724  22.916  0.00  0.00     0.204 A 
ATOM      8  N   UNL d   1     -49.570  13.451  23.424  0.00  0.00    -0.289 N 
ATOM      9  C   UNL d   1     -49.452  14.828  23.047  0.00  0.00     0.055 A 
ATOM     10  C   UNL d   1     -49.918  14.195  23.300  0.00  0.00     0.069 A 
ATOM     11  O   UNL d   1     -47.027  14.516  22.655  0.00  0.00    -0.266 OA
ATOM     12  O   UNL d   1     -48.182  15.358  22.663  0.00  0.00    -0.286 OA
ATOM     13  C   UNL d   1     -50.036  12.818  23.677  0.00  0.00     0.101 C 
ATOM     14  C   UNL d   1     -49.793  15.566  22.923  0.00  0.00     0.005 A 
ATOM     15  C   UNL d   1     -50.723  14.301  23.430  0.00  0.00     0.018 A 
ATOM     16  C   UNL d   1     -50.599  15.674  23.052  0.00  0.00     0.000 A 
ATOM     17  C   UNL d   1     -51.064  15.041  23.306  0.00  0.00     0.002 A 
ENDROOT
BRANCH   6  18
ATOM     18  C   UNL d   1     -47.254  11.761  23.407  0.00  0.00     0.135 A 
ATOM     19  O   UNL d   1     -47.676  11.077  23.221  0.00  0.00    -0.302 OA
ATOM     20  C   UNL d   1     -47.194  10.430  23.397  0.00  0.00     0.123 A 
ATOM     21  C   UNL d   1     -46.476  10.716  23.692  0.00  0.00     0.029 A 
ATOM     22  C   UNL d   1     -46.515  11.538  23.698  0.00  0.00     0.030 A 
ENDBRANCH   6  18
BRANCH   3  23
ATOM     23  C   UNL d   1     -46.326  13.044  22.897  0.00  0.00     0.085 C 
BRANCH  23  24
ATOM     24  C   UNL d   1     -45.984  13.301  22.182  0.00  0.00     0.018 C 
ATOM     25  C   UNL d   1     -46.305  13.041  21.450  0.00  0.00     0.002 C 
ATOM     26  C   UNL d   1     -45.326  13.812  22.190  0.00  0.00     0.002 C 
ENDBRANCH  23  24
ENDBRANCH   3  23
TORSDOF 3
ENDMDL
