MODEL 1
REMARK VINA RESULT:     129.8      0.000      0.000
REMARK  9 active torsions:
REMARK  status: ('A' for Active; 'I' for Inactive)
REMARK    1  A    between atoms: C_2  and  C_1 
REMARK    2  A    between atoms: C_23  and  C_7 
REMARK    3  A    between atoms: C_12  and  O_16 
REMARK    4  A    between atoms: C_18  and  C_12 
REMARK    5  A    between atoms: O_16  and  C_14 
REMARK    6  A    between atoms: C_30  and  C_17 
REMARK    7  A    between atoms: C_20  and  C_28 
REMARK    8  A    between atoms: O_25  and  C_23 
REMARK    9  A    between atoms: C_28  and  O_25 
ROOT
ATOM      1  C   UNL d   1     -55.019-101.005 -43.157  0.00  0.00     0.098 A 
ATOM      2  C   UNL d   1     -55.102-101.563 -42.541  0.00  0.00     0.202 A 
ATOM      3  C   UNL d   1     -55.005-101.333 -41.755  0.00  0.00     0.062 A 
ATOM      4  C   UNL d   1     -54.837-100.211 -42.973  0.00  0.00     0.130 A 
ATOM      5  C   UNL d   1     -54.823-100.539 -41.571  0.00  0.00     0.105 A 
ATOM      6  O   UNL d   1     -54.737 -99.969 -42.180  0.00  0.00    -0.305 OA
ATOM      7  C   UNL d   1     -55.087-101.880 -41.149  0.00  0.00     0.007 A 
ATOM      8  C   UNL d   1     -54.809-100.864 -40.180  0.00  0.00     0.105 A 
ATOM      9  C   UNL d   1     -54.726-100.308 -40.784  0.00  0.00     0.050 A 
ATOM     10  C   UNL d   1     -54.989-101.649 -40.362  0.00  0.00     0.023 A 
ATOM     11  O   UNL d   1     -55.282-102.349 -42.723  0.00  0.00    -0.286 OA
ENDROOT
BRANCH   1  12
ATOM     12  C   UNL d   1     -55.117-101.239 -43.944  0.00  0.00     0.153 A 
ATOM     13  N   UNL d   1     -55.336-101.993 -44.196  0.00  0.00    -0.227 NA
ATOM     14  C   UNL d   1     -55.368-101.982 -45.020  0.00  0.00     0.099 A 
ATOM     15  C   UNL d   1     -55.552-102.565 -45.569  0.00  0.00     0.021 A 
ATOM     16  C   UNL d   1     -55.168-101.223 -45.274  0.00  0.00     0.083 A 
ATOM     17  C   UNL d   1     -55.538-102.392 -46.376  0.00  0.00     0.002 A 
ATOM     18  C   UNL d   1     -55.336-101.627 -46.624  0.00  0.00     0.002 A 
ATOM     19  C   UNL d   1     -55.153-101.047 -46.078  0.00  0.00     0.019 A 
ATOM     20  N   UNL d   1     -55.013-100.767 -44.604  0.00  0.00    -0.288 N 
ATOM     21  C   UNL d   1     -54.793 -99.971 -44.604  0.00  0.00     0.101 C 
ENDBRANCH   1  12
BRANCH   4  22
ATOM     22  C   UNL d   1     -54.753 -99.653 -43.586  0.00  0.00     0.142 C 
BRANCH  22  23
ATOM     23  O   UNL d   1     -55.145 -98.928 -43.541  0.00  0.00    -0.315 OA
BRANCH  23  24
ATOM     24  C   UNL d   1     -55.872 -98.874 -43.146  0.00  0.00     0.246 C 
BRANCH  24  25
ATOM     25  C   UNL d   1     -56.543 -99.234 -43.476  0.00  0.00     0.217 C 
ATOM     26  O   UNL d   1     -56.768 -99.071 -44.255  0.00  0.00    -0.645 OA
ATOM     27  O   UNL d   1     -56.986 -99.758 -43.019  0.00  0.00    -0.645 OA
ENDBRANCH  24  25
ENDBRANCH  23  24
ENDBRANCH  22  23
ENDBRANCH   4  22
BRANCH  10  28
ATOM     28  C   UNL d   1     -55.073-102.206 -39.754  0.00  0.00     0.002 C 
ATOM     29  C   UNL d   1     -55.805-102.564 -39.621  0.00  0.00     0.000 C 
ENDBRANCH  10  28
BRANCH   8  30
ATOM     30  O   UNL d   1     -54.712-100.633 -39.394  0.00  0.00    -0.276 OA
BRANCH  30  31
ATOM     31  C   UNL d   1     -55.372-100.522 -38.910  0.00  0.00     0.275 C 
ATOM     32  O   UNL d   1     -56.110-100.807 -39.145  0.00  0.00    -0.264 OA
BRANCH  31  33
ATOM     33  C   UNL d   1     -55.294-100.123 -38.188  0.00  0.00     0.078 C 
ATOM     34  C   UNL d   1     -55.213 -99.720 -37.464  0.00  0.00     0.010 C 
ATOM     35  C   UNL d   1     -55.622-100.771 -37.796  0.00  0.00     0.010 C 
ATOM     36  C   UNL d   1     -54.964 -99.475 -38.589  0.00  0.00     0.010 C 
ENDBRANCH  31  33
ENDBRANCH  30  31
ENDBRANCH   8  30
TORSDOF 9
ENDMDL
