MODEL 1
REMARK VINA RESULT:      -7.7      0.000      0.000
REMARK  4 active torsions:
REMARK  status: ('A' for Active; 'I' for Inactive)
REMARK    1  A    between atoms: S_2  and  N_1 
REMARK    2  A    between atoms: N_6  and  S_2 
REMARK    3  A    between atoms: C_10  and  C_3 
REMARK    4  A    between atoms: C_14  and  C_10 
ROOT
ATOM      1  N   UNL d   1     -49.018  13.217  23.022  0.00  0.00    -0.201 N 
ATOM      2  C   UNL d   1     -48.191  13.196  22.888  0.00  0.00     0.158 A 
ATOM      3  N   UNL d   1     -47.930  12.425  23.046  0.00  0.00    -0.226 NA
ATOM      4  C   UNL d   1     -49.249  12.464  23.258  0.00  0.00     0.095 A 
ATOM      5  C   UNL d   1     -48.583  11.977  23.273  0.00  0.00     0.100 A 
ATOM      6  C   UNL d   1     -49.990  12.165  23.461  0.00  0.00     0.020 A 
ATOM      7  C   UNL d   1     -48.663  11.185  23.493  0.00  0.00     0.021 A 
ATOM      8  C   UNL d   1     -50.071  11.375  23.681  0.00  0.00     0.002 A 
ATOM      9  C   UNL d   1     -49.405  10.881  23.698  0.00  0.00     0.002 A 
ENDROOT
BRANCH   1  10
ATOM     10  S   UNL d   1     -49.502  13.868  22.934  0.00  0.00     0.338 S 
ATOM     11  O   UNL d   1     -49.322  14.116  23.698  0.00  0.00    -0.181 OA
ATOM     12  O   UNL d   1     -49.685  13.622  22.169  0.00  0.00    -0.181 OA
BRANCH  10  13
ATOM     13  N   UNL d   1     -49.993  14.520  22.833  0.00  0.00    -0.212 N 
ATOM     14  C   UNL d   1     -50.396  14.627  22.124  0.00  0.00     0.120 A 
ATOM     15  C   UNL d   1     -50.892  15.288  22.025  0.00  0.00     0.142 A 
ATOM     16  O   UNL d   1     -50.974  15.831  22.641  0.00  0.00    -0.300 OA
ATOM     17  C   UNL d   1     -50.570  15.718  23.343  0.00  0.00     0.142 A 
ATOM     18  C   UNL d   1     -50.082  15.068  23.443  0.00  0.00     0.120 A 
ENDBRANCH  10  13
ENDBRANCH   1  10
BRANCH   2  19
ATOM     19  C   UNL d   1     -47.723  13.833  22.643  0.00  0.00     0.038 C 
BRANCH  19  20
ATOM     20  C   UNL d   1     -46.913  13.728  22.548  0.00  0.00     0.003 A 
ATOM     21  C   UNL d   1     -46.625  13.403  21.844  0.00  0.00     0.000 A 
ATOM     22  C   UNL d   1     -45.816  13.297  21.749  0.00  0.00     0.000 A 
ATOM     23  C   UNL d   1     -45.295  13.510  22.342  0.00  0.00     0.000 A 
ATOM     24  C   UNL d   1     -45.585  13.836  23.050  0.00  0.00     0.000 A 
ATOM     25  C   UNL d   1     -46.398  13.943  23.147  0.00  0.00     0.000 A 
ENDBRANCH  19  20
ENDBRANCH   2  19
TORSDOF 4
ENDMDL
MODEL 2
REMARK VINA RESULT:      -6.0      9.594     10.819
REMARK  4 active torsions:
REMARK  status: ('A' for Active; 'I' for Inactive)
REMARK    1  A    between atoms: S_2  and  N_1 
REMARK    2  A    between atoms: N_6  and  S_2 
REMARK    3  A    between atoms: C_10  and  C_3 
REMARK    4  A    between atoms: C_14  and  C_10 
ROOT
ATOM      1  N   UNL d   1     -39.706  14.456  18.206  0.00  0.00    -0.201 N 
ATOM      2  C   UNL d   1     -39.620  14.680  19.009  0.00  0.00     0.158 A 
ATOM      3  N   UNL d   1     -40.188  15.263  19.169  0.00  0.00    -0.226 NA
ATOM      4  C   UNL d   1     -40.320  14.901  17.889  0.00  0.00     0.095 A 
ATOM      5  C   UNL d   1     -40.617  15.397  18.479  0.00  0.00     0.100 A 
ATOM      6  C   UNL d   1     -40.644  14.913  17.132  0.00  0.00     0.020 A 
ATOM      7  C   UNL d   1     -41.242  15.907  18.304  0.00  0.00     0.021 A 
ATOM      8  C   UNL d   1     -41.269  15.421  16.957  0.00  0.00     0.002 A 
ATOM      9  C   UNL d   1     -41.570  15.922  17.545  0.00  0.00     0.002 A 
ENDROOT
BRANCH   1  10
ATOM     10  S   UNL d   1     -39.260  13.896  17.814  0.00  0.00     0.338 S 
ATOM     11  O   UNL d   1     -38.676  14.456  17.663  0.00  0.00    -0.181 OA
ATOM     12  O   UNL d   1     -39.843  13.333  17.964  0.00  0.00    -0.181 OA
BRANCH  10  13
ATOM     13  N   UNL d   1     -38.819  13.323  17.421  0.00  0.00    -0.212 N 
ATOM     14  C   UNL d   1     -38.401  13.520  16.741  0.00  0.00     0.120 A 
ATOM     15  C   UNL d   1     -37.956  12.938  16.346  0.00  0.00     0.142 A 
ATOM     16  O   UNL d   1     -37.940  12.168  16.642  0.00  0.00    -0.300 OA
ATOM     17  C   UNL d   1     -38.358  11.980  17.318  0.00  0.00     0.142 A 
ATOM     18  C   UNL d   1     -38.797  12.550  17.709  0.00  0.00     0.120 A 
ENDBRANCH  10  13
ENDBRANCH   1  10
BRANCH   2  19
ATOM     19  C   UNL d   1     -39.067  14.372  19.542  0.00  0.00     0.038 C 
BRANCH  19  20
ATOM     20  C   UNL d   1     -39.070  14.632  20.323  0.00  0.00     0.003 A 
ATOM     21  C   UNL d   1     -39.399  14.151  20.910  0.00  0.00     0.000 A 
ATOM     22  C   UNL d   1     -39.402  14.409  21.690  0.00  0.00     0.000 A 
ATOM     23  C   UNL d   1     -39.083  15.135  21.889  0.00  0.00     0.000 A 
ATOM     24  C   UNL d   1     -38.752  15.618  21.299  0.00  0.00     0.000 A 
ATOM     25  C   UNL d   1     -38.749  15.360  20.514  0.00  0.00     0.000 A 
ENDBRANCH  19  20
ENDBRANCH   2  19
TORSDOF 4
ENDMDL
MODEL 3
REMARK VINA RESULT:      -5.8      9.869     10.871
REMARK  4 active torsions:
REMARK  status: ('A' for Active; 'I' for Inactive)
REMARK    1  A    between atoms: S_2  and  N_1 
REMARK    2  A    between atoms: N_6  and  S_2 
REMARK    3  A    between atoms: C_10  and  C_3 
REMARK    4  A    between atoms: C_14  and  C_10 
ROOT
ATOM      1  N   UNL d   1     -38.918  14.206  18.841  0.00  0.00    -0.201 N 
ATOM      2  C   UNL d   1     -39.341  14.564  18.212  0.00  0.00     0.158 A 
ATOM      3  N   UNL d   1     -39.294  14.058  17.557  0.00  0.00    -0.226 NA
ATOM      4  C   UNL d   1     -38.621  13.491  18.564  0.00  0.00     0.095 A 
ATOM      5  C   UNL d   1     -38.851  13.398  17.776  0.00  0.00     0.100 A 
ATOM      6  C   UNL d   1     -38.168  12.913  18.937  0.00  0.00     0.020 A 
ATOM      7  C   UNL d   1     -38.623  12.721  17.364  0.00  0.00     0.021 A 
ATOM      8  C   UNL d   1     -37.940  12.236  18.526  0.00  0.00     0.002 A 
ATOM      9  C   UNL d   1     -38.168  12.138  17.734  0.00  0.00     0.002 A 
ENDROOT
BRANCH   1  10
ATOM     10  S   UNL d   1     -38.820  14.514  19.590  0.00  0.00     0.338 S 
ATOM     11  O   UNL d   1     -39.494  14.118  19.849  0.00  0.00    -0.181 OA
ATOM     12  O   UNL d   1     -38.145  14.911  19.334  0.00  0.00    -0.181 OA
BRANCH  10  13
ATOM     13  N   UNL d   1     -38.712  14.831  20.342  0.00  0.00    -0.212 N 
ATOM     14  C   UNL d   1     -39.062  14.472  20.995  0.00  0.00     0.120 A 
ATOM     15  C   UNL d   1     -38.950  14.796  21.753  0.00  0.00     0.142 A 
ATOM     16  O   UNL d   1     -38.487  15.474  21.843  0.00  0.00    -0.300 OA
ATOM     17  C   UNL d   1     -38.143  15.823  21.189  0.00  0.00     0.142 A 
ATOM     18  C   UNL d   1     -38.251  15.508  20.441  0.00  0.00     0.120 A 
ENDBRANCH  10  13
ENDBRANCH   1  10
BRANCH   2  19
ATOM     19  C   UNL d   1     -39.732  15.292  18.244  0.00  0.00     0.038 C 
BRANCH  19  20
ATOM     20  C   UNL d   1     -40.245  15.503  17.636  0.00  0.00     0.003 A 
ATOM     21  C   UNL d   1     -41.060  15.519  17.779  0.00  0.00     0.000 A 
ATOM     22  C   UNL d   1     -41.573  15.729  17.172  0.00  0.00     0.000 A 
ATOM     23  C   UNL d   1     -41.285  15.922  16.432  0.00  0.00     0.000 A 
ATOM     24  C   UNL d   1     -40.466  15.906  16.289  0.00  0.00     0.000 A 
ATOM     25  C   UNL d   1     -39.949  15.695  16.897  0.00  0.00     0.000 A 
ENDBRANCH  19  20
ENDBRANCH   2  19
TORSDOF 4
ENDMDL
MODEL 4
REMARK VINA RESULT:      -5.8      9.190     10.465
REMARK  4 active torsions:
REMARK  status: ('A' for Active; 'I' for Inactive)
REMARK    1  A    between atoms: S_2  and  N_1 
REMARK    2  A    between atoms: N_6  and  S_2 
REMARK    3  A    between atoms: C_10  and  C_3 
REMARK    4  A    between atoms: C_14  and  C_10 
ROOT
ATOM      1  N   UNL d   1     -39.938  14.897  18.459  0.00  0.00    -0.201 N 
ATOM      2  C   UNL d   1     -39.425  14.447  17.973  0.00  0.00     0.158 A 
ATOM      3  N   UNL d   1     -39.713  14.489  17.196  0.00  0.00    -0.226 NA
ATOM      4  C   UNL d   1     -40.528  15.206  17.977  0.00  0.00     0.095 A 
ATOM      5  C   UNL d   1     -40.392  14.957  17.201  0.00  0.00     0.100 A 
ATOM      6  C   UNL d   1     -41.174  15.686  18.153  0.00  0.00     0.020 A 
ATOM      7  C   UNL d   1     -40.908  15.192  16.602  0.00  0.00     0.021 A 
ATOM      8  C   UNL d   1     -41.690  15.921  17.555  0.00  0.00     0.002 A 
ATOM      9  C   UNL d   1     -41.558  15.673  16.775  0.00  0.00     0.002 A 
ENDROOT
BRANCH   1  10
ATOM     10  S   UNL d   1     -39.863  15.007  19.264  0.00  0.00     0.338 S 
ATOM     11  O   UNL d   1     -40.343  14.354  19.406  0.00  0.00    -0.181 OA
ATOM     12  O   UNL d   1     -39.382  15.661  19.125  0.00  0.00    -0.181 OA
BRANCH  10  13
ATOM     13  N   UNL d   1     -39.779  15.128  20.074  0.00  0.00    -0.212 N 
ATOM     14  C   UNL d   1     -39.336  15.763  20.352  0.00  0.00     0.120 A 
ATOM     15  C   UNL d   1     -39.254  15.882  21.171  0.00  0.00     0.142 A 
ATOM     16  O   UNL d   1     -39.619  15.361  21.698  0.00  0.00    -0.300 OA
ATOM     17  C   UNL d   1     -40.058  14.733  21.413  0.00  0.00     0.142 A 
ATOM     18  C   UNL d   1     -40.141  14.613  20.607  0.00  0.00     0.120 A 
ENDBRANCH  10  13
ENDBRANCH   1  10
BRANCH   2  19
ATOM     19  C   UNL d   1     -38.754  14.036  18.227  0.00  0.00     0.038 C 
BRANCH  19  20
ATOM     20  C   UNL d   1     -38.482  13.395  17.789  0.00  0.00     0.003 A 
ATOM     21  C   UNL d   1     -38.444  12.648  18.141  0.00  0.00     0.000 A 
ATOM     22  C   UNL d   1     -38.172  12.007  17.704  0.00  0.00     0.000 A 
ATOM     23  C   UNL d   1     -37.940  12.103  16.926  0.00  0.00     0.000 A 
ATOM     24  C   UNL d   1     -37.977  12.854  16.572  0.00  0.00     0.000 A 
ATOM     25  C   UNL d   1     -38.250  13.499  17.010  0.00  0.00     0.000 A 
ENDBRANCH  19  20
ENDBRANCH   2  19
TORSDOF 4
ENDMDL
MODEL 5
REMARK VINA RESULT:      -5.7      8.709     10.306
REMARK  4 active torsions:
REMARK  status: ('A' for Active; 'I' for Inactive)
REMARK    1  A    between atoms: S_2  and  N_1 
REMARK    2  A    between atoms: N_6  and  S_2 
REMARK    3  A    between atoms: C_10  and  C_3 
REMARK    4  A    between atoms: C_14  and  C_10 
ROOT
ATOM      1  N   UNL d   1     -39.543  14.659  20.603  0.00  0.00    -0.201 N 
ATOM      2  C   UNL d   1     -39.297  14.454  19.829  0.00  0.00     0.158 A 
ATOM      3  N   UNL d   1     -39.850  14.770  19.298  0.00  0.00    -0.226 NA
ATOM      4  C   UNL d   1     -40.237  15.093  20.536  0.00  0.00     0.095 A 
ATOM      5  C   UNL d   1     -40.427  15.163  19.735  0.00  0.00     0.100 A 
ATOM      6  C   UNL d   1     -40.720  15.434  21.110  0.00  0.00     0.020 A 
ATOM      7  C   UNL d   1     -41.105  15.577  19.512  0.00  0.00     0.021 A 
ATOM      8  C   UNL d   1     -41.397  15.849  20.888  0.00  0.00     0.002 A 
ATOM      9  C   UNL d   1     -41.592  15.921  20.085  0.00  0.00     0.002 A 
ENDROOT
BRANCH   1  10
ATOM     10  S   UNL d   1     -39.160  14.461  21.297  0.00  0.00     0.338 S 
ATOM     11  O   UNL d   1     -38.667  15.115  21.221  0.00  0.00    -0.181 OA
ATOM     12  O   UNL d   1     -39.653  13.804  21.375  0.00  0.00    -0.181 OA
BRANCH  10  13
ATOM     13  N   UNL d   1     -38.782  14.250  21.997  0.00  0.00    -0.212 N 
ATOM     14  C   UNL d   1     -38.861  13.488  22.295  0.00  0.00     0.120 A 
ATOM     15  C   UNL d   1     -38.478  13.279  23.003  0.00  0.00     0.142 A 
ATOM     16  O   UNL d   1     -38.021  13.841  23.400  0.00  0.00    -0.300 OA
ATOM     17  C   UNL d   1     -37.948  14.596  23.097  0.00  0.00     0.142 A 
ATOM     18  C   UNL d   1     -38.324  14.806  22.400  0.00  0.00     0.120 A 
ENDBRANCH  10  13
ENDBRANCH   1  10
BRANCH   2  19
ATOM     19  C   UNL d   1     -38.622  14.016  19.634  0.00  0.00     0.038 C 
BRANCH  19  20
ATOM     20  C   UNL d   1     -38.483  13.814  18.849  0.00  0.00     0.003 A 
ATOM     21  C   UNL d   1     -38.088  14.348  18.356  0.00  0.00     0.000 A 
ATOM     22  C   UNL d   1     -37.949  14.147  17.571  0.00  0.00     0.000 A 
ATOM     23  C   UNL d   1     -38.197  13.426  17.276  0.00  0.00     0.000 A 
ATOM     24  C   UNL d   1     -38.594  12.890  17.772  0.00  0.00     0.000 A 
ATOM     25  C   UNL d   1     -38.735  13.090  18.560  0.00  0.00     0.000 A 
ENDBRANCH  19  20
ENDBRANCH   2  19
TORSDOF 4
ENDMDL
MODEL 6
REMARK VINA RESULT:      -5.5      8.721     10.451
REMARK  4 active torsions:
REMARK  status: ('A' for Active; 'I' for Inactive)
REMARK    1  A    between atoms: S_2  and  N_1 
REMARK    2  A    between atoms: N_6  and  S_2 
REMARK    3  A    between atoms: C_10  and  C_3 
REMARK    4  A    between atoms: C_14  and  C_10 
ROOT
ATOM      1  N   UNL d   1     -39.498  14.838  19.982  0.00  0.00    -0.201 N 
ATOM      2  C   UNL d   1     -39.235  14.596  20.741  0.00  0.00     0.158 A 
ATOM      3  N   UNL d   1     -39.806  14.837  21.292  0.00  0.00    -0.226 NA
ATOM      4  C   UNL d   1     -40.219  15.219  20.080  0.00  0.00     0.095 A 
ATOM      5  C   UNL d   1     -40.410  15.220  20.883  0.00  0.00     0.100 A 
ATOM      6  C   UNL d   1     -40.725  15.567  19.530  0.00  0.00     0.020 A 
ATOM      7  C   UNL d   1     -41.113  15.572  21.133  0.00  0.00     0.021 A 
ATOM      8  C   UNL d   1     -41.428  15.918  19.780  0.00  0.00     0.002 A 
ATOM      9  C   UNL d   1     -41.624  15.922  20.585  0.00  0.00     0.002 A 
ENDROOT
BRANCH   1  10
ATOM     10  S   UNL d   1     -39.105  14.714  19.277  0.00  0.00     0.338 S 
ATOM     11  O   UNL d   1     -38.638  15.378  19.411  0.00  0.00    -0.181 OA
ATOM     12  O   UNL d   1     -39.572  14.049  19.140  0.00  0.00    -0.181 OA
BRANCH  10  13
ATOM     13  N   UNL d   1     -38.718  14.579  18.564  0.00  0.00    -0.212 N 
ATOM     14  C   UNL d   1     -38.339  15.199  18.177  0.00  0.00     0.120 A 
ATOM     15  C   UNL d   1     -37.948  15.058  17.456  0.00  0.00     0.142 A 
ATOM     16  O   UNL d   1     -37.944  14.297  17.136  0.00  0.00    -0.300 OA
ATOM     17  C   UNL d   1     -38.323  13.687  17.527  0.00  0.00     0.142 A 
ATOM     18  C   UNL d   1     -38.709  13.822  18.236  0.00  0.00     0.120 A 
ENDBRANCH  10  13
ENDBRANCH   1  10
BRANCH   2  19
ATOM     19  C   UNL d   1     -38.532  14.191  20.904  0.00  0.00     0.038 C 
BRANCH  19  20
ATOM     20  C   UNL d   1     -38.373  13.952  21.675  0.00  0.00     0.003 A 
ATOM     21  C   UNL d   1     -38.099  14.507  22.224  0.00  0.00     0.000 A 
ATOM     22  C   UNL d   1     -37.940  14.269  22.995  0.00  0.00     0.000 A 
ATOM     23  C   UNL d   1     -38.050  13.491  23.221  0.00  0.00     0.000 A 
ATOM     24  C   UNL d   1     -38.326  12.934  22.669  0.00  0.00     0.000 A 
ATOM     25  C   UNL d   1     -38.486  13.171  21.895  0.00  0.00     0.000 A 
ENDBRANCH  19  20
ENDBRANCH   2  19
TORSDOF 4
ENDMDL
MODEL 7
REMARK VINA RESULT:      -5.2      1.722      3.064
REMARK  4 active torsions:
REMARK  status: ('A' for Active; 'I' for Inactive)
REMARK    1  A    between atoms: S_2  and  N_1 
REMARK    2  A    between atoms: N_6  and  S_2 
REMARK    3  A    between atoms: C_10  and  C_3 
REMARK    4  A    between atoms: C_14  and  C_10 
ROOT
ATOM      1  N   UNL d   1     -47.665  13.078  22.905  0.00  0.00    -0.201 N 
ATOM      2  C   UNL d   1     -46.948  12.659  23.021  0.00  0.00     0.158 A 
ATOM      3  N   UNL d   1     -46.326  13.205  22.963  0.00  0.00    -0.226 NA
ATOM      4  C   UNL d   1     -47.473  13.867  22.778  0.00  0.00     0.095 A 
ATOM      5  C   UNL d   1     -46.651  13.947  22.813  0.00  0.00     0.100 A 
ATOM      6  C   UNL d   1     -47.950  14.523  22.635  0.00  0.00     0.020 A 
ATOM      7  C   UNL d   1     -46.310  14.690  22.703  0.00  0.00     0.021 A 
ATOM      8  C   UNL d   1     -47.610  15.266  22.524  0.00  0.00     0.002 A 
ATOM      9  C   UNL d   1     -46.786  15.351  22.559  0.00  0.00     0.002 A 
ENDROOT
BRANCH   1  10
ATOM     10  S   UNL d   1     -48.415  12.757  22.917  0.00  0.00     0.338 S 
ATOM     11  O   UNL d   1     -48.329  12.507  22.137  0.00  0.00    -0.181 OA
ATOM     12  O   UNL d   1     -48.504  13.006  23.697  0.00  0.00    -0.181 OA
BRANCH  10  13
ATOM     13  N   UNL d   1     -49.173  12.437  22.941  0.00  0.00    -0.212 N 
ATOM     14  C   UNL d   1     -49.573  12.378  23.658  0.00  0.00     0.120 A 
ATOM     15  C   UNL d   1     -50.339  12.054  23.678  0.00  0.00     0.142 A 
ATOM     16  O   UNL d   1     -50.691  11.796  22.977  0.00  0.00    -0.300 OA
ATOM     17  C   UNL d   1     -50.287  11.858  22.269  0.00  0.00     0.142 A 
ATOM     18  C   UNL d   1     -49.532  12.176  22.245  0.00  0.00     0.120 A 
ENDBRANCH  10  13
ENDBRANCH   1  10
BRANCH   2  19
ATOM     19  C   UNL d   1     -46.879  11.848  23.168  0.00  0.00     0.038 C 
BRANCH  19  20
ATOM     20  C   UNL d   1     -46.131  11.509  23.226  0.00  0.00     0.003 A 
ATOM     21  C   UNL d   1     -46.037  10.799  23.639  0.00  0.00     0.000 A 
ATOM     22  C   UNL d   1     -45.291  10.460  23.697  0.00  0.00     0.000 A 
ATOM     23  C   UNL d   1     -44.643  10.819  23.350  0.00  0.00     0.000 A 
ATOM     24  C   UNL d   1     -44.738  11.533  22.935  0.00  0.00     0.000 A 
ATOM     25  C   UNL d   1     -45.487  11.875  22.876  0.00  0.00     0.000 A 
ENDBRANCH  19  20
ENDBRANCH   2  19
TORSDOF 4
ENDMDL
MODEL 8
REMARK VINA RESULT:      -4.7      9.530     11.182
REMARK  4 active torsions:
REMARK  status: ('A' for Active; 'I' for Inactive)
REMARK    1  A    between atoms: S_2  and  N_1 
REMARK    2  A    between atoms: N_6  and  S_2 
REMARK    3  A    between atoms: C_10  and  C_3 
REMARK    4  A    between atoms: C_14  and  C_10 
ROOT
ATOM      1  N   UNL d   1     -39.631  15.284  17.964  0.00  0.00    -0.201 N 
ATOM      2  C   UNL d   1     -39.279  15.138  17.218  0.00  0.00     0.158 A 
ATOM      3  N   UNL d   1     -39.855  15.276  16.637  0.00  0.00    -0.226 NA
ATOM      4  C   UNL d   1     -40.411  15.508  17.831  0.00  0.00     0.095 A 
ATOM      5  C   UNL d   1     -40.550  15.504  17.017  0.00  0.00     0.100 A 
ATOM      6  C   UNL d   1     -41.011  15.715  18.356  0.00  0.00     0.020 A 
ATOM      7  C   UNL d   1     -41.297  15.709  16.731  0.00  0.00     0.021 A 
ATOM      8  C   UNL d   1     -41.757  15.921  18.071  0.00  0.00     0.002 A 
ATOM      9  C   UNL d   1     -41.902  15.918  17.255  0.00  0.00     0.002 A 
ENDROOT
BRANCH   1  10
ATOM     10  S   UNL d   1     -39.264  15.215  18.690  0.00  0.00     0.338 S 
ATOM     11  O   UNL d   1     -38.800  15.875  18.526  0.00  0.00    -0.181 OA
ATOM     12  O   UNL d   1     -39.727  14.554  18.856  0.00  0.00    -0.181 OA
BRANCH  10  13
ATOM     13  N   UNL d   1     -38.901  15.135  19.424  0.00  0.00    -0.212 N 
ATOM     14  C   UNL d   1     -38.606  15.798  19.812  0.00  0.00     0.120 A 
ATOM     15  C   UNL d   1     -38.239  15.713  20.554  0.00  0.00     0.142 A 
ATOM     16  O   UNL d   1     -38.175  14.963  20.894  0.00  0.00    -0.300 OA
ATOM     17  C   UNL d   1     -38.471  14.310  20.501  0.00  0.00     0.142 A 
ATOM     18  C   UNL d   1     -38.832  14.389  19.771  0.00  0.00     0.120 A 
ENDBRANCH  10  13
ENDBRANCH   1  10
BRANCH   2  19
ATOM     19  C   UNL d   1     -38.498  14.898  17.089  0.00  0.00     0.038 C 
BRANCH  19  20
ATOM     20  C   UNL d   1     -38.311  14.477  16.407  0.00  0.00     0.003 A 
ATOM     21  C   UNL d   1     -38.311  14.865  15.677  0.00  0.00     0.000 A 
ATOM     22  C   UNL d   1     -38.124  14.444  14.996  0.00  0.00     0.000 A 
ATOM     23  C   UNL d   1     -37.940  13.649  15.035  0.00  0.00     0.000 A 
ATOM     24  C   UNL d   1     -37.940  13.259  15.770  0.00  0.00     0.000 A 
ATOM     25  C   UNL d   1     -38.127  13.680  16.455  0.00  0.00     0.000 A 
ENDBRANCH  19  20
ENDBRANCH   2  19
TORSDOF 4
ENDMDL
