MODEL 1
REMARK VINA RESULT:     -10.2      0.000      0.000
REMARK  1 active torsions:
REMARK  status: ('A' for Active; 'I' for Inactive)
REMARK    1  A    between atoms: C_9  and  C_5 
ROOT
ATOM      1  C   UNL d   1     -48.153  13.057  23.091  0.00  0.00     0.062 A 
ATOM      2  C   UNL d   1     -48.863  13.418  22.945  0.00  0.00     0.197 A 
ATOM      3  C   UNL d   1     -48.149  12.246  23.345  0.00  0.00     0.044 A 
ATOM      4  C   UNL d   1     -47.446  13.486  22.991  0.00  0.00     0.112 A 
ATOM      5  C   UNL d   1     -46.736  13.083  23.150  0.00  0.00     0.084 A 
ATOM      6  C   UNL d   1     -48.855  11.832  23.442  0.00  0.00     0.196 A 
ATOM      7  C   UNL d   1     -49.599  13.003  23.040  0.00  0.00     0.042 A 
ATOM      8  C   UNL d   1     -49.595  12.220  23.285  0.00  0.00     0.042 A 
ATOM      9  C   UNL d   1     -47.438  11.857  23.500  0.00  0.00     0.004 A 
ATOM     10  C   UNL d   1     -46.731  12.236  23.415  0.00  0.00     0.008 A 
ATOM     11  O   UNL d   1     -48.867  14.229  22.692  0.00  0.00    -0.286 OA
ATOM     12  O   UNL d   1     -48.851  11.014  23.697  0.00  0.00    -0.287 OA
ATOM     13  N   UNL d   1     -47.450  14.255  22.750  0.00  0.00    -0.148 N 
ATOM     14  C   UNL d   1     -50.310  13.392  22.885  0.00  0.00     0.003 A 
ATOM     15  C   UNL d   1     -50.302  11.805  23.382  0.00  0.00     0.003 A 
ATOM     16  C   UNL d   1     -51.017  13.006  22.973  0.00  0.00     0.000 A 
ATOM     17  C   UNL d   1     -51.013  12.194  23.227  0.00  0.00     0.000 A 
ENDROOT
BRANCH   5  18
ATOM     18  C   UNL d   1     -46.051  13.518  23.046  0.00  0.00     0.212 C 
ATOM     19  O   UNL d   1     -45.817  13.992  23.661  0.00  0.00    -0.644 OA
ATOM     20  O   UNL d   1     -45.628  13.461  22.328  0.00  0.00    -0.644 OA
ENDBRANCH   5  18
TORSDOF 1
ENDMDL
MODEL 2
REMARK VINA RESULT:      -9.9      1.395      3.185
REMARK  1 active torsions:
REMARK  status: ('A' for Active; 'I' for Inactive)
REMARK    1  A    between atoms: C_9  and  C_5 
ROOT
ATOM      1  C   UNL d   1     -48.293  13.621  23.079  0.00  0.00     0.062 A 
ATOM      2  C   UNL d   1     -48.371  12.844  23.296  0.00  0.00     0.197 A 
ATOM      3  C   UNL d   1     -47.514  13.932  22.940  0.00  0.00     0.044 A 
ATOM      4  C   UNL d   1     -48.973  14.095  22.997  0.00  0.00     0.112 A 
ATOM      5  C   UNL d   1     -48.854  14.888  22.773  0.00  0.00     0.084 A 
ATOM      6  C   UNL d   1     -46.848  13.453  23.025  0.00  0.00     0.196 A 
ATOM      7  C   UNL d   1     -47.693  12.339  23.387  0.00  0.00     0.042 A 
ATOM      8  C   UNL d   1     -46.942  12.639  23.253  0.00  0.00     0.042 A 
ATOM      9  C   UNL d   1     -47.409  14.720  22.719  0.00  0.00     0.004 A 
ATOM     10  C   UNL d   1     -48.041  15.212  22.628  0.00  0.00     0.008 A 
ATOM     11  O   UNL d   1     -49.150  12.533  23.435  0.00  0.00    -0.286 OA
ATOM     12  O   UNL d   1     -46.063  13.766  22.885  0.00  0.00    -0.287 OA
ATOM     13  N   UNL d   1     -49.710  13.800  23.129  0.00  0.00    -0.148 N 
ATOM     14  C   UNL d   1     -47.799  11.551  23.608  0.00  0.00     0.003 A 
ATOM     15  C   UNL d   1     -46.276  12.160  23.337  0.00  0.00     0.003 A 
ATOM     16  C   UNL d   1     -47.160  11.061  23.697  0.00  0.00     0.000 A 
ATOM     17  C   UNL d   1     -46.381  11.372  23.559  0.00  0.00     0.000 A 
ENDROOT
BRANCH   5  18
ATOM     18  C   UNL d   1     -49.531  15.339  22.697  0.00  0.00     0.212 C 
ATOM     19  O   UNL d   1     -49.758  15.777  23.341  0.00  0.00    -0.644 OA
ATOM     20  O   UNL d   1     -49.956  15.333  21.977  0.00  0.00    -0.644 OA
ENDBRANCH   5  18
TORSDOF 1
ENDMDL
MODEL 3
REMARK VINA RESULT:      -9.8      0.736      1.688
REMARK  1 active torsions:
REMARK  status: ('A' for Active; 'I' for Inactive)
REMARK    1  A    between atoms: C_9  and  C_5 
ROOT
ATOM      1  C   UNL d   1     -48.142  12.996  23.136  0.00  0.00     0.062 A 
ATOM      2  C   UNL d   1     -48.575  12.356  23.378  0.00  0.00     0.197 A 
ATOM      3  C   UNL d   1     -48.551  13.688  22.859  0.00  0.00     0.044 A 
ATOM      4  C   UNL d   1     -47.310  12.964  23.165  0.00  0.00     0.112 A 
ATOM      5  C   UNL d   1     -46.898  13.641  22.909  0.00  0.00     0.084 A 
ATOM      6  C   UNL d   1     -49.375  13.708  22.835  0.00  0.00     0.196 A 
ATOM      7  C   UNL d   1     -49.425  12.363  23.359  0.00  0.00     0.042 A 
ATOM      8  C   UNL d   1     -49.820  13.030  23.091  0.00  0.00     0.042 A 
ATOM      9  C   UNL d   1     -48.131  14.353  22.608  0.00  0.00     0.004 A 
ATOM     10  C   UNL d   1     -47.325  14.363  22.619  0.00  0.00     0.008 A 
ATOM     11  O   UNL d   1     -48.166  11.665  23.655  0.00  0.00    -0.286 OA
ATOM     12  O   UNL d   1     -49.787  14.405  22.555  0.00  0.00    -0.287 OA
ATOM     13  N   UNL d   1     -46.922  12.309  23.427  0.00  0.00    -0.148 N 
ATOM     14  C   UNL d   1     -49.844  11.699  23.610  0.00  0.00     0.003 A 
ATOM     15  C   UNL d   1     -50.644  13.051  23.067  0.00  0.00     0.003 A 
ATOM     16  C   UNL d   1     -50.654  11.694  23.596  0.00  0.00     0.000 A 
ATOM     17  C   UNL d   1     -51.063  12.386  23.319  0.00  0.00     0.000 A 
ENDROOT
BRANCH   5  18
ATOM     18  C   UNL d   1     -46.083  13.593  22.943  0.00  0.00     0.212 C 
ATOM     19  O   UNL d   1     -45.733  13.747  23.658  0.00  0.00    -0.644 OA
ATOM     20  O   UNL d   1     -45.649  13.391  22.257  0.00  0.00    -0.644 OA
ENDBRANCH   5  18
TORSDOF 1
ENDMDL
MODEL 4
REMARK VINA RESULT:      -9.3      1.115      1.474
REMARK  1 active torsions:
REMARK  status: ('A' for Active; 'I' for Inactive)
REMARK    1  A    between atoms: C_9  and  C_5 
ROOT
ATOM      1  C   UNL d   1     -48.198  13.898  22.950  0.00  0.00     0.062 A 
ATOM      2  C   UNL d   1     -48.582  14.610  22.911  0.00  0.00     0.197 A 
ATOM      3  C   UNL d   1     -48.652  13.195  23.100  0.00  0.00     0.044 A 
ATOM      4  C   UNL d   1     -47.373  13.869  22.842  0.00  0.00     0.112 A 
ATOM      5  C   UNL d   1     -47.013  13.120  22.889  0.00  0.00     0.084 A 
ATOM      6  C   UNL d   1     -49.469  13.235  23.204  0.00  0.00     0.196 A 
ATOM      7  C   UNL d   1     -49.424  14.667  23.017  0.00  0.00     0.042 A 
ATOM      8  C   UNL d   1     -49.861  13.989  23.161  0.00  0.00     0.042 A 
ATOM      9  C   UNL d   1     -48.284  12.457  23.144  0.00  0.00     0.004 A 
ATOM     10  C   UNL d   1     -47.487  12.386  23.046  0.00  0.00     0.008 A 
ATOM     11  O   UNL d   1     -48.128  15.313  22.761  0.00  0.00    -0.286 OA
ATOM     12  O   UNL d   1     -49.927  12.527  23.355  0.00  0.00    -0.287 OA
ATOM     13  N   UNL d   1     -46.943  14.535  22.700  0.00  0.00    -0.148 N 
ATOM     14  C   UNL d   1     -49.791  15.404  22.973  0.00  0.00     0.003 A 
ATOM     15  C   UNL d   1     -50.678  14.029  23.266  0.00  0.00     0.003 A 
ATOM     16  C   UNL d   1     -50.593  15.470  23.072  0.00  0.00     0.000 A 
ATOM     17  C   UNL d   1     -51.047  14.767  23.222  0.00  0.00     0.000 A 
ENDROOT
BRANCH   5  18
ATOM     18  C   UNL d   1     -46.203  13.109  22.782  0.00  0.00     0.212 C 
ATOM     19  O   UNL d   1     -45.741  13.093  23.448  0.00  0.00    -0.644 OA
ATOM     20  O   UNL d   1     -45.886  13.116  22.008  0.00  0.00    -0.644 OA
ENDBRANCH   5  18
TORSDOF 1
ENDMDL
MODEL 5
REMARK VINA RESULT:      -8.7      1.398      2.272
REMARK  1 active torsions:
REMARK  status: ('A' for Active; 'I' for Inactive)
REMARK    1  A    between atoms: C_9  and  C_5 
ROOT
ATOM      1  C   UNL d   1     -47.922  13.152  23.193  0.00  0.00     0.062 A 
ATOM      2  C   UNL d   1     -48.720  13.193  23.321  0.00  0.00     0.197 A 
ATOM      3  C   UNL d   1     -47.520  13.834  22.882  0.00  0.00     0.044 A 
ATOM      4  C   UNL d   1     -47.513  12.448  23.368  0.00  0.00     0.112 A 
ATOM      5  C   UNL d   1     -46.693  12.443  23.223  0.00  0.00     0.084 A 
ATOM      6  C   UNL d   1     -47.935  14.526  22.712  0.00  0.00     0.196 A 
ATOM      7  C   UNL d   1     -49.161  13.900  23.151  0.00  0.00     0.042 A 
ATOM      8  C   UNL d   1     -48.774  14.558  22.851  0.00  0.00     0.042 A 
ATOM      9  C   UNL d   1     -46.707  13.816  22.742  0.00  0.00     0.004 A 
ATOM     10  C   UNL d   1     -46.274  13.154  22.898  0.00  0.00     0.008 A 
ATOM     11  O   UNL d   1     -49.121  12.512  23.633  0.00  0.00    -0.286 OA
ATOM     12  O   UNL d   1     -47.531  15.213  22.398  0.00  0.00    -0.287 OA
ATOM     13  N   UNL d   1     -47.893  11.802  23.663  0.00  0.00    -0.148 N 
ATOM     14  C   UNL d   1     -49.974  13.917  23.290  0.00  0.00     0.003 A 
ATOM     15  C   UNL d   1     -49.189  15.250  22.681  0.00  0.00     0.003 A 
ATOM     16  C   UNL d   1     -50.404  14.586  23.132  0.00  0.00     0.000 A 
ATOM     17  C   UNL d   1     -50.002  15.267  22.820  0.00  0.00     0.000 A 
ENDROOT
BRANCH   5  18
ATOM     18  C   UNL d   1     -46.307  11.744  23.400  0.00  0.00     0.212 C 
ATOM     19  O   UNL d   1     -45.555  11.802  23.697  0.00  0.00    -0.644 OA
ATOM     20  O   UNL d   1     -46.693  11.013  23.273  0.00  0.00    -0.644 OA
ENDBRANCH   5  18
TORSDOF 1
ENDMDL
MODEL 6
REMARK VINA RESULT:      -8.7      0.967      2.971
REMARK  1 active torsions:
REMARK  status: ('A' for Active; 'I' for Inactive)
REMARK    1  A    between atoms: C_9  and  C_5 
ROOT
ATOM      1  C   UNL d   1     -47.673  13.292  23.108  0.00  0.00     0.062 A 
ATOM      2  C   UNL d   1     -46.888  13.095  23.114  0.00  0.00     0.197 A 
ATOM      3  C   UNL d   1     -48.247  12.698  23.305  0.00  0.00     0.044 A 
ATOM      4  C   UNL d   1     -47.899  14.070  22.911  0.00  0.00     0.112 A 
ATOM      5  C   UNL d   1     -48.715  14.236  22.915  0.00  0.00     0.084 A 
ATOM      6  C   UNL d   1     -48.011  11.932  23.499  0.00  0.00     0.196 A 
ATOM      7  C   UNL d   1     -46.629  12.309  23.312  0.00  0.00     0.042 A 
ATOM      8  C   UNL d   1     -47.184  11.735  23.502  0.00  0.00     0.042 A 
ATOM      9  C   UNL d   1     -49.053  12.876  23.306  0.00  0.00     0.004 A 
ATOM     10  C   UNL d   1     -49.314  13.616  23.121  0.00  0.00     0.008 A 
ATOM     11  O   UNL d   1     -46.313  13.689  22.917  0.00  0.00    -0.286 OA
ATOM     12  O   UNL d   1     -48.591  11.333  23.698  0.00  0.00    -0.287 OA
ATOM     13  N   UNL d   1     -47.355  14.633  22.724  0.00  0.00    -0.148 N 
ATOM     14  C   UNL d   1     -45.824  12.132  23.311  0.00  0.00     0.003 A 
ATOM     15  C   UNL d   1     -46.948  10.969  23.696  0.00  0.00     0.003 A 
ATOM     16  C   UNL d   1     -45.567  11.386  23.498  0.00  0.00     0.000 A 
ATOM     17  C   UNL d   1     -46.142  10.792  23.695  0.00  0.00     0.000 A 
ENDROOT
BRANCH   5  18
ATOM     18  C   UNL d   1     -48.920  15.003  22.719  0.00  0.00     0.212 C 
ATOM     19  O   UNL d   1     -49.198  15.476  23.317  0.00  0.00    -0.644 OA
ATOM     20  O   UNL d   1     -48.838  15.266  21.930  0.00  0.00    -0.644 OA
ENDBRANCH   5  18
TORSDOF 1
ENDMDL
