MODEL 1
REMARK VINA RESULT:      93.2      0.000      0.000
REMARK  5 active torsions:
REMARK  status: ('A' for Active; 'I' for Inactive)
REMARK    1  A    between atoms: C_13  and  C_2 
REMARK       I    between atoms: N_7  and  C_10 
REMARK    2  A    between atoms: S_14  and  C_8 
REMARK    3  A    between atoms: C_20  and  N_9 
REMARK    4  A    between atoms: C_10  and  C_19 
REMARK    5  A    between atoms: C_19  and  S_14 
ROOT
ATOM      1  S   UNL d   1      60.199  49.705  52.328  0.00  0.00    -0.061 SA
ENDROOT
BRANCH   1   2
ATOM      2  C   UNL d   1      59.380  49.692  52.435  0.00  0.00     0.131 A 
ATOM      3  N   UNL d   1      58.877  49.681  51.780  0.00  0.00    -0.156 NA
ATOM      4  N   UNL d   1      58.045  49.669  51.889  0.00  0.00    -0.191 N 
ATOM      5  C   UNL d   1      57.427  49.656  51.350  0.00  0.00     0.187 A 
ATOM      6  C   UNL d   1      57.740  49.667  52.648  0.00  0.00     0.187 A 
ATOM      7  N   UNL d   1      56.725  49.647  51.774  0.00  0.00    -0.127 NA
ATOM      8  N   UNL d   1      56.910  49.654  52.579  0.00  0.00    -0.127 NA
ATOM      9  C   UNL d   1      58.242  49.679  53.303  0.00  0.00     0.043 A 
ATOM     10  C   UNL d   1      59.061  49.691  53.196  0.00  0.00     0.031 A 
BRANCH   5  11
ATOM     11  C   UNL d   1      57.490  49.653  50.533  0.00  0.00     0.038 A 
ATOM     12  C   UNL d   1      56.818  49.647  50.065  0.00  0.00     0.003 A 
ATOM     13  C   UNL d   1      56.879  49.644  49.240  0.00  0.00     0.000 A 
ATOM     14  C   UNL d   1      57.629  49.647  48.890  0.00  0.00     0.000 A 
ATOM     15  C   UNL d   1      58.309  49.653  49.357  0.00  0.00     0.000 A 
ATOM     16  C   UNL d   1      58.241  49.656  50.183  0.00  0.00     0.003 A 
ENDBRANCH   5  11
ENDBRANCH   1   2
BRANCH   1  17
ATOM     17  C   UNL d   1      60.602  49.005  52.172  0.00  0.00     0.098 C 
BRANCH  17  18
ATOM     18  C   UNL d   1      61.066  48.945  51.501  0.00  0.00     0.272 C 
ATOM     19  N   UNL d   1      61.160  48.211  51.136  0.00  0.00    -0.269 N 
ATOM     20  C   UNL d   1      61.622  48.154  50.467  0.00  0.00     0.102 A 
ATOM     21  C   UNL d   1      60.786  47.545  51.450  0.00  0.00     0.102 A 
ATOM     22  C   UNL d   1      61.717  47.432  50.105  0.00  0.00     0.100 A 
ATOM     23  N   UNL d   1      61.349  46.755  50.408  0.00  0.00    -0.301 N 
ATOM     24  C   UNL d   1      60.883  46.820  51.085  0.00  0.00     0.100 A 
ATOM     25  O   UNL d   1      61.437  49.610  51.191  0.00  0.00    -0.266 OA
BRANCH  23  26
ATOM     26  C   UNL d   1      61.449  46.032  50.038  0.00  0.00     0.064 A 
ATOM     27  C   UNL d   1      61.318  45.332  50.449  0.00  0.00     0.018 A 
ATOM     28  C   UNL d   1      61.421  44.604  50.070  0.00  0.00     0.002 A 
ATOM     29  C   UNL d   1      61.652  44.584  49.286  0.00  0.00     0.000 A 
ATOM     30  C   UNL d   1      61.787  45.291  48.863  0.00  0.00     0.002 A 
ATOM     31  C   UNL d   1      61.683  46.011  49.245  0.00  0.00     0.018 A 
ENDBRANCH  23  26
ENDBRANCH  17  18
ENDBRANCH   1  17
TORSDOF 5
ENDMDL
