MODEL 1
REMARK VINA RESULT:       2.3      0.000      0.000
REMARK  5 active torsions:
REMARK  status: ('A' for Active; 'I' for Inactive)
REMARK    1  A    between atoms: S_6  and  C_2 
REMARK    2  A    between atoms: C_8  and  C_4 
REMARK    3  A    between atoms: C_11  and  S_6 
REMARK    4  A    between atoms: C_7  and  C_11 
REMARK       I    between atoms: N_9  and  C_7 
REMARK    5  A    between atoms: C_15  and  N_9 
ROOT
ATOM      1  N   UNL d   1     -43.462-122.065 -50.794  0.00  0.00    -0.244 NA
ATOM      2  C   UNL d   1     -42.780-122.269 -50.371  0.00  0.00     0.125 A 
ATOM      3  N   UNL d   1     -43.837-122.635 -49.649  0.00  0.00    -0.250 NA
ATOM      4  C   UNL d   1     -43.006-122.612 -49.681  0.00  0.00     0.101 A 
ATOM      5  C   UNL d   1     -44.180-122.269 -50.393  0.00  0.00     0.168 A 
ATOM      6  C   UNL d   1     -44.863-122.486 -49.964  0.00  0.00     0.050 C 
ATOM      7  C   UNL d   1     -44.257-121.901 -51.137  0.00  0.00     0.050 C 
ENDROOT
BRANCH   2   8
ATOM      8  S   UNL d   1     -41.995-122.140 -50.617  0.00  0.00    -0.061 SA
BRANCH   8   9
ATOM      9  C   UNL d   1     -41.809-122.141 -51.420  0.00  0.00     0.099 C 
BRANCH   9  10
ATOM     10  C   UNL d   1     -41.374-121.528 -51.741  0.00  0.00     0.286 C 
ATOM     11  N   UNL d   1     -41.191-121.525 -52.536  0.00  0.00    -0.208 NA
ATOM     12  O   UNL d   1     -41.123-120.916 -51.258  0.00  0.00    -0.265 OA
BRANCH  11  13
ATOM     13  C   UNL d   1     -41.440-122.130 -53.014  0.00  0.00     0.085 A 
ATOM     14  C   UNL d   1     -42.007-121.989 -53.582  0.00  0.00     0.019 A 
ATOM     15  C   UNL d   1     -42.269-122.599 -54.077  0.00  0.00     0.002 A 
ATOM     16  C   UNL d   1     -41.952-123.350 -53.990  0.00  0.00     0.000 A 
ATOM     17  C   UNL d   1     -41.379-123.496 -53.417  0.00  0.00     0.002 A 
ATOM     18  C   UNL d   1     -41.126-122.888 -52.933  0.00  0.00     0.019 A 
ENDBRANCH  11  13
ENDBRANCH   9  10
ENDBRANCH   8   9
ENDBRANCH   2   8
BRANCH   4  19
ATOM     19  C   UNL d   1     -42.536-122.911 -49.070  0.00  0.00     0.019 A 
ATOM     20  C   UNL d   1     -41.978-123.502 -49.226  0.00  0.00     0.002 A 
ATOM     21  C   UNL d   1     -41.514-123.797 -48.625  0.00  0.00     0.011 A 
ATOM     22  C   UNL d   1     -41.598-123.504 -47.839  0.00  0.00     0.058 A 
ATOM     23  C   UNL d   1     -42.139-122.934 -47.694  0.00  0.00     0.011 A 
ATOM     24 CL   UNL d   1     -41.123-123.807 -47.223  0.00  0.00    -0.082 Cl
ATOM     25  C   UNL d   1     -42.620-122.622 -48.300  0.00  0.00     0.002 A 
ENDBRANCH   4  19
TORSDOF 5
ENDMDL
