MODEL 1
REMARK VINA RESULT:      57.3      0.000      0.000
REMARK  4 active torsions:
REMARK  status: ('A' for Active; 'I' for Inactive)
REMARK    1  A    between atoms: C_5  and  N_1 
REMARK    2  A    between atoms: C_7  and  C_5 
REMARK    3  A    between atoms: O_11  and  C_8 
REMARK    4  A    between atoms: C_16  and  O_11 
ROOT
ATOM      1  N   UNL d   1      58.810  49.308  50.308  0.00  0.00    -0.251 N 
ATOM      2  C   UNL d   1      59.092  49.469  49.538  0.00  0.00     0.378 A 
ATOM      3  C   UNL d   1      57.990  49.383  50.304  0.00  0.00     0.092 A 
ATOM      4  O   UNL d   1      58.399  49.632  49.122  0.00  0.00    -0.258 OA
ATOM      5  C   UNL d   1      57.757  49.590  49.534  0.00  0.00     0.121 A 
ATOM      6  O   UNL d   1      59.886  49.455  49.294  0.00  0.00    -0.237 OA
ATOM      7  C   UNL d   1      57.427  49.292  50.896  0.00  0.00     0.020 A 
ATOM      8  C   UNL d   1      56.948  49.705  49.361  0.00  0.00     0.026 A 
ATOM      9  C   UNL d   1      56.618  49.407  50.721  0.00  0.00     0.002 A 
ATOM     10  C   UNL d   1      56.373  49.614  49.956  0.00  0.00     0.002 A 
ATOM     11  C   UNL d   1      56.047  49.312  51.330  0.00  0.00     0.000 C 
ENDROOT
BRANCH   1  12
ATOM     12  C   UNL d   1      59.279  49.111  50.950  0.00  0.00     0.087 C 
BRANCH  12  13
ATOM     13  C   UNL d   1      60.102  49.106  50.881  0.00  0.00     0.041 A 
ATOM     14  C   UNL d   1      60.535  48.505  51.241  0.00  0.00     0.101 A 
ATOM     15  C   UNL d   1      61.356  48.504  51.170  0.00  0.00     0.025 A 
ATOM     16  C   UNL d   1      61.742  49.095  50.746  0.00  0.00     0.002 A 
ATOM     17  C   UNL d   1      61.300  49.699  50.385  0.00  0.00     0.000 A 
ATOM     18  C   UNL d   1      60.479  49.700  50.456  0.00  0.00     0.004 A 
BRANCH  14  19
ATOM     19  O   UNL d   1      60.122  47.930  51.657  0.00  0.00    -0.307 OA
BRANCH  19  20
ATOM     20  C   UNL d   1      60.370  47.135  51.624  0.00  0.00     0.100 C 
ATOM     21  C   UNL d   1      60.888  46.840  52.197  0.00  0.00     0.027 C 
ATOM     22  C   UNL d   1      60.097  46.644  51.019  0.00  0.00     0.027 C 
ENDBRANCH  19  20
ENDBRANCH  14  19
ENDBRANCH  12  13
ENDBRANCH   1  12
TORSDOF 4
ENDMDL
