MODEL 1
REMARK VINA RESULT:      79.3      0.000      0.000
REMARK  9 active torsions:
REMARK  status: ('A' for Active; 'I' for Inactive)
REMARK    1  A    between atoms: C_5  and  C_1 
REMARK    2  A    between atoms: N_11  and  C_2 
REMARK    3  A    between atoms: C_6  and  C_5 
REMARK    4  A    between atoms: C_7  and  C_5 
REMARK       I    between atoms: N_13  and  C_6 
REMARK    5  A    between atoms: C_16  and  N_11 
REMARK    6  A    between atoms: C_17  and  N_11 
REMARK    7  A    between atoms: C_14  and  N_13 
REMARK    8  A    between atoms: C_20  and  C_14 
REMARK    9  A    between atoms: C_15  and  C_20 
ROOT
ATOM      1  C   UNL d   1     -50.686  25.966  34.338  0.00  0.00     0.117 A 
ATOM      2  C   UNL d   1     -51.377  26.140  33.922  0.00  0.00     0.145 A 
ATOM      3  N   UNL d   1     -50.434  25.185  34.410  0.00  0.00    -0.241 NA
ATOM      4  N   UNL d   1     -51.816  25.533  33.577  0.00  0.00    -0.230 NA
ATOM      5  C   UNL d   1     -51.562  24.753  33.650  0.00  0.00     0.100 A 
ATOM      6  C   UNL d   1     -50.872  24.579  34.067  0.00  0.00     0.099 A 
ATOM      7  C   UNL d   1     -52.001  24.146  33.306  0.00  0.00     0.021 A 
ATOM      8  C   UNL d   1     -50.619  23.799  34.139  0.00  0.00     0.021 A 
ATOM      9  C   UNL d   1     -51.748  23.363  33.378  0.00  0.00     0.002 A 
ATOM     10  C   UNL d   1     -51.057  23.189  33.794  0.00  0.00     0.002 A 
ENDROOT
BRANCH   1  11
ATOM     11  C   UNL d   1     -50.368  26.677  34.618  0.00  0.00     0.099 C 
BRANCH  11  12
ATOM     12  C   UNL d   1     -49.699  27.110  34.402  0.00  0.00     0.282 C 
ATOM     13  O   UNL d   1     -49.334  26.983  33.656  0.00  0.00    -0.265 OA
ATOM     14  N   UNL d   1     -49.385  27.674  34.923  0.00  0.00    -0.206 NA
BRANCH  14  15
ATOM     15  C   UNL d   1     -48.706  28.115  34.706  0.00  0.00     0.102 C 
BRANCH  15  16
ATOM     16  C   UNL d   1     -48.004  28.222  35.114  0.00  0.00     0.021 C 
BRANCH  16  17
ATOM     17  C   UNL d   1     -47.709  28.978  35.248  0.00  0.00     0.002 A 
ATOM     18  C   UNL d   1     -47.905  29.367  35.949  0.00  0.00     0.000 A 
ATOM     19  C   UNL d   1     -47.615  30.120  36.090  0.00  0.00     0.000 A 
ATOM     20  C   UNL d   1     -47.128  30.489  35.532  0.00  0.00     0.000 A 
ATOM     21  C   UNL d   1     -46.936  30.092  34.833  0.00  0.00     0.000 A 
ATOM     22  C   UNL d   1     -47.229  29.339  34.697  0.00  0.00     0.000 A 
ENDBRANCH  16  17
ENDBRANCH  15  16
ENDBRANCH  14  15
ENDBRANCH  11  12
BRANCH  11  23
ATOM     23  C   UNL d   1     -50.778  27.051  35.235  0.00  0.00     0.129 C 
ATOM     24  N   UNL d   1     -51.026  26.825  35.988  0.00  0.00    -0.146 N 
ENDBRANCH  11  23
ENDBRANCH   1  11
BRANCH   2  25
ATOM     25  N   UNL d   1     -51.488  26.959  33.943  0.00  0.00    -0.192 NA
BRANCH  25  26
ATOM     26  C   UNL d   1     -51.791  27.387  33.307  0.00  0.00     0.057 C 
ATOM     27  C   UNL d   1     -52.629  27.785  33.895  0.00  0.00     0.014 C 
ENDBRANCH  25  26
BRANCH  25  28
ATOM     28  C   UNL d   1     -51.640  27.584  33.783  0.00  0.00     0.057 C 
ATOM     29  C   UNL d   1     -52.448  28.003  33.309  0.00  0.00     0.014 C 
ENDBRANCH  25  28
ENDBRANCH   2  25
TORSDOF 9
ENDMDL
