MODEL 1
REMARK VINA RESULT:       1.9      0.000      0.000
REMARK  4 active torsions:
REMARK  status: ('A' for Active; 'I' for Inactive)
REMARK    1  A    between atoms: N_10  and  C_3 
REMARK    2  A    between atoms: C_12  and  C_5 
REMARK    3  A    between atoms: C_15  and  C_9 
REMARK    4  A    between atoms: C_19  and  N_11 
ROOT
ATOM      1  N   UNL d   1      30.562  18.128 -24.393  0.00  0.00    -0.196 N 
ATOM      2  C   UNL d   1      30.097  17.449 -24.293  0.00  0.00     0.167 A 
ATOM      3  C   UNL d   1      31.360  18.091 -24.229  0.00  0.00     0.152 A 
ATOM      4  N   UNL d   1      29.415  18.851 -24.816  0.00  0.00    -0.163 NA
ATOM      5  C   UNL d   1      29.308  17.476 -24.452  0.00  0.00     0.055 A 
ATOM      6  N   UNL d   1      30.448  16.758 -24.032  0.00  0.00    -0.227 NA
ATOM      7  C   UNL d   1      31.712  17.374 -23.961  0.00  0.00     0.057 A 
ATOM      8  C   UNL d   1      28.950  18.171 -24.716  0.00  0.00     0.104 A 
ATOM      9  C   UNL d   1      31.241  16.729 -23.871  0.00  0.00     0.086 A 
ATOM     10  C   UNL d   1      28.164  18.197 -24.874  0.00  0.00     0.023 C 
ENDROOT
BRANCH   3  11
ATOM     11  N   UNL d   1      31.840  18.785 -24.331  0.00  0.00    -0.286 N 
ATOM     12  C   UNL d   1      32.257  18.973 -25.048  0.00  0.00     0.101 A 
ATOM     13  C   UNL d   1      32.720  19.676 -25.097  0.00  0.00     0.100 A 
ATOM     14  N   UNL d   1      32.774  20.202 -24.431  0.00  0.00    -0.300 N 
ATOM     15  C   UNL d   1      32.354  20.013 -23.710  0.00  0.00     0.100 A 
ATOM     16  C   UNL d   1      31.890  19.310 -23.660  0.00  0.00     0.101 A 
BRANCH  14  17
ATOM     17  C   UNL d   1      33.239  20.909 -24.480  0.00  0.00     0.080 C 
ATOM     18  C   UNL d   1      32.878  21.661 -24.380  0.00  0.00     0.021 C 
ENDBRANCH  14  17
ENDBRANCH   3  11
BRANCH   9  19
ATOM     19  C   UNL d   1      31.604  15.999 -23.597  0.00  0.00     0.018 C 
ATOM     20  C   UNL d   1      31.387  15.685 -22.823  0.00  0.00     0.002 C 
ATOM     21  C   UNL d   1      32.175  15.590 -24.087  0.00  0.00     0.002 C 
ENDBRANCH   9  19
BRANCH   5  22
ATOM     22  C   UNL d   1      28.839  16.791 -24.351  0.00  0.00     0.004 A 
ATOM     23  C   UNL d   1      28.825  16.218 -24.932  0.00  0.00     0.000 A 
ATOM     24  C   UNL d   1      28.363  15.542 -24.832  0.00  0.00     0.000 A 
ATOM     25  C   UNL d   1      27.924  15.454 -24.153  0.00  0.00     0.000 A 
ATOM     26  C   UNL d   1      27.940  16.034 -23.569  0.00  0.00     0.000 A 
ATOM     27  C   UNL d   1      28.398  16.696 -23.675  0.00  0.00     0.000 A 
ENDBRANCH   5  22
TORSDOF 4
ENDMDL
MODEL 2
REMARK VINA RESULT:       4.5      3.756      6.210
REMARK  4 active torsions:
REMARK  status: ('A' for Active; 'I' for Inactive)
REMARK    1  A    between atoms: N_10  and  C_3 
REMARK    2  A    between atoms: C_12  and  C_5 
REMARK    3  A    between atoms: C_15  and  C_9 
REMARK    4  A    between atoms: C_19  and  N_11 
ROOT
ATOM      1  N   UNL d   1      32.815  21.513 -21.138  0.00  0.00    -0.196 N 
ATOM      2  C   UNL d   1      32.821  21.240 -21.921  0.00  0.00     0.167 A 
ATOM      3  C   UNL d   1      32.739  22.312 -20.997  0.00  0.00     0.152 A 
ATOM      4  N   UNL d   1      32.961  20.179 -20.672  0.00  0.00    -0.163 NA
ATOM      5  C   UNL d   1      32.896  20.451 -22.070  0.00  0.00     0.055 A 
ATOM      6  N   UNL d   1      32.751  21.776 -22.533  0.00  0.00    -0.227 NA
ATOM      7  C   UNL d   1      32.667  22.857 -21.635  0.00  0.00     0.057 A 
ATOM      8  C   UNL d   1      32.967  19.906 -21.454  0.00  0.00     0.104 A 
ATOM      9  C   UNL d   1      32.675  22.569 -22.385  0.00  0.00     0.086 A 
ATOM     10  C   UNL d   1      33.042  19.122 -21.605  0.00  0.00     0.023 C 
ENDROOT
BRANCH   3  11
ATOM     11  N   UNL d   1      32.732  22.596 -20.195  0.00  0.00    -0.286 N 
ATOM     12  C   UNL d   1      33.241  22.298 -19.583  0.00  0.00     0.101 A 
ATOM     13  C   UNL d   1      33.194  22.615 -18.802  0.00  0.00     0.100 A 
ATOM     14  N   UNL d   1      32.638  23.233 -18.622  0.00  0.00    -0.300 N 
ATOM     15  C   UNL d   1      32.126  23.532 -19.240  0.00  0.00     0.100 A 
ATOM     16  C   UNL d   1      32.173  23.216 -20.020  0.00  0.00     0.101 A 
BRANCH  14  17
ATOM     17  C   UNL d   1      32.591  23.552 -17.838  0.00  0.00     0.080 C 
ATOM     18  C   UNL d   1      32.600  23.039 -17.173  0.00  0.00     0.021 C 
ENDBRANCH  14  17
ENDBRANCH   3  11
BRANCH   9  19
ATOM     19  C   UNL d   1      32.601  23.129 -23.033  0.00  0.00     0.018 C 
ATOM     20  C   UNL d   1      31.912  23.648 -23.066  0.00  0.00     0.002 C 
ATOM     21  C   UNL d   1      33.206  23.171 -23.640  0.00  0.00     0.002 C 
ENDBRANCH   9  19
BRANCH   5  22
ATOM     22  C   UNL d   1      32.902  20.176 -22.860  0.00  0.00     0.004 A 
ATOM     23  C   UNL d   1      33.232  20.636 -23.448  0.00  0.00     0.000 A 
ATOM     24  C   UNL d   1      33.238  20.364 -24.227  0.00  0.00     0.000 A 
ATOM     25  C   UNL d   1      32.914  19.638 -24.401  0.00  0.00     0.000 A 
ATOM     26  C   UNL d   1      32.583  19.177 -23.804  0.00  0.00     0.000 A 
ATOM     27  C   UNL d   1      32.581  19.452 -23.040  0.00  0.00     0.000 A 
ENDBRANCH   5  22
TORSDOF 4
ENDMDL
MODEL 3
REMARK VINA RESULT:       4.9      2.712      5.829
REMARK  4 active torsions:
REMARK  status: ('A' for Active; 'I' for Inactive)
REMARK    1  A    between atoms: N_10  and  C_3 
REMARK    2  A    between atoms: C_12  and  C_5 
REMARK    3  A    between atoms: C_15  and  C_9 
REMARK    4  A    between atoms: C_19  and  N_11 
ROOT
ATOM      1  N   UNL d   1      32.840  20.219 -22.393  0.00  0.00    -0.196 N 
ATOM      2  C   UNL d   1      32.831  21.031 -22.224  0.00  0.00     0.167 A 
ATOM      3  C   UNL d   1      32.960  19.974 -23.161  0.00  0.00     0.152 A 
ATOM      4  N   UNL d   1      32.608  19.933 -21.021  0.00  0.00    -0.163 NA
ATOM      5  C   UNL d   1      32.713  21.282 -21.468  0.00  0.00     0.055 A 
ATOM      6  N   UNL d   1      32.943  21.567 -22.831  0.00  0.00    -0.227 NA
ATOM      7  C   UNL d   1      33.075  20.535 -23.779  0.00  0.00     0.057 A 
ATOM      8  C   UNL d   1      32.599  20.744 -20.853  0.00  0.00     0.104 A 
ATOM      9  C   UNL d   1      33.062  21.316 -23.592  0.00  0.00     0.086 A 
ATOM     10  C   UNL d   1      32.482  20.997 -20.101  0.00  0.00     0.023 C 
ENDROOT
BRANCH   3  11
ATOM     11  N   UNL d   1      32.970  19.142 -23.337  0.00  0.00    -0.286 N 
ATOM     12  C   UNL d   1      33.085  18.824 -24.117  0.00  0.00     0.101 A 
ATOM     13  C   UNL d   1      33.086  17.989 -24.237  0.00  0.00     0.100 A 
ATOM     14  N   UNL d   1      32.972  17.460 -23.581  0.00  0.00    -0.300 N 
ATOM     15  C   UNL d   1      32.856  17.781 -22.797  0.00  0.00     0.100 A 
ATOM     16  C   UNL d   1      32.855  18.616 -22.675  0.00  0.00     0.101 A 
BRANCH  14  17
ATOM     17  C   UNL d   1      32.973  16.621 -23.703  0.00  0.00     0.080 C 
ATOM     18  C   UNL d   1      32.249  16.210 -23.813  0.00  0.00     0.021 C 
ENDBRANCH  14  17
ENDBRANCH   3  11
BRANCH   9  19
ATOM     19  C   UNL d   1      33.179  21.885 -24.226  0.00  0.00     0.018 C 
ATOM     20  C   UNL d   1      33.237  22.725 -24.034  0.00  0.00     0.002 C 
ATOM     21  C   UNL d   1      33.238  21.621 -25.039  0.00  0.00     0.002 C 
ENDBRANCH   9  19
BRANCH   5  22
ATOM     22  C   UNL d   1      32.704  22.102 -21.298  0.00  0.00     0.004 A 
ATOM     23  C   UNL d   1      32.154  22.585 -21.659  0.00  0.00     0.000 A 
ATOM     24  C   UNL d   1      32.145  23.393 -21.492  0.00  0.00     0.000 A 
ATOM     25  C   UNL d   1      32.686  23.700 -20.968  0.00  0.00     0.000 A 
ATOM     26  C   UNL d   1      33.239  23.208 -20.606  0.00  0.00     0.000 A 
ATOM     27  C   UNL d   1      33.241  22.414 -20.776  0.00  0.00     0.000 A 
ENDBRANCH   5  22
TORSDOF 4
ENDMDL
