MODEL 1
REMARK VINA RESULT:      25.1      0.000      0.000
REMARK  3 active torsions:
REMARK  status: ('A' for Active; 'I' for Inactive)
REMARK    1  A    between atoms: C_9  and  N_1 
REMARK    2  A    between atoms: C_2  and  C_9 
REMARK    3  A    between atoms: S_13  and  C_5 
ROOT
ATOM      1  N   UNL d   1     -57.879 -98.759 -44.595  0.00  0.00    -0.265 N 
ATOM      2  C   UNL d   1     -58.318 -98.758 -45.298  0.00  0.00     0.296 A 
ATOM      3  S   UNL d   1     -59.115 -98.756 -45.092  0.00  0.00    -0.025 SA
ATOM      4  C   UNL d   1     -58.394 -98.759 -43.960  0.00  0.00     0.074 A 
ATOM      5  C   UNL d   1     -59.161 -98.757 -44.258  0.00  0.00     0.050 A 
ATOM      6  O   UNL d   1     -58.011 -98.757 -46.061  0.00  0.00    -0.259 OA
ATOM      7  C   UNL d   1     -58.273 -98.761 -43.139  0.00  0.00     0.018 A 
ATOM      8  C   UNL d   1     -59.809 -98.756 -43.744  0.00  0.00     0.008 A 
ATOM      9  C   UNL d   1     -58.917 -98.760 -42.620  0.00  0.00     0.002 A 
ATOM     10  C   UNL d   1     -59.687 -98.758 -42.934  0.00  0.00     0.001 A 
ENDROOT
BRANCH   1  11
ATOM     11  C   UNL d   1     -57.055 -98.761 -44.540  0.00  0.00     0.123 C 
BRANCH  11  12
ATOM     12  C   UNL d   1     -56.654 -99.451 -44.364  0.00  0.00     0.189 A 
ATOM     13  N   UNL d   1     -55.860 -99.522 -44.552  0.00  0.00    -0.265 N 
ATOM     14  C   UNL d   1     -55.608-100.268 -44.312  0.00  0.00     0.197 A 
ATOM     15  C   UNL d   1     -55.383 -98.956 -44.917  0.00  0.00     0.103 C 
ATOM     16  N   UNL d   1     -56.249-100.658 -43.975  0.00  0.00    -0.122 NA
ATOM     17  N   UNL d   1     -56.895-100.149 -44.008  0.00  0.00    -0.126 NA
BRANCH  14  18
ATOM     18  S   UNL d   1     -54.848-100.575 -44.393  0.00  0.00    -0.074 SA
ATOM     19  C   UNL d   1     -54.711-101.386 -44.323  0.00  0.00     0.077 C 
ENDBRANCH  14  18
ENDBRANCH  11  12
ENDBRANCH   1  11
TORSDOF 3
ENDMDL
