MODEL 1
REMARK VINA RESULT:      -4.6      0.000      0.000
REMARK  2 active torsions:
REMARK  status: ('A' for Active; 'I' for Inactive)
REMARK    1  A    between atoms: C_5  and  C_1 
REMARK    2  A    between atoms: C_7  and  C_5 
ROOT
ATOM      1  C   UNL d   1      58.171  -0.551  29.854  0.00  0.00     0.158 A 
ATOM      2  C   UNL d   1      58.326   0.238  30.033  0.00  0.00     0.131 A 
ATOM      3  O   UNL d   1      57.701  -1.002  30.370  0.00  0.00    -0.302 OA
ATOM      4  C   UNL d   1      57.537   0.117  31.250  0.00  0.00     0.044 A 
ATOM      5  C   UNL d   1      57.382  -0.672  31.070  0.00  0.00     0.102 A 
ATOM      6  N   UNL d   1      58.787   0.682  29.525  0.00  0.00    -0.146 N 
ATOM      7  C   UNL d   1      57.221   0.444  31.943  0.00  0.00     0.004 A 
ATOM      8  C   UNL d   1      56.913  -1.124  31.587  0.00  0.00     0.025 A 
ATOM      9  C   UNL d   1      56.756  -0.004  32.455  0.00  0.00     0.000 A 
ATOM     10  C   UNL d   1      56.601  -0.793  32.276  0.00  0.00     0.002 A 
ENDROOT
BRANCH   1  11
ATOM     11  C   UNL d   1      58.481  -0.875  29.171  0.00  0.00     0.220 C 
ATOM     12  O   UNL d   1      58.293  -0.549  28.455  0.00  0.00    -0.284 OA
BRANCH  11  13
ATOM     13  C   UNL d   1      58.968  -1.509  29.186  0.00  0.00     0.041 A 
ATOM     14  C   UNL d   1      59.773  -1.425  29.341  0.00  0.00     0.003 A 
ATOM     15  C   UNL d   1      60.267  -2.098  29.352  0.00  0.00     0.000 A 
ATOM     16  C   UNL d   1      59.938  -2.864  29.205  0.00  0.00     0.000 A 
ATOM     17  C   UNL d   1      59.128  -2.930  29.051  0.00  0.00     0.000 A 
ATOM     18  C   UNL d   1      60.421  -3.536  29.214  0.00  0.00     0.000 C 
ATOM     19  C   UNL d   1      58.639  -2.275  29.038  0.00  0.00     0.003 A 
ENDBRANCH  11  13
ENDBRANCH   1  11
TORSDOF 2
ENDMDL
MODEL 2
REMARK VINA RESULT:      -3.8      0.756      3.620
REMARK  2 active torsions:
REMARK  status: ('A' for Active; 'I' for Inactive)
REMARK    1  A    between atoms: C_5  and  C_1 
REMARK    2  A    between atoms: C_7  and  C_5 
ROOT
ATOM      1  C   UNL d   1      58.482  -0.373  29.632  0.00  0.00     0.158 A 
ATOM      2  C   UNL d   1      59.159  -0.119  29.237  0.00  0.00     0.131 A 
ATOM      3  O   UNL d   1      58.342  -1.187  29.720  0.00  0.00    -0.302 OA
ATOM      4  C   UNL d   1      59.551  -1.503  29.021  0.00  0.00     0.044 A 
ATOM      5  C   UNL d   1      58.874  -1.757  29.416  0.00  0.00     0.102 A 
ATOM      6  N   UNL d   1      59.296   0.682  29.150  0.00  0.00    -0.146 N 
ATOM      7  C   UNL d   1      60.079  -2.067  28.719  0.00  0.00     0.004 A 
ATOM      8  C   UNL d   1      58.735  -2.571  29.505  0.00  0.00     0.025 A 
ATOM      9  C   UNL d   1      59.940  -2.874  28.807  0.00  0.00     0.000 A 
ATOM     10  C   UNL d   1      59.263  -3.128  29.202  0.00  0.00     0.002 A 
ENDROOT
BRANCH   1  11
ATOM     11  C   UNL d   1      57.960   0.181  29.930  0.00  0.00     0.220 C 
ATOM     12  O   UNL d   1      57.578   0.681  29.421  0.00  0.00    -0.284 OA
BRANCH  11  13
ATOM     13  C   UNL d   1      57.812   0.247  30.713  0.00  0.00     0.041 A 
ATOM     14  C   UNL d   1      58.346   0.619  31.218  0.00  0.00     0.003 A 
ATOM     15  C   UNL d   1      58.176   0.678  32.033  0.00  0.00     0.000 A 
ATOM     16  C   UNL d   1      57.454   0.356  32.337  0.00  0.00     0.000 A 
ATOM     17  C   UNL d   1      56.929  -0.014  31.816  0.00  0.00     0.000 A 
ATOM     18  C   UNL d   1      57.278   0.411  33.144  0.00  0.00     0.000 C 
ATOM     19  C   UNL d   1      57.090  -0.075  31.017  0.00  0.00     0.003 A 
ENDBRANCH  11  13
ENDBRANCH   1  11
TORSDOF 2
ENDMDL
MODEL 3
REMARK VINA RESULT:      -3.4      8.506      9.552
REMARK  2 active torsions:
REMARK  status: ('A' for Active; 'I' for Inactive)
REMARK    1  A    between atoms: C_5  and  C_1 
REMARK    2  A    between atoms: C_7  and  C_5 
ROOT
ATOM      1  C   UNL d   1      59.759  -9.330  34.386  0.00  0.00     0.158 A 
ATOM      2  C   UNL d   1      60.390  -9.571  33.914  0.00  0.00     0.131 A 
ATOM      3  O   UNL d   1      59.003  -9.254  34.049  0.00  0.00    -0.302 OA
ATOM      4  C   UNL d   1      59.499  -9.657  32.766  0.00  0.00     0.044 A 
ATOM      5  C   UNL d   1      58.868  -9.416  33.238  0.00  0.00     0.102 A 
ATOM      6  N   UNL d   1      61.133  -9.646  34.245  0.00  0.00    -0.146 N 
ATOM      7  C   UNL d   1      59.366  -9.818  31.964  0.00  0.00     0.004 A 
ATOM      8  C   UNL d   1      58.112  -9.340  32.901  0.00  0.00     0.025 A 
ATOM      9  C   UNL d   1      58.617  -9.742  31.630  0.00  0.00     0.000 A 
ATOM     10  C   UNL d   1      57.986  -9.502  32.102  0.00  0.00     0.002 A 
ENDROOT
BRANCH   1  11
ATOM     11  C   UNL d   1      59.888  -9.171  35.177  0.00  0.00     0.220 C 
ATOM     12  O   UNL d   1      59.991  -9.785  35.693  0.00  0.00    -0.284 OA
BRANCH  11  13
ATOM     13  C   UNL d   1      59.915  -8.424  35.460  0.00  0.00     0.041 A 
ATOM     14  C   UNL d   1      59.235  -8.044  35.729  0.00  0.00     0.003 A 
ATOM     15  C   UNL d   1      59.282  -7.264  36.022  0.00  0.00     0.000 A 
ATOM     16  C   UNL d   1      60.029  -6.866  36.041  0.00  0.00     0.000 A 
ATOM     17  C   UNL d   1      60.702  -7.262  35.767  0.00  0.00     0.000 A 
ATOM     18  C   UNL d   1      60.085  -6.093  36.330  0.00  0.00     0.000 C 
ATOM     19  C   UNL d   1      60.662  -8.026  35.479  0.00  0.00     0.003 A 
ENDBRANCH  11  13
ENDBRANCH   1  11
TORSDOF 2
ENDMDL
MODEL 4
REMARK VINA RESULT:      -2.7      1.952      2.496
REMARK  2 active torsions:
REMARK  status: ('A' for Active; 'I' for Inactive)
REMARK    1  A    between atoms: C_5  and  C_1 
REMARK    2  A    between atoms: C_7  and  C_5 
ROOT
ATOM      1  C   UNL d   1      57.427  -0.076  30.987  0.00  0.00     0.158 A 
ATOM      2  C   UNL d   1      57.309  -0.888  31.060  0.00  0.00     0.131 A 
ATOM      3  O   UNL d   1      57.083   0.438  31.543  0.00  0.00    -0.302 OA
ATOM      4  C   UNL d   1      56.500  -0.664  32.249  0.00  0.00     0.044 A 
ATOM      5  C   UNL d   1      56.618   0.148  32.176  0.00  0.00     0.102 A 
ATOM      6  N   UNL d   1      57.647  -1.394  30.514  0.00  0.00    -0.146 N 
ATOM      7  C   UNL d   1      56.039  -0.952  32.876  0.00  0.00     0.004 A 
ATOM      8  C   UNL d   1      56.274   0.662  32.731  0.00  0.00     0.025 A 
ATOM      9  C   UNL d   1      55.698  -0.442  33.425  0.00  0.00     0.000 A 
ATOM     10  C   UNL d   1      55.817   0.370  33.352  0.00  0.00     0.002 A 
ENDROOT
BRANCH   1  11
ATOM     11  C   UNL d   1      57.881   0.209  30.371  0.00  0.00     0.220 C 
ATOM     12  O   UNL d   1      57.527   0.378  29.663  0.00  0.00    -0.284 OA
BRANCH  11  13
ATOM     13  C   UNL d   1      58.668   0.328  30.442  0.00  0.00     0.041 A 
ATOM     14  C   UNL d   1      59.001   0.562  31.159  0.00  0.00     0.003 A 
ATOM     15  C   UNL d   1      59.824   0.682  31.217  0.00  0.00     0.000 A 
ATOM     16  C   UNL d   1      60.316   0.563  30.537  0.00  0.00     0.000 A 
ATOM     17  C   UNL d   1      59.965   0.329  29.825  0.00  0.00     0.000 A 
ATOM     18  C   UNL d   1      61.133   0.680  30.585  0.00  0.00     0.000 C 
ATOM     19  C   UNL d   1      59.159   0.210  29.763  0.00  0.00     0.003 A 
ENDBRANCH  11  13
ENDBRANCH   1  11
TORSDOF 2
ENDMDL
MODEL 5
REMARK VINA RESULT:      -2.7      8.708      9.432
REMARK  2 active torsions:
REMARK  status: ('A' for Active; 'I' for Inactive)
REMARK    1  A    between atoms: C_5  and  C_1 
REMARK    2  A    between atoms: C_7  and  C_5 
ROOT
ATOM      1  C   UNL d   1      59.779  -9.567  32.824  0.00  0.00     0.158 A 
ATOM      2  C   UNL d   1      60.090  -9.551  32.061  0.00  0.00     0.131 A 
ATOM      3  O   UNL d   1      58.957  -9.638  32.928  0.00  0.00    -0.302 OA
ATOM      4  C   UNL d   1      58.748  -9.677  31.511  0.00  0.00     0.044 A 
ATOM      5  C   UNL d   1      58.437  -9.693  32.274  0.00  0.00     0.102 A 
ATOM      6  N   UNL d   1      60.897  -9.482  31.959  0.00  0.00    -0.146 N 
ATOM      7  C   UNL d   1      58.234  -9.732  30.863  0.00  0.00     0.004 A 
ATOM      8  C   UNL d   1      57.616  -9.764  32.378  0.00  0.00     0.025 A 
ATOM      9  C   UNL d   1      57.420  -9.802  30.967  0.00  0.00     0.000 A 
ATOM     10  C   UNL d   1      57.109  -9.818  31.730  0.00  0.00     0.002 A 
ENDROOT
BRANCH   1  11
ATOM     11  C   UNL d   1      60.283  -9.513  33.464  0.00  0.00     0.220 C 
ATOM     12  O   UNL d   1      61.031  -9.818  33.407  0.00  0.00    -0.284 OA
BRANCH  11  13
ATOM     13  C   UNL d   1      60.063  -9.168  34.150  0.00  0.00     0.041 A 
ATOM     14  C   UNL d   1      60.139  -8.355  34.263  0.00  0.00     0.003 A 
ATOM     15  C   UNL d   1      59.904  -8.011  34.986  0.00  0.00     0.000 A 
ATOM     16  C   UNL d   1      59.588  -8.499  35.601  0.00  0.00     0.000 A 
ATOM     17  C   UNL d   1      59.518  -9.314  35.471  0.00  0.00     0.000 A 
ATOM     18  C   UNL d   1      59.352  -8.166  36.321  0.00  0.00     0.000 C 
ATOM     19  C   UNL d   1      59.747  -9.656  34.766  0.00  0.00     0.003 A 
ENDBRANCH  11  13
ENDBRANCH   1  11
TORSDOF 2
ENDMDL
