MODEL 1
REMARK VINA RESULT:       2.1      0.000      0.000
REMARK  7 active torsions:
REMARK  status: ('A' for Active; 'I' for Inactive)
REMARK    1  A    between atoms: C_19  and  N_5 
REMARK    2  A    between atoms: C_12  and  C_6 
REMARK       I    between atoms: N_20  and  C_12 
REMARK    3  A    between atoms: C_21  and  C_19 
REMARK    4  A    between atoms: C_26  and  N_20 
REMARK    5  A    between atoms: C_23  and  C_26 
REMARK    6  A    between atoms: C_27  and  C_23 
REMARK    7  A    between atoms: O_24  and  C_27 
ROOT
ATOM      1  C   UNL d   1      33.015  19.613 -23.327  0.00  0.00     0.155 A 
ATOM      2  C   UNL d   1      32.834  19.109 -22.699  0.00  0.00     0.091 A 
ATOM      3  N   UNL d   1      33.151  20.413 -23.188  0.00  0.00    -0.210 NA
ATOM      4  N   UNL d   1      32.923  20.197 -21.783  0.00  0.00    -0.258 N 
ATOM      5  N   UNL d   1      33.060  19.317 -24.094  0.00  0.00    -0.274 N 
ATOM      6  C   UNL d   1      32.745  18.008 -23.620  0.00  0.00     0.094 A 
ATOM      7  C   UNL d   1      32.787  19.397 -21.923  0.00  0.00     0.269 A 
ATOM      8  C   UNL d   1      32.925  18.516 -24.245  0.00  0.00     0.175 A 
ATOM      9  C   UNL d   1      33.106  20.712 -22.418  0.00  0.00     0.152 A 
ATOM     10  C   UNL d   1      32.697  18.297 -22.843  0.00  0.00     0.016 A 
ATOM     11  C   UNL d   1      32.878  20.496 -21.013  0.00  0.00     0.084 A 
ATOM     12  C   UNL d   1      33.241  21.509 -22.275  0.00  0.00     0.038 A 
ATOM     13  N   UNL d   1      32.971  18.219 -25.017  0.00  0.00    -0.128 N 
ATOM     14  C   UNL d   1      33.014  21.296 -20.875  0.00  0.00     0.018 A 
ATOM     15  C   UNL d   1      33.197  21.808 -21.511  0.00  0.00     0.005 A 
ATOM     16  O   UNL d   1      32.606  18.886 -21.300  0.00  0.00    -0.266 OA
ATOM     17  C   UNL d   1      32.971  21.604 -20.109  0.00  0.00     0.002 C 
ENDROOT
BRANCH   6  18
ATOM     18  C   UNL d   1      32.610  17.211 -23.762  0.00  0.00     0.282 C 
ATOM     19  O   UNL d   1      33.238  16.706 -23.939  0.00  0.00    -0.265 OA
ATOM     20  N   UNL d   1      31.843  16.910 -23.728  0.00  0.00    -0.206 NA
BRANCH  20  21
ATOM     21  C   UNL d   1      31.696  16.111 -23.869  0.00  0.00     0.104 C 
BRANCH  21  22
ATOM     22  C   UNL d   1      30.931  15.809 -23.832  0.00  0.00     0.047 C 
BRANCH  22  23
ATOM     23  C   UNL d   1      30.548  15.763 -23.103  0.00  0.00     0.118 C 
BRANCH  23  24
ATOM     24  O   UNL d   1      29.743  15.575 -23.063  0.00  0.00    -0.326 OA
ATOM     25  C   UNL d   1      29.374  15.466 -22.333  0.00  0.00     0.181 C 
ENDBRANCH  23  24
ENDBRANCH  22  23
ENDBRANCH  21  22
ENDBRANCH  20  21
ENDBRANCH   6  18
BRANCH   5  26
ATOM     26  C   UNL d   1      33.240  19.821 -24.722  0.00  0.00     0.083 C 
BRANCH  26  27
ATOM     27  C   UNL d   1      32.744  20.455 -24.907  0.00  0.00     0.019 C 
ATOM     28  C   UNL d   1      33.064  21.193 -25.096  0.00  0.00     0.002 C 
ENDBRANCH  26  27
ENDBRANCH   5  26
TORSDOF 7
ENDMDL
MODEL 2
REMARK VINA RESULT:       2.8      1.723      3.137
REMARK  7 active torsions:
REMARK  status: ('A' for Active; 'I' for Inactive)
REMARK    1  A    between atoms: C_19  and  N_5 
REMARK    2  A    between atoms: C_12  and  C_6 
REMARK       I    between atoms: N_20  and  C_12 
REMARK    3  A    between atoms: C_21  and  C_19 
REMARK    4  A    between atoms: C_26  and  N_20 
REMARK    5  A    between atoms: C_23  and  C_26 
REMARK    6  A    between atoms: C_27  and  C_23 
REMARK    7  A    between atoms: O_24  and  C_27 
ROOT
ATOM      1  C   UNL d   1      32.657  22.290 -21.396  0.00  0.00     0.155 A 
ATOM      2  C   UNL d   1      32.748  21.575 -20.995  0.00  0.00     0.091 A 
ATOM      3  N   UNL d   1      32.641  22.999 -20.977  0.00  0.00    -0.210 NA
ATOM      4  N   UNL d   1      32.809  22.266 -19.750  0.00  0.00    -0.258 N 
ATOM      5  N   UNL d   1      32.582  22.298 -22.216  0.00  0.00    -0.274 N 
ATOM      6  C   UNL d   1      32.687  20.875 -22.250  0.00  0.00     0.094 A 
ATOM      7  C   UNL d   1      32.825  21.557 -20.170  0.00  0.00     0.269 A 
ATOM      8  C   UNL d   1      32.596  21.593 -22.646  0.00  0.00     0.175 A 
ATOM      9  C   UNL d   1      32.717  22.994 -20.153  0.00  0.00     0.152 A 
ATOM     10  C   UNL d   1      32.764  20.857 -21.424  0.00  0.00     0.016 A 
ATOM     11  C   UNL d   1      32.884  22.260 -18.926  0.00  0.00     0.084 A 
ATOM     12  C   UNL d   1      32.702  23.698 -19.731  0.00  0.00     0.038 A 
ATOM     13  N   UNL d   1      32.520  21.601 -23.472  0.00  0.00    -0.128 N 
ATOM     14  C   UNL d   1      32.869  22.969 -18.508  0.00  0.00     0.018 A 
ATOM     15  C   UNL d   1      32.776  23.695 -18.914  0.00  0.00     0.005 A 
ATOM     16  O   UNL d   1      32.915  20.837 -19.776  0.00  0.00    -0.266 OA
ATOM     17  C   UNL d   1      32.943  22.973 -17.685  0.00  0.00     0.002 C 
ENDROOT
BRANCH   6  18
ATOM     18  C   UNL d   1      32.702  20.170 -22.670  0.00  0.00     0.282 C 
ATOM     19  O   UNL d   1      32.309  20.105 -23.393  0.00  0.00    -0.265 OA
ATOM     20  N   UNL d   1      33.112  19.520 -22.372  0.00  0.00    -0.206 NA
BRANCH  20  21
ATOM     21  C   UNL d   1      33.134  18.807 -22.785  0.00  0.00     0.104 C 
BRANCH  21  22
ATOM     22  C   UNL d   1      32.452  18.360 -22.894  0.00  0.00     0.047 C 
BRANCH  22  23
ATOM     23  C   UNL d   1      32.504  17.537 -22.906  0.00  0.00     0.118 C 
BRANCH  23  24
ATOM     24  O   UNL d   1      32.097  17.099 -23.477  0.00  0.00    -0.326 OA
ATOM     25  C   UNL d   1      31.365  16.759 -23.302  0.00  0.00     0.181 C 
ENDBRANCH  23  24
ENDBRANCH  22  23
ENDBRANCH  21  22
ENDBRANCH  20  21
ENDBRANCH   6  18
BRANCH   5  26
ATOM     26  C   UNL d   1      32.491  23.013 -22.617  0.00  0.00     0.083 C 
BRANCH  26  27
ATOM     27  C   UNL d   1      32.959  23.188 -23.275  0.00  0.00     0.019 C 
ATOM     28  C   UNL d   1      32.649  23.629 -23.901  0.00  0.00     0.002 C 
ENDBRANCH  26  27
ENDBRANCH   5  26
TORSDOF 7
ENDMDL
MODEL 3
REMARK VINA RESULT:       3.9      2.478      3.981
REMARK  7 active torsions:
REMARK  status: ('A' for Active; 'I' for Inactive)
REMARK    1  A    between atoms: C_19  and  N_5 
REMARK    2  A    between atoms: C_12  and  C_6 
REMARK       I    between atoms: N_20  and  C_12 
REMARK    3  A    between atoms: C_21  and  C_19 
REMARK    4  A    between atoms: C_26  and  N_20 
REMARK    5  A    between atoms: C_23  and  C_26 
REMARK    6  A    between atoms: C_27  and  C_23 
REMARK    7  A    between atoms: O_24  and  C_27 
ROOT
ATOM      1  C   UNL d   1      31.321  17.272 -24.176  0.00  0.00     0.155 A 
ATOM      2  C   UNL d   1      30.726  17.768 -24.459  0.00  0.00     0.091 A 
ATOM      3  N   UNL d   1      32.098  17.541 -24.133  0.00  0.00    -0.210 NA
ATOM      4  N   UNL d   1      31.676  18.812 -24.659  0.00  0.00    -0.258 N 
ATOM      5  N   UNL d   1      31.139  16.505 -23.936  0.00  0.00    -0.274 N 
ATOM      6  C   UNL d   1      29.765  16.717 -24.258  0.00  0.00     0.094 A 
ATOM      7  C   UNL d   1      30.899  18.542 -24.703  0.00  0.00     0.269 A 
ATOM      8  C   UNL d   1      30.364  16.224 -23.976  0.00  0.00     0.175 A 
ATOM      9  C   UNL d   1      32.282  18.310 -24.373  0.00  0.00     0.152 A 
ATOM     10  C   UNL d   1      29.939  17.492 -24.502  0.00  0.00     0.016 A 
ATOM     11  C   UNL d   1      31.861  19.582 -24.900  0.00  0.00     0.084 A 
ATOM     12  C   UNL d   1      33.056  18.583 -24.331  0.00  0.00     0.038 A 
ATOM     13  N   UNL d   1      30.181  15.453 -23.734  0.00  0.00    -0.128 N 
ATOM     14  C   UNL d   1      32.637  19.850 -24.856  0.00  0.00     0.018 A 
ATOM     15  C   UNL d   1      33.241  19.346 -24.569  0.00  0.00     0.005 A 
ATOM     16  O   UNL d   1      30.299  19.033 -24.985  0.00  0.00    -0.266 OA
ATOM     17  C   UNL d   1      32.831  20.618 -25.094  0.00  0.00     0.002 C 
ENDROOT
BRANCH   6  18
ATOM     18  C   UNL d   1      28.992  16.446 -24.300  0.00  0.00     0.282 C 
ATOM     19  O   UNL d   1      28.725  16.045 -24.970  0.00  0.00    -0.265 OA
ATOM     20  N   UNL d   1      28.475  16.573 -23.671  0.00  0.00    -0.206 NA
BRANCH  20  21
ATOM     21  C   UNL d   1      27.696  16.305 -23.702  0.00  0.00     0.104 C 
BRANCH  21  22
ATOM     22  C   UNL d   1      27.229  16.283 -23.025  0.00  0.00     0.047 C 
BRANCH  22  23
ATOM     23  C   UNL d   1      26.418  16.421 -23.087  0.00  0.00     0.118 C 
BRANCH  23  24
ATOM     24  O   UNL d   1      25.876  15.819 -22.920  0.00  0.00    -0.326 OA
ATOM     25  C   UNL d   1      25.401  15.506 -23.518  0.00  0.00     0.181 C 
ENDBRANCH  23  24
ENDBRANCH  22  23
ENDBRANCH  21  22
ENDBRANCH  20  21
ENDBRANCH   6  18
BRANCH   5  26
ATOM     26  C   UNL d   1      31.734  16.008 -23.653  0.00  0.00     0.083 C 
BRANCH  26  27
ATOM     27  C   UNL d   1      31.866  15.931 -22.841  0.00  0.00     0.019 C 
ATOM     28  C   UNL d   1      32.506  15.488 -22.563  0.00  0.00     0.002 C 
ENDBRANCH  26  27
ENDBRANCH   5  26
TORSDOF 7
ENDMDL
