MODEL 1
REMARK VINA RESULT:      -3.6      0.000      0.000
REMARK  4 active torsions:
REMARK  status: ('A' for Active; 'I' for Inactive)
REMARK    1  A    between atoms: S_10  and  C_3 
REMARK    2  A    between atoms: C_11  and  C_7 
REMARK    3  A    between atoms: C_13  and  S_10 
REMARK    4  A    between atoms: C_14  and  C_13 
ROOT
ATOM      1  N   UNL d   1      31.946  16.681 -24.031  0.00  0.00    -0.186 N 
ATOM      2  N   UNL d   1      31.162  16.706 -23.804  0.00  0.00    -0.162 NA
ATOM      3  C   UNL d   1      32.581  17.192 -23.882  0.00  0.00     0.217 A 
ATOM      4  C   UNL d   1      32.231  16.062 -24.495  0.00  0.00     0.187 A 
ATOM      5  N   UNL d   1      33.241  16.882 -24.254  0.00  0.00    -0.120 NA
ATOM      6  N   UNL d   1      33.027  16.183 -24.633  0.00  0.00    -0.127 NA
ATOM      7  C   UNL d   1      30.649  16.103 -24.044  0.00  0.00     0.102 A 
ATOM      8  C   UNL d   1      31.715  15.457 -24.734  0.00  0.00     0.042 A 
ATOM      9  C   UNL d   1      30.930  15.479 -24.509  0.00  0.00     0.024 A 
ENDROOT
BRANCH   3  10
ATOM     10  S   UNL d   1      32.571  17.891 -23.443  0.00  0.00    -0.046 SA
BRANCH  10  11
ATOM     11  C   UNL d   1      33.239  18.352 -23.385  0.00  0.00     0.038 C 
BRANCH  11  12
ATOM     12  C   UNL d   1      33.234  19.026 -22.924  0.00  0.00     0.007 A 
ATOM     13  C   UNL d   1      33.223  18.965 -22.100  0.00  0.00     0.001 A 
ATOM     14  C   UNL d   1      33.218  19.647 -21.628  0.00  0.00     0.000 A 
ATOM     15  C   UNL d   1      33.224  20.390 -21.971  0.00  0.00     0.000 A 
ATOM     16  C   UNL d   1      33.234  20.459 -22.799  0.00  0.00     0.000 A 
ATOM     17  C   UNL d   1      33.218  21.058 -21.486  0.00  0.00     0.000 C 
ATOM     18  C   UNL d   1      33.239  19.778 -23.265  0.00  0.00     0.001 A 
ENDBRANCH  11  12
ENDBRANCH  10  11
ENDBRANCH   3  10
BRANCH   7  19
ATOM     19  C   UNL d   1      29.856  16.122 -23.818  0.00  0.00     0.022 A 
ATOM     20  C   UNL d   1      29.338  16.654 -24.176  0.00  0.00     0.022 A 
ATOM     21  C   UNL d   1      28.547  16.678 -23.955  0.00  0.00     0.099 A 
ATOM     22  N   UNL d   1      28.273  16.170 -23.375  0.00  0.00    -0.242 NA
ATOM     23  C   UNL d   1      28.799  15.622 -23.004  0.00  0.00     0.099 A 
ATOM     24  C   UNL d   1      29.586  15.615 -23.240  0.00  0.00     0.022 A 
ENDBRANCH   7  19
TORSDOF 4
ENDMDL
MODEL 2
REMARK VINA RESULT:      -2.1      1.453      4.736
REMARK  4 active torsions:
REMARK  status: ('A' for Active; 'I' for Inactive)
REMARK    1  A    between atoms: S_10  and  C_3 
REMARK    2  A    between atoms: C_11  and  C_7 
REMARK    3  A    between atoms: C_13  and  S_10 
REMARK    4  A    between atoms: C_14  and  C_13 
ROOT
ATOM      1  N   UNL d   1      32.271  18.402 -23.840  0.00  0.00    -0.186 N 
ATOM      2  N   UNL d   1      32.270  18.804 -23.129  0.00  0.00    -0.162 NA
ATOM      3  C   UNL d   1      31.853  17.734 -24.097  0.00  0.00     0.217 A 
ATOM      4  C   UNL d   1      32.751  18.648 -24.464  0.00  0.00     0.187 A 
ATOM      5  N   UNL d   1      32.082  17.582 -24.869  0.00  0.00    -0.120 NA
ATOM      6  N   UNL d   1      32.637  18.146 -25.097  0.00  0.00    -0.127 NA
ATOM      7  C   UNL d   1      32.757  19.467 -23.036  0.00  0.00     0.102 A 
ATOM      8  C   UNL d   1      33.239  19.313 -24.367  0.00  0.00     0.042 A 
ATOM      9  C   UNL d   1      33.241  19.718 -23.658  0.00  0.00     0.024 A 
ENDROOT
BRANCH   3  10
ATOM     10  S   UNL d   1      31.304  17.290 -23.671  0.00  0.00    -0.046 SA
BRANCH  10  11
ATOM     11  C   UNL d   1      31.005  16.598 -23.978  0.00  0.00     0.038 C 
BRANCH  11  12
ATOM     12  C   UNL d   1      30.279  16.319 -23.729  0.00  0.00     0.007 A 
ATOM     13  C   UNL d   1      30.207  15.946 -22.995  0.00  0.00     0.001 A 
ATOM     14  C   UNL d   1      29.471  15.661 -22.738  0.00  0.00     0.000 A 
ATOM     15  C   UNL d   1      28.806  15.745 -23.209  0.00  0.00     0.000 A 
ATOM     16  C   UNL d   1      28.871  16.118 -23.948  0.00  0.00     0.000 A 
ATOM     17  C   UNL d   1      28.083  15.455 -22.938  0.00  0.00     0.000 C 
ATOM     18  C   UNL d   1      29.605  16.400 -24.200  0.00  0.00     0.001 A 
ENDBRANCH  11  12
ENDBRANCH  10  11
ENDBRANCH   3  10
BRANCH   7  19
ATOM     19  C   UNL d   1      32.760  19.877 -22.320  0.00  0.00     0.022 A 
ATOM     20  C   UNL d   1      32.312  20.563 -22.236  0.00  0.00     0.022 A 
ATOM     21  C   UNL d   1      32.312  20.976 -21.526  0.00  0.00     0.099 A 
ATOM     22  N   UNL d   1      32.760  20.703 -20.899  0.00  0.00    -0.242 NA
ATOM     23  C   UNL d   1      33.223  20.000 -20.978  0.00  0.00     0.099 A 
ATOM     24  C   UNL d   1      33.208  19.603 -21.697  0.00  0.00     0.022 A 
ENDBRANCH   7  19
TORSDOF 4
ENDMDL
MODEL 3
REMARK VINA RESULT:      -1.6      3.599      6.153
REMARK  4 active torsions:
REMARK  status: ('A' for Active; 'I' for Inactive)
REMARK    1  A    between atoms: S_10  and  C_3 
REMARK    2  A    between atoms: C_11  and  C_7 
REMARK    3  A    between atoms: C_13  and  S_10 
REMARK    4  A    between atoms: C_14  and  C_13 
ROOT
ATOM      1  N   UNL d   1      33.099  22.134 -22.699  0.00  0.00    -0.186 N 
ATOM      2  N   UNL d   1      33.023  22.127 -21.886  0.00  0.00    -0.162 NA
ATOM      3  C   UNL d   1      33.196  21.523 -23.250  0.00  0.00     0.217 A 
ATOM      4  C   UNL d   1      33.087  22.843 -23.118  0.00  0.00     0.187 A 
ATOM      5  N   UNL d   1      33.241  21.864 -23.992  0.00  0.00    -0.120 NA
ATOM      6  N   UNL d   1      33.174  22.681 -23.913  0.00  0.00    -0.127 NA
ATOM      7  C   UNL d   1      32.932  22.842 -21.479  0.00  0.00     0.102 A 
ATOM      8  C   UNL d   1      32.995  23.561 -22.708  0.00  0.00     0.042 A 
ATOM      9  C   UNL d   1      32.919  23.558 -21.895  0.00  0.00     0.024 A 
ENDROOT
BRANCH   3  10
ATOM     10  S   UNL d   1      33.241  20.712 -23.098  0.00  0.00    -0.046 SA
BRANCH  10  11
ATOM     11  C   UNL d   1      33.160  20.174 -23.703  0.00  0.00     0.038 C 
BRANCH  11  12
ATOM     12  C   UNL d   1      33.176  19.373 -23.545  0.00  0.00     0.007 A 
ATOM     13  C   UNL d   1      33.189  19.105 -22.764  0.00  0.00     0.001 A 
ATOM     14  C   UNL d   1      33.206  18.292 -22.598  0.00  0.00     0.000 A 
ATOM     15  C   UNL d   1      33.210  17.744 -23.207  0.00  0.00     0.000 A 
ATOM     16  C   UNL d   1      33.197  18.007 -23.995  0.00  0.00     0.000 A 
ATOM     17  C   UNL d   1      33.226  16.940 -23.024  0.00  0.00     0.000 C 
ATOM     18  C   UNL d   1      33.180  18.816 -24.155  0.00  0.00     0.001 A 
ENDBRANCH  11  12
ENDBRANCH  10  11
ENDBRANCH   3  10
BRANCH   7  19
ATOM     19  C   UNL d   1      32.855  22.842 -20.658  0.00  0.00     0.022 A 
ATOM     20  C   UNL d   1      33.239  22.270 -20.208  0.00  0.00     0.022 A 
ATOM     21  C   UNL d   1      33.165  22.265 -19.389  0.00  0.00     0.099 A 
ATOM     22  N   UNL d   1      32.707  22.833 -19.021  0.00  0.00    -0.242 NA
ATOM     23  C   UNL d   1      32.310  23.424 -19.477  0.00  0.00     0.099 A 
ATOM     24  C   UNL d   1      32.397  23.410 -20.294  0.00  0.00     0.022 A 
ENDBRANCH   7  19
TORSDOF 4
ENDMDL
