MODEL 1
REMARK VINA RESULT:      42.1      0.000      0.000
REMARK  7 active torsions:
REMARK  status: ('A' for Active; 'I' for Inactive)
REMARK    1  A    between atoms: S_6  and  C_1 
REMARK    2  A    between atoms: C_12  and  N_2 
REMARK       I    between atoms: N_4  and  C_8 
REMARK    3  A    between atoms: C_5  and  N_4 
REMARK    4  A    between atoms: C_15  and  S_6 
REMARK    5  A    between atoms: O_18  and  C_7 
REMARK    6  A    between atoms: C_8  and  C_15 
REMARK    7  A    between atoms: O_19  and  C_16 
ROOT
ATOM      1  N   UNL d   1      13.830  13.804  -2.871  0.00  0.00    -0.206 NA
ATOM      2  C   UNL d   1      13.968  14.596  -3.011  0.00  0.00     0.286 C 
ATOM      3  O   UNL d   1      13.917  14.903  -3.773  0.00  0.00    -0.265 OA
ENDROOT
BRANCH   2   4
ATOM      4  C   UNL d   1      14.157  15.089  -2.393  0.00  0.00     0.101 C 
BRANCH   4   5
ATOM      5  S   UNL d   1      14.939  15.157  -2.134  0.00  0.00    -0.044 SA
BRANCH   5   6
ATOM      6  C   UNL d   1      15.111  15.551  -1.427  0.00  0.00     0.180 A 
ATOM      7  N   UNL d   1      15.242  15.195  -0.701  0.00  0.00    -0.284 N 
ATOM      8  C   UNL d   1      15.393  15.797  -0.154  0.00  0.00     0.103 A 
ATOM      9  C   UNL d   1      15.352  16.530  -0.556  0.00  0.00     0.120 A 
ATOM     10  N   UNL d   1      15.179  16.365  -1.331  0.00  0.00    -0.219 NA
BRANCH   7  11
ATOM     11  C   UNL d   1      15.235  14.393  -0.509  0.00  0.00     0.066 A 
ATOM     12  C   UNL d   1      14.545  14.045  -0.219  0.00  0.00     0.018 A 
ATOM     13  C   UNL d   1      14.538  13.243  -0.027  0.00  0.00     0.002 A 
ATOM     14  C   UNL d   1      15.220  12.788  -0.125  0.00  0.00     0.000 A 
ATOM     15  C   UNL d   1      15.901  13.138  -0.413  0.00  0.00     0.002 A 
ATOM     16  C   UNL d   1      15.909  13.940  -0.605  0.00  0.00     0.018 A 
ENDBRANCH   7  11
ENDBRANCH   5   6
ENDBRANCH   4   5
ENDBRANCH   2   4
BRANCH   1  17
ATOM     17  C   UNL d   1      13.638  13.301  -3.490  0.00  0.00     0.107 A 
ATOM     18  C   UNL d   1      13.498  12.509  -3.352  0.00  0.00     0.114 A 
ATOM     19  C   UNL d   1      13.308  12.011  -3.967  0.00  0.00     0.050 A 
ATOM     20  C   UNL d   1      13.255  12.306  -4.739  0.00  0.00     0.096 A 
ATOM     21  C   UNL d   1      13.397  13.110  -4.886  0.00  0.00     0.026 A 
ATOM     22  C   UNL d   1      13.588  13.604  -4.256  0.00  0.00     0.023 A 
BRANCH  18  23
ATOM     23  O   UNL d   1      13.547  12.206  -2.592  0.00  0.00    -0.327 OA
ATOM     24  C   UNL d   1      12.905  11.779  -2.271  0.00  0.00     0.181 C 
ENDBRANCH  18  23
BRANCH  20  25
ATOM     25  O   UNL d   1      13.060  11.793  -5.365  0.00  0.00    -0.328 OA
ATOM     26  C   UNL d   1      13.377  11.926  -6.120  0.00  0.00     0.181 C 
ENDBRANCH  20  25
ENDBRANCH   1  17
TORSDOF 7
ENDMDL
MODEL 2
REMARK VINA RESULT:      43.9      1.586      2.902
REMARK  7 active torsions:
REMARK  status: ('A' for Active; 'I' for Inactive)
REMARK    1  A    between atoms: S_6  and  C_1 
REMARK    2  A    between atoms: C_12  and  N_2 
REMARK       I    between atoms: N_4  and  C_8 
REMARK    3  A    between atoms: C_5  and  N_4 
REMARK    4  A    between atoms: C_15  and  S_6 
REMARK    5  A    between atoms: O_18  and  C_7 
REMARK    6  A    between atoms: C_8  and  C_15 
REMARK    7  A    between atoms: O_19  and  C_16 
ROOT
ATOM      1  N   UNL d   1      14.070  13.973  -3.443  0.00  0.00    -0.206 NA
ATOM      2  C   UNL d   1      13.649  13.280  -3.342  0.00  0.00     0.286 C 
ATOM      3  O   UNL d   1      13.032  13.087  -3.851  0.00  0.00    -0.265 OA
ENDROOT
BRANCH   2   4
ATOM      4  C   UNL d   1      13.840  12.776  -2.735  0.00  0.00     0.101 C 
BRANCH   4   5
ATOM      5  S   UNL d   1      14.150  13.068  -2.027  0.00  0.00    -0.044 SA
BRANCH   5   6
ATOM      6  C   UNL d   1      14.010  12.670  -1.315  0.00  0.00     0.180 A 
ATOM      7  N   UNL d   1      14.331  12.865  -0.588  0.00  0.00    -0.284 N 
ATOM      8  C   UNL d   1      14.041  12.323  -0.035  0.00  0.00     0.103 A 
ATOM      9  C   UNL d   1      13.535  11.789  -0.436  0.00  0.00     0.120 A 
ATOM     10  N   UNL d   1      13.525  12.013  -1.215  0.00  0.00    -0.219 NA
BRANCH   7  11
ATOM     11  C   UNL d   1      14.849  13.479  -0.398  0.00  0.00     0.066 A 
ATOM     12  C   UNL d   1      14.553  14.225  -0.208  0.00  0.00     0.018 A 
ATOM     13  C   UNL d   1      15.071  14.838  -0.019  0.00  0.00     0.002 A 
ATOM     14  C   UNL d   1      15.886  14.705  -0.019  0.00  0.00     0.000 A 
ATOM     15  C   UNL d   1      16.175  13.963  -0.208  0.00  0.00     0.002 A 
ATOM     16  C   UNL d   1      15.656  13.350  -0.397  0.00  0.00     0.018 A 
ENDBRANCH   7  11
ENDBRANCH   5   6
ENDBRANCH   4   5
ENDBRANCH   2   4
BRANCH   1  17
ATOM     17  C   UNL d   1      13.883  14.486  -4.054  0.00  0.00     0.107 A 
ATOM     18  C   UNL d   1      13.984  15.291  -3.963  0.00  0.00     0.114 A 
ATOM     19  C   UNL d   1      13.797  15.801  -4.571  0.00  0.00     0.050 A 
ATOM     20  C   UNL d   1      13.504  15.504  -5.286  0.00  0.00     0.096 A 
ATOM     21  C   UNL d   1      13.400  14.687  -5.384  0.00  0.00     0.026 A 
ATOM     22  C   UNL d   1      13.592  14.182  -4.763  0.00  0.00     0.023 A 
BRANCH  18  23
ATOM     23  O   UNL d   1      14.273  15.596  -3.260  0.00  0.00    -0.327 OA
ATOM     24  C   UNL d   1      14.540  16.387  -3.227  0.00  0.00     0.181 C 
ENDBRANCH  18  23
BRANCH  20  25
ATOM     25  O   UNL d   1      13.315  16.028  -5.905  0.00  0.00    -0.328 OA
ATOM     26  C   UNL d   1      13.916  16.473  -6.265  0.00  0.00     0.181 C 
ENDBRANCH  20  25
ENDBRANCH   1  17
TORSDOF 7
ENDMDL
