MODEL 1
REMARK VINA RESULT:     -10.6      0.000      0.000
REMARK  3 active torsions:
REMARK  status: ('A' for Active; 'I' for Inactive)
REMARK    1  A    between atoms: C_7  and  C_1 
REMARK    2  A    between atoms: C_10  and  N_2 
REMARK    3  A    between atoms: C_14  and  C_7 
ROOT
ATOM      1  C   UNL d   1      52.837  32.390  53.420  0.00  0.00     0.155 A 
ATOM      2  N   UNL d   1      52.600  33.181  53.516  0.00  0.00    -0.277 N 
ATOM      3  C   UNL d   1      53.039  33.670  53.998  0.00  0.00     0.153 A 
ATOM      4  C   UNL d   1      53.712  33.380  54.388  0.00  0.00     0.092 A 
ATOM      5  N   UNL d   1      53.506  32.102  53.807  0.00  0.00    -0.190 NA
ATOM      6  C   UNL d   1      53.935  32.606  54.288  0.00  0.00     0.283 A 
ATOM      7  N   UNL d   1      52.808  34.469  54.100  0.00  0.00    -0.228 NA
ATOM      8  C   UNL d   1      54.149  33.890  54.876  0.00  0.00     0.009 A 
ATOM      9  O   UNL d   1      54.609  32.322  54.680  0.00  0.00    -0.265 OA
ATOM     10  C   UNL d   1      53.914  34.669  54.969  0.00  0.00     0.019 A 
ATOM     11  C   UNL d   1      53.252  34.954  54.586  0.00  0.00     0.083 A 
ATOM     12  C   UNL d   1      54.818  33.602  55.263  0.00  0.00     0.000 C 
ATOM     13  C   UNL d   1      53.027  35.745  54.689  0.00  0.00     0.021 C 
ENDROOT
BRANCH   2  14
ATOM     14  C   UNL d   1      51.936  33.467  53.131  0.00  0.00     0.067 A 
ATOM     15  C   UNL d   1      51.205  33.401  53.480  0.00  0.00     0.018 A 
ATOM     16  C   UNL d   1      50.534  33.690  53.091  0.00  0.00     0.002 A 
ATOM     17  C   UNL d   1      50.597  34.045  52.357  0.00  0.00     0.000 A 
ATOM     18  C   UNL d   1      51.351  34.109  52.006  0.00  0.00     0.002 A 
ATOM     19  C   UNL d   1      52.017  33.822  52.391  0.00  0.00     0.018 A 
ENDBRANCH   2  14
BRANCH   1  20
ATOM     20  C   UNL d   1      52.398  31.892  52.934  0.00  0.00     0.080 C 
BRANCH  20  21
ATOM     21  C   UNL d   1      52.574  31.095  52.817  0.00  0.00     0.199 C 
ATOM     22  O   UNL d   1      53.087  30.928  52.099  0.00  0.00    -0.286 OA
ATOM     23  C   UNL d   1      52.246  30.285  53.435  0.00  0.00     0.045 C 
ENDBRANCH  20  21
ENDBRANCH   1  20
TORSDOF 3
ENDMDL
MODEL 2
REMARK VINA RESULT:      -9.7      1.014      2.861
REMARK  3 active torsions:
REMARK  status: ('A' for Active; 'I' for Inactive)
REMARK    1  A    between atoms: C_7  and  C_1 
REMARK    2  A    between atoms: C_10  and  N_2 
REMARK    3  A    between atoms: C_14  and  C_7 
ROOT
ATOM      1  C   UNL d   1      53.289  32.200  53.579  0.00  0.00     0.155 A 
ATOM      2  N   UNL d   1      53.411  32.970  53.866  0.00  0.00    -0.277 N 
ATOM      3  C   UNL d   1      52.904  33.564  53.632  0.00  0.00     0.153 A 
ATOM      4  C   UNL d   1      52.275  33.399  53.115  0.00  0.00     0.092 A 
ATOM      5  N   UNL d   1      52.664  32.036  53.065  0.00  0.00    -0.190 NA
ATOM      6  C   UNL d   1      52.165  32.643  52.841  0.00  0.00     0.283 A 
ATOM      7  N   UNL d   1      53.019  34.344  53.916  0.00  0.00    -0.228 NA
ATOM      8  C   UNL d   1      51.767  34.015  52.886  0.00  0.00     0.009 A 
ATOM      9  O   UNL d   1      51.534  32.485  52.324  0.00  0.00    -0.265 OA
ATOM     10  C   UNL d   1      51.889  34.773  53.170  0.00  0.00     0.019 A 
ATOM     11  C   UNL d   1      52.506  34.935  53.678  0.00  0.00     0.083 A 
ATOM     12  C   UNL d   1      51.143  33.851  52.373  0.00  0.00     0.000 C 
ATOM     13  C   UNL d   1      52.617  35.708  53.956  0.00  0.00     0.021 C 
ENDROOT
BRANCH   2  14
ATOM     14  C   UNL d   1      54.031  33.133  54.375  0.00  0.00     0.067 A 
ATOM     15  C   UNL d   1      54.752  33.359  54.078  0.00  0.00     0.018 A 
ATOM     16  C   UNL d   1      55.379  33.524  54.593  0.00  0.00     0.002 A 
ATOM     17  C   UNL d   1      55.280  33.461  55.403  0.00  0.00     0.000 A 
ATOM     18  C   UNL d   1      54.537  33.228  55.700  0.00  0.00     0.002 A 
ATOM     19  C   UNL d   1      53.915  33.065  55.189  0.00  0.00     0.018 A 
ENDBRANCH   2  14
BRANCH   1  20
ATOM     20  C   UNL d   1      53.797  31.596  53.811  0.00  0.00     0.080 C 
BRANCH  20  21
ATOM     21  C   UNL d   1      53.707  30.809  53.585  0.00  0.00     0.199 C 
ATOM     22  O   UNL d   1      54.136  30.586  52.829  0.00  0.00    -0.286 OA
ATOM     23  C   UNL d   1      53.139  30.068  54.111  0.00  0.00     0.045 C 
ENDBRANCH  20  21
ENDBRANCH   1  20
TORSDOF 3
ENDMDL
MODEL 3
REMARK VINA RESULT:      -8.9      1.107      2.728
REMARK  3 active torsions:
REMARK  status: ('A' for Active; 'I' for Inactive)
REMARK    1  A    between atoms: C_7  and  C_1 
REMARK    2  A    between atoms: C_10  and  N_2 
REMARK    3  A    between atoms: C_14  and  C_7 
ROOT
ATOM      1  C   UNL d   1      52.181  33.678  52.904  0.00  0.00     0.155 A 
ATOM      2  N   UNL d   1      52.715  33.797  53.529  0.00  0.00    -0.277 N 
ATOM      3  C   UNL d   1      53.143  33.164  53.812  0.00  0.00     0.153 A 
ATOM      4  C   UNL d   1      53.045  32.410  53.478  0.00  0.00     0.092 A 
ATOM      5  N   UNL d   1      52.083  32.928  52.572  0.00  0.00    -0.190 NA
ATOM      6  C   UNL d   1      52.521  32.303  52.867  0.00  0.00     0.283 A 
ATOM      7  N   UNL d   1      53.683  33.276  54.441  0.00  0.00    -0.228 NA
ATOM      8  C   UNL d   1      53.488  31.774  53.776  0.00  0.00     0.009 A 
ATOM      9  O   UNL d   1      52.427  31.547  52.538  0.00  0.00    -0.265 OA
ATOM     10  C   UNL d   1      54.014  31.895  54.392  0.00  0.00     0.019 A 
ATOM     11  C   UNL d   1      54.110  32.636  54.720  0.00  0.00     0.083 A 
ATOM     12  C   UNL d   1      53.391  31.025  53.444  0.00  0.00     0.000 C 
ATOM     13  C   UNL d   1      54.646  32.743  55.343  0.00  0.00     0.021 C 
ENDROOT
BRANCH   2  14
ATOM     14  C   UNL d   1      52.811  34.541  53.859  0.00  0.00     0.067 A 
ATOM     15  C   UNL d   1      52.364  34.762  54.500  0.00  0.00     0.018 A 
ATOM     16  C   UNL d   1      52.462  35.514  54.833  0.00  0.00     0.002 A 
ATOM     17  C   UNL d   1      53.006  36.040  54.523  0.00  0.00     0.000 A 
ATOM     18  C   UNL d   1      53.461  35.805  53.864  0.00  0.00     0.002 A 
ATOM     19  C   UNL d   1      53.364  35.060  53.534  0.00  0.00     0.018 A 
ENDBRANCH   2  14
BRANCH   1  20
ATOM     20  C   UNL d   1      51.746  34.313  52.615  0.00  0.00     0.080 C 
BRANCH  20  21
ATOM     21  C   UNL d   1      51.126  34.237  52.077  0.00  0.00     0.199 C 
ATOM     22  O   UNL d   1      51.378  34.239  51.215  0.00  0.00    -0.286 OA
ATOM     23  C   UNL d   1      50.089  34.142  52.327  0.00  0.00     0.045 C 
ENDBRANCH  20  21
ENDBRANCH   1  20
TORSDOF 3
ENDMDL
MODEL 4
REMARK VINA RESULT:      -8.8      1.047      2.805
REMARK  3 active torsions:
REMARK  status: ('A' for Active; 'I' for Inactive)
REMARK    1  A    between atoms: C_7  and  C_1 
REMARK    2  A    between atoms: C_10  and  N_2 
REMARK    3  A    between atoms: C_14  and  C_7 
ROOT
ATOM      1  C   UNL d   1      52.996  34.202  53.879  0.00  0.00     0.155 A 
ATOM      2  N   UNL d   1      52.582  33.612  53.466  0.00  0.00    -0.277 N 
ATOM      3  C   UNL d   1      52.872  32.850  53.467  0.00  0.00     0.153 A 
ATOM      4  C   UNL d   1      53.572  32.669  53.874  0.00  0.00     0.092 A 
ATOM      5  N   UNL d   1      53.692  34.022  54.284  0.00  0.00    -0.190 NA
ATOM      6  C   UNL d   1      53.970  33.253  54.274  0.00  0.00     0.283 A 
ATOM      7  N   UNL d   1      52.460  32.249  53.053  0.00  0.00    -0.228 NA
ATOM      8  C   UNL d   1      53.856  31.889  53.865  0.00  0.00     0.009 A 
ATOM      9  O   UNL d   1      54.670  33.066  54.680  0.00  0.00    -0.265 OA
ATOM     10  C   UNL d   1      53.446  31.309  53.458  0.00  0.00     0.019 A 
ATOM     11  C   UNL d   1      52.757  31.487  53.058  0.00  0.00     0.083 A 
ATOM     12  C   UNL d   1      54.551  31.709  54.270  0.00  0.00     0.000 C 
ATOM     13  C   UNL d   1      52.353  30.889  52.650  0.00  0.00     0.021 C 
ENDROOT
BRANCH   2  14
ATOM     14  C   UNL d   1      51.891  33.791  53.064  0.00  0.00     0.067 A 
ATOM     15  C   UNL d   1      51.172  33.707  53.435  0.00  0.00     0.018 A 
ATOM     16  C   UNL d   1      50.474  33.887  53.028  0.00  0.00     0.002 A 
ATOM     17  C   UNL d   1      50.498  34.150  52.254  0.00  0.00     0.000 A 
ATOM     18  C   UNL d   1      51.239  34.234  51.881  0.00  0.00     0.002 A 
ATOM     19  C   UNL d   1      51.932  34.055  52.284  0.00  0.00     0.018 A 
ENDBRANCH   2  14
BRANCH   1  20
ATOM     20  C   UNL d   1      52.708  34.972  53.882  0.00  0.00     0.080 C 
BRANCH  20  21
ATOM     21  C   UNL d   1      53.033  35.582  54.332  0.00  0.00     0.199 C 
ATOM     22  O   UNL d   1      53.680  36.047  53.919  0.00  0.00    -0.286 OA
ATOM     23  C   UNL d   1      52.747  35.842  55.331  0.00  0.00     0.045 C 
ENDBRANCH  20  21
ENDBRANCH   1  20
TORSDOF 3
ENDMDL
MODEL 5
REMARK VINA RESULT:      -8.4      1.360      2.657
REMARK  3 active torsions:
REMARK  status: ('A' for Active; 'I' for Inactive)
REMARK    1  A    between atoms: C_7  and  C_1 
REMARK    2  A    between atoms: C_10  and  N_2 
REMARK    3  A    between atoms: C_14  and  C_7 
ROOT
ATOM      1  C   UNL d   1      52.014  33.831  53.062  0.00  0.00     0.155 A 
ATOM      2  N   UNL d   1      52.527  33.311  53.458  0.00  0.00    -0.277 N 
ATOM      3  C   UNL d   1      53.015  33.603  54.043  0.00  0.00     0.153 A 
ATOM      4  C   UNL d   1      52.998  34.409  54.238  0.00  0.00     0.092 A 
ATOM      5  N   UNL d   1      51.997  34.634  53.257  0.00  0.00    -0.190 NA
ATOM      6  C   UNL d   1      52.493  34.911  53.846  0.00  0.00     0.283 A 
ATOM      7  N   UNL d   1      53.534  33.085  54.446  0.00  0.00    -0.228 NA
ATOM      8  C   UNL d   1      53.500  34.692  54.836  0.00  0.00     0.009 A 
ATOM      9  O   UNL d   1      52.481  35.716  54.046  0.00  0.00    -0.265 OA
ATOM     10  C   UNL d   1      54.004  34.177  55.224  0.00  0.00     0.019 A 
ATOM     11  C   UNL d   1      54.021  33.384  55.032  0.00  0.00     0.083 A 
ATOM     12  C   UNL d   1      53.483  35.494  55.030  0.00  0.00     0.000 C 
ATOM     13  C   UNL d   1      54.537  32.875  55.434  0.00  0.00     0.021 C 
ENDROOT
BRANCH   2  14
ATOM     14  C   UNL d   1      52.544  32.515  53.265  0.00  0.00     0.067 A 
ATOM     15  C   UNL d   1      53.108  32.233  52.754  0.00  0.00     0.018 A 
ATOM     16  C   UNL d   1      53.125  31.429  52.559  0.00  0.00     0.002 A 
ATOM     17  C   UNL d   1      52.578  30.911  52.877  0.00  0.00     0.000 A 
ATOM     18  C   UNL d   1      52.001  31.208  53.401  0.00  0.00     0.002 A 
ATOM     19  C   UNL d   1      51.984  32.006  53.595  0.00  0.00     0.018 A 
ENDBRANCH   2  14
BRANCH   1  20
ATOM     20  C   UNL d   1      51.520  33.543  52.472  0.00  0.00     0.080 C 
BRANCH  20  21
ATOM     21  C   UNL d   1      50.979  34.008  52.059  0.00  0.00     0.199 C 
ATOM     22  O   UNL d   1      51.282  34.327  51.277  0.00  0.00    -0.286 OA
ATOM     23  C   UNL d   1      49.985  34.245  52.380  0.00  0.00     0.045 C 
ENDBRANCH  20  21
ENDBRANCH   1  20
TORSDOF 3
ENDMDL
MODEL 6
REMARK VINA RESULT:      -7.7      1.447      3.766
REMARK  3 active torsions:
REMARK  status: ('A' for Active; 'I' for Inactive)
REMARK    1  A    between atoms: C_7  and  C_1 
REMARK    2  A    between atoms: C_10  and  N_2 
REMARK    3  A    between atoms: C_14  and  C_7 
ROOT
ATOM      1  C   UNL d   1      52.900  33.249  53.444  0.00  0.00     0.155 A 
ATOM      2  N   UNL d   1      53.449  32.724  53.779  0.00  0.00    -0.277 N 
ATOM      3  C   UNL d   1      53.372  31.925  53.636  0.00  0.00     0.153 A 
ATOM      4  C   UNL d   1      52.753  31.643  53.162  0.00  0.00     0.092 A 
ATOM      5  N   UNL d   1      52.284  32.968  52.972  0.00  0.00    -0.190 NA
ATOM      6  C   UNL d   1      52.221  32.164  52.838  0.00  0.00     0.283 A 
ATOM      7  N   UNL d   1      53.922  31.388  53.971  0.00  0.00    -0.228 NA
ATOM      8  C   UNL d   1      52.687  30.826  53.025  0.00  0.00     0.009 A 
ATOM      9  O   UNL d   1      51.603  31.875  52.364  0.00  0.00    -0.265 OA
ATOM     10  C   UNL d   1      53.229  30.310  53.356  0.00  0.00     0.019 A 
ATOM     11  C   UNL d   1      53.838  30.588  53.823  0.00  0.00     0.083 A 
ATOM     12  C   UNL d   1      52.071  30.546  52.553  0.00  0.00     0.000 C 
ATOM     13  C   UNL d   1      54.380  30.054  54.152  0.00  0.00     0.021 C 
ENDROOT
BRANCH   2  14
ATOM     14  C   UNL d   1      54.061  33.002  54.248  0.00  0.00     0.067 A 
ATOM     15  C   UNL d   1      54.770  33.209  53.909  0.00  0.00     0.018 A 
ATOM     16  C   UNL d   1      55.388  33.490  54.383  0.00  0.00     0.002 A 
ATOM     17  C   UNL d   1      55.293  33.563  55.192  0.00  0.00     0.000 A 
ATOM     18  C   UNL d   1      54.562  33.349  55.532  0.00  0.00     0.002 A 
ATOM     19  C   UNL d   1      53.949  33.070  55.062  0.00  0.00     0.018 A 
ENDBRANCH   2  14
BRANCH   1  20
ATOM     20  C   UNL d   1      52.973  34.056  53.585  0.00  0.00     0.080 C 
BRANCH  20  21
ATOM     21  C   UNL d   1      52.465  34.624  53.270  0.00  0.00     0.199 C 
ATOM     22  O   UNL d   1      52.742  34.981  52.494  0.00  0.00    -0.286 OA
ATOM     23  C   UNL d   1      51.542  34.948  53.705  0.00  0.00     0.045 C 
ENDBRANCH  20  21
ENDBRANCH   1  20
TORSDOF 3
ENDMDL
MODEL 7
REMARK VINA RESULT:      -7.7      1.446      3.325
REMARK  3 active torsions:
REMARK  status: ('A' for Active; 'I' for Inactive)
REMARK    1  A    between atoms: C_7  and  C_1 
REMARK    2  A    between atoms: C_10  and  N_2 
REMARK    3  A    between atoms: C_14  and  C_7 
ROOT
ATOM      1  C   UNL d   1      53.832  33.534  54.424  0.00  0.00     0.155 A 
ATOM      2  N   UNL d   1      53.296  33.066  53.995  0.00  0.00    -0.277 N 
ATOM      3  C   UNL d   1      52.616  33.408  53.704  0.00  0.00     0.153 A 
ATOM      4  C   UNL d   1      52.463  34.213  53.835  0.00  0.00     0.092 A 
ATOM      5  N   UNL d   1      53.680  34.335  54.555  0.00  0.00    -0.190 NA
ATOM      6  C   UNL d   1      52.993  34.663  54.256  0.00  0.00     0.283 A 
ATOM      7  N   UNL d   1      52.070  32.943  53.271  0.00  0.00    -0.228 NA
ATOM      8  C   UNL d   1      51.766  34.548  53.532  0.00  0.00     0.009 A 
ATOM      9  O   UNL d   1      52.834  35.467  54.383  0.00  0.00    -0.265 OA
ATOM     10  C   UNL d   1      51.239  34.085  53.110  0.00  0.00     0.019 A 
ATOM     11  C   UNL d   1      51.389  33.293  52.981  0.00  0.00     0.083 A 
ATOM     12  C   UNL d   1      51.614  35.348  53.663  0.00  0.00     0.000 C 
ATOM     13  C   UNL d   1      50.847  32.837  52.552  0.00  0.00     0.021 C 
ENDROOT
BRANCH   2  14
ATOM     14  C   UNL d   1      53.446  32.271  53.866  0.00  0.00     0.067 A 
ATOM     15  C   UNL d   1      53.226  31.721  54.421  0.00  0.00     0.018 A 
ATOM     16  C   UNL d   1      53.378  30.917  54.290  0.00  0.00     0.002 A 
ATOM     17  C   UNL d   1      53.750  30.670  53.605  0.00  0.00     0.000 A 
ATOM     18  C   UNL d   1      53.973  31.241  53.040  0.00  0.00     0.002 A 
ATOM     19  C   UNL d   1      53.822  32.037  53.170  0.00  0.00     0.018 A 
ENDBRANCH   2  14
BRANCH   1  20
ATOM     20  C   UNL d   1      54.519  33.194  54.720  0.00  0.00     0.080 C 
BRANCH  20  21
ATOM     21  C   UNL d   1      55.130  33.624  55.070  0.00  0.00     0.199 C 
ATOM     22  O   UNL d   1      55.082  33.680  55.965  0.00  0.00    -0.286 OA
ATOM     23  C   UNL d   1      55.938  34.098  54.551  0.00  0.00     0.045 C 
ENDBRANCH  20  21
ENDBRANCH   1  20
TORSDOF 3
ENDMDL
