MODEL 1
REMARK VINA RESULT:      52.4      0.000      0.000
REMARK  5 active torsions:
REMARK  status: ('A' for Active; 'I' for Inactive)
REMARK       I    between atoms: N_2  and  C_1 
REMARK    1  A    between atoms: C_4  and  C_1 
REMARK    2  A    between atoms: C_3  and  N_2 
REMARK    3  A    between atoms: N_5  and  C_3 
REMARK    4  A    between atoms: C_7  and  N_5 
REMARK    5  A    between atoms: O_14  and  C_11 
ROOT
ATOM      1  C   UNL d   1     -51.630  25.498  33.802  0.00  0.00     0.283 C 
ATOM      2  N   UNL d   1     -50.839  25.712  33.718  0.00  0.00    -0.179 NA
ATOM      3  O   UNL d   1     -52.178  26.064  34.050  0.00  0.00    -0.265 OA
ENDROOT
BRANCH   2   4
ATOM      4  C   UNL d   1     -50.588  26.475  33.876  0.00  0.00     0.224 C 
ATOM      5  S   UNL d   1     -50.703  27.073  33.306  0.00  0.00    -0.037 SA
BRANCH   4   6
ATOM      6  N   UNL d   1     -50.222  26.669  34.590  0.00  0.00    -0.215 NA
BRANCH   6   7
ATOM      7  C   UNL d   1     -49.631  27.243  34.621  0.00  0.00     0.112 A 
ATOM      8  C   UNL d   1     -49.471  27.640  35.337  0.00  0.00     0.156 A 
ATOM      9  N   UNL d   1     -48.881  28.213  35.368  0.00  0.00    -0.231 NA
ATOM     10 CL   UNL d   1     -49.910  27.454  36.018  0.00  0.00    -0.060 Cl
ATOM     11  C   UNL d   1     -48.448  28.394  34.690  0.00  0.00     0.100 A 
ATOM     12  C   UNL d   1     -48.607  28.001  33.981  0.00  0.00     0.022 A 
ATOM     13  C   UNL d   1     -49.199  27.423  33.944  0.00  0.00     0.023 A 
ENDBRANCH   6   7
ENDBRANCH   4   6
ENDBRANCH   2   4
BRANCH   1  14
ATOM     14  C   UNL d   1     -51.875  24.729  33.640  0.00  0.00     0.080 A 
ATOM     15  C   UNL d   1     -52.667  24.577  33.472  0.00  0.00     0.099 A 
ATOM     16  C   UNL d   1     -52.912  23.807  33.310  0.00  0.00     0.024 A 
ATOM     17  C   UNL d   1     -52.359  23.188  33.319  0.00  0.00     0.002 A 
ATOM     18  C   UNL d   1     -51.565  23.348  33.489  0.00  0.00     0.000 A 
ATOM     19  C   UNL d   1     -51.320  24.118  33.650  0.00  0.00     0.007 A 
BRANCH  15  20
ATOM     20  O   UNL d   1     -53.212  25.193  33.465  0.00  0.00    -0.328 OA
ATOM     21  C   UNL d   1     -54.014  25.033  33.371  0.00  0.00     0.181 C 
ENDBRANCH  15  20
ENDBRANCH   1  14
TORSDOF 5
ENDMDL
MODEL 2
REMARK VINA RESULT:      54.5      1.319      1.959
REMARK  5 active torsions:
REMARK  status: ('A' for Active; 'I' for Inactive)
REMARK       I    between atoms: N_2  and  C_1 
REMARK    1  A    between atoms: C_4  and  C_1 
REMARK    2  A    between atoms: C_3  and  N_2 
REMARK    3  A    between atoms: N_5  and  C_3 
REMARK    4  A    between atoms: C_7  and  N_5 
REMARK    5  A    between atoms: O_14  and  C_11 
ROOT
ATOM      1  C   UNL d   1     -50.000  26.662  33.741  0.00  0.00     0.283 C 
ATOM      2  N   UNL d   1     -49.424  26.827  34.306  0.00  0.00    -0.179 NA
ATOM      3  O   UNL d   1     -50.339  27.282  33.315  0.00  0.00    -0.265 OA
ENDROOT
BRANCH   2   4
ATOM      4  C   UNL d   1     -49.183  27.597  34.451  0.00  0.00     0.224 C 
ATOM      5  S   UNL d   1     -49.346  28.192  33.890  0.00  0.00    -0.037 SA
BRANCH   4   6
ATOM      6  N   UNL d   1     -48.780  27.799  35.143  0.00  0.00    -0.215 NA
BRANCH   6   7
ATOM      7  C   UNL d   1     -48.356  28.503  35.195  0.00  0.00     0.112 A 
ATOM      8  C   UNL d   1     -48.190  28.837  35.941  0.00  0.00     0.156 A 
ATOM      9  N   UNL d   1     -47.766  29.541  35.993  0.00  0.00    -0.231 NA
ATOM     10 CL   UNL d   1     -48.456  28.456  36.631  0.00  0.00    -0.060 Cl
ATOM     11  C   UNL d   1     -47.505  29.915  35.307  0.00  0.00     0.100 A 
ATOM     12  C   UNL d   1     -47.669  29.585  34.568  0.00  0.00     0.022 A 
ATOM     13  C   UNL d   1     -48.095  28.877  34.509  0.00  0.00     0.023 A 
ENDBRANCH   6   7
ENDBRANCH   4   6
ENDBRANCH   2   4
BRANCH   1  14
ATOM     14  C   UNL d   1     -50.237  25.885  33.601  0.00  0.00     0.080 A 
ATOM     15  C   UNL d   1     -51.029  25.720  33.447  0.00  0.00     0.099 A 
ATOM     16  C   UNL d   1     -51.267  24.944  33.306  0.00  0.00     0.024 A 
ATOM     17  C   UNL d   1     -50.706  24.332  33.320  0.00  0.00     0.002 A 
ATOM     18  C   UNL d   1     -49.911  24.506  33.476  0.00  0.00     0.000 A 
ATOM     19  C   UNL d   1     -49.674  25.283  33.616  0.00  0.00     0.007 A 
BRANCH  15  20
ATOM     20  O   UNL d   1     -51.582  26.329  33.434  0.00  0.00    -0.328 OA
ATOM     21  C   UNL d   1     -52.385  26.156  33.366  0.00  0.00     0.181 C 
ENDBRANCH  15  20
ENDBRANCH   1  14
TORSDOF 5
ENDMDL
