MODEL 1
REMARK VINA RESULT:      -6.6      0.000      0.000
REMARK  2 active torsions:
REMARK  status: ('A' for Active; 'I' for Inactive)
REMARK       I    between atoms: N_3  and  C_1 
REMARK       I    between atoms: N_4  and  C_1 
REMARK       I    between atoms: C_2  and  N_5 
REMARK       I    between atoms: N_6  and  C_2 
REMARK    1  A    between atoms: C_13  and  N_4 
REMARK    2  A    between atoms: C_14  and  N_4 
ROOT
ATOM      1  C   UNL d   1      50.789  33.195  52.996  0.00  0.00     0.339 C 
ATOM      2  C   UNL d   1      53.466  31.354  53.570  0.00  0.00     0.340 C 
ATOM      3  N   UNL d   1      51.467  32.727  53.142  0.00  0.00    -0.254 N 
ATOM      4  N   UNL d   1      50.857  34.013  52.929  0.00  0.00    -0.260 N 
ATOM      5  N   UNL d   1      52.795  31.812  53.427  0.00  0.00    -0.254 N 
ATOM      6  N   UNL d   1      53.400  30.534  53.638  0.00  0.00    -0.253 N 
ATOM      7  O   UNL d   1      50.046  32.832  52.918  0.00  0.00    -0.245 OA
ATOM      8  O   UNL d   1      54.198  31.715  53.646  0.00  0.00    -0.245 OA
ATOM      9  C   UNL d   1      51.380  31.897  53.206  0.00  0.00     0.104 A 
ATOM     10  C   UNL d   1      52.194  33.081  53.217  0.00  0.00     0.104 A 
ATOM     11  C   UNL d   1      52.859  32.622  53.360  0.00  0.00     0.104 A 
ATOM     12  C   UNL d   1      52.045  31.438  53.349  0.00  0.00     0.104 A 
ATOM     13  O   UNL d   1      53.272  28.892  53.773  0.00  0.00    -0.300 OA
ATOM     14  C   UNL d   1      54.074  30.080  53.781  0.00  0.00     0.111 A 
ATOM     15  C   UNL d   1      52.660  30.174  53.560  0.00  0.00     0.111 A 
ATOM     16  C   UNL d   1      52.601  29.350  53.629  0.00  0.00     0.142 A 
ATOM     17  C   UNL d   1      54.014  29.261  53.849  0.00  0.00     0.142 A 
ENDROOT
BRANCH   4  18
ATOM     18  C   UNL d   1      50.182  34.478  52.784  0.00  0.00     0.068 A 
ATOM     19  C   UNL d   1      49.878  34.535  52.010  0.00  0.00     0.018 A 
ATOM     20  C   UNL d   1      49.210  34.997  51.867  0.00  0.00     0.002 A 
ATOM     21  C   UNL d   1      48.845  35.399  52.489  0.00  0.00     0.000 A 
ATOM     22  C   UNL d   1      49.148  35.341  53.260  0.00  0.00     0.002 A 
ATOM     23  C   UNL d   1      49.817  34.880  53.404  0.00  0.00     0.018 A 
ENDBRANCH   4  18
BRANCH   4  24
ATOM     24  C   UNL d   1      51.589  34.374  53.005  0.00  0.00     0.068 A 
ATOM     25  C   UNL d   1      52.075  34.473  52.348  0.00  0.00     0.018 A 
ATOM     26  C   UNL d   1      52.802  34.835  52.435  0.00  0.00     0.002 A 
ATOM     27  C   UNL d   1      53.056  35.103  53.172  0.00  0.00     0.000 A 
ATOM     28  C   UNL d   1      52.563  35.001  53.833  0.00  0.00     0.002 A 
ATOM     29  C   UNL d   1      51.830  34.637  53.749  0.00  0.00     0.018 A 
ENDBRANCH   4  24
TORSDOF 2
ENDMDL
MODEL 2
REMARK VINA RESULT:      -6.1      1.857      4.914
REMARK  2 active torsions:
REMARK  status: ('A' for Active; 'I' for Inactive)
REMARK       I    between atoms: N_3  and  C_1 
REMARK       I    between atoms: N_4  and  C_1 
REMARK       I    between atoms: C_2  and  N_5 
REMARK       I    between atoms: N_6  and  C_2 
REMARK    1  A    between atoms: C_13  and  N_4 
REMARK    2  A    between atoms: C_14  and  N_4 
ROOT
ATOM      1  C   UNL d   1      52.626  34.137  54.173  0.00  0.00     0.339 C 
ATOM      2  C   UNL d   1      49.842  34.027  52.408  0.00  0.00     0.340 C 
ATOM      3  N   UNL d   1      51.920  34.110  53.726  0.00  0.00    -0.254 N 
ATOM      4  N   UNL d   1      53.171  33.522  54.124  0.00  0.00    -0.260 N 
ATOM      5  N   UNL d   1      50.536  34.057  52.850  0.00  0.00    -0.254 N 
ATOM      6  N   UNL d   1      49.294  34.642  52.455  0.00  0.00    -0.253 N 
ATOM      7  O   UNL d   1      52.777  34.788  54.668  0.00  0.00    -0.245 OA
ATOM      8  O   UNL d   1      49.696  33.383  51.920  0.00  0.00    -0.245 OA
ATOM      9  C   UNL d   1      51.377  34.745  53.788  0.00  0.00     0.104 A 
ATOM     10  C   UNL d   1      51.772  33.475  53.242  0.00  0.00     0.104 A 
ATOM     11  C   UNL d   1      51.078  33.448  52.803  0.00  0.00     0.104 A 
ATOM     12  C   UNL d   1      50.684  34.718  53.349  0.00  0.00     0.104 A 
ATOM     13  O   UNL d   1      48.196  35.874  52.548  0.00  0.00    -0.300 OA
ATOM     14  C   UNL d   1      48.600  34.608  52.011  0.00  0.00     0.111 A 
ATOM     15  C   UNL d   1      49.445  35.289  52.948  0.00  0.00     0.111 A 
ATOM     16  C   UNL d   1      48.891  35.904  52.991  0.00  0.00     0.142 A 
ATOM     17  C   UNL d   1      48.050  35.220  52.055  0.00  0.00     0.142 A 
ENDROOT
BRANCH   4  18
ATOM     18  C   UNL d   1      53.874  33.549  54.569  0.00  0.00     0.068 A 
ATOM     19  C   UNL d   1      54.559  33.890  54.239  0.00  0.00     0.018 A 
ATOM     20  C   UNL d   1      55.256  33.917  54.680  0.00  0.00     0.002 A 
ATOM     21  C   UNL d   1      55.271  33.606  55.445  0.00  0.00     0.000 A 
ATOM     22  C   UNL d   1      54.588  33.266  55.774  0.00  0.00     0.002 A 
ATOM     23  C   UNL d   1      53.891  33.239  55.333  0.00  0.00     0.018 A 
ENDBRANCH   4  18
BRANCH   4  24
ATOM     24  C   UNL d   1      53.025  32.879  53.637  0.00  0.00     0.068 A 
ATOM     25  C   UNL d   1      53.258  32.892  52.847  0.00  0.00     0.018 A 
ATOM     26  C   UNL d   1      53.108  32.247  52.371  0.00  0.00     0.002 A 
ATOM     27  C   UNL d   1      52.726  31.579  52.671  0.00  0.00     0.000 A 
ATOM     28  C   UNL d   1      52.493  31.569  53.468  0.00  0.00     0.002 A 
ATOM     29  C   UNL d   1      52.642  32.218  53.951  0.00  0.00     0.018 A 
ENDBRANCH   4  24
TORSDOF 2
ENDMDL
MODEL 3
REMARK VINA RESULT:      -6.0      1.591      4.834
REMARK  2 active torsions:
REMARK  status: ('A' for Active; 'I' for Inactive)
REMARK       I    between atoms: N_3  and  C_1 
REMARK       I    between atoms: N_4  and  C_1 
REMARK       I    between atoms: C_2  and  N_5 
REMARK       I    between atoms: N_6  and  C_2 
REMARK    1  A    between atoms: C_13  and  N_4 
REMARK    2  A    between atoms: C_14  and  N_4 
ROOT
ATOM      1  C   UNL d   1      52.163  33.233  52.840  0.00  0.00     0.339 C 
ATOM      2  C   UNL d   1      49.554  35.248  52.714  0.00  0.00     0.340 C 
ATOM      3  N   UNL d   1      51.501  33.744  52.807  0.00  0.00    -0.254 N 
ATOM      4  N   UNL d   1      52.779  33.389  53.363  0.00  0.00    -0.260 N 
ATOM      5  N   UNL d   1      50.205  34.743  52.743  0.00  0.00    -0.254 N 
ATOM      6  N   UNL d   1      48.935  35.095  52.191  0.00  0.00    -0.253 N 
ATOM      7  O   UNL d   1      52.197  32.569  52.342  0.00  0.00    -0.245 OA
ATOM      8  O   UNL d   1      49.523  35.903  53.206  0.00  0.00    -0.245 OA
ATOM      9  C   UNL d   1      50.883  33.571  52.269  0.00  0.00     0.104 A 
ATOM     10  C   UNL d   1      51.467  34.393  53.293  0.00  0.00     0.104 A 
ATOM     11  C   UNL d   1      50.817  34.894  53.261  0.00  0.00     0.104 A 
ATOM     12  C   UNL d   1      50.234  34.072  52.237  0.00  0.00     0.104 A 
ATOM     13  O   UNL d   1      47.693  34.790  51.143  0.00  0.00    -0.300 OA
ATOM     14  C   UNL d   1      48.285  35.603  52.164  0.00  0.00     0.111 A 
ATOM     15  C   UNL d   1      48.970  34.433  51.696  0.00  0.00     0.111 A 
ATOM     16  C   UNL d   1      48.344  34.285  51.173  0.00  0.00     0.142 A 
ATOM     17  C   UNL d   1      47.664  35.454  51.644  0.00  0.00     0.142 A 
ENDROOT
BRANCH   4  18
ATOM     18  C   UNL d   1      53.439  32.881  53.395  0.00  0.00     0.068 A 
ATOM     19  C   UNL d   1      53.367  32.134  53.759  0.00  0.00     0.018 A 
ATOM     20  C   UNL d   1      54.020  31.631  53.791  0.00  0.00     0.002 A 
ATOM     21  C   UNL d   1      54.740  31.869  53.464  0.00  0.00     0.000 A 
ATOM     22  C   UNL d   1      54.811  32.613  53.102  0.00  0.00     0.002 A 
ATOM     23  C   UNL d   1      54.158  33.116  53.070  0.00  0.00     0.018 A 
ENDBRANCH   4  18
BRANCH   4  24
ATOM     24  C   UNL d   1      52.749  34.044  53.855  0.00  0.00     0.068 A 
ATOM     25  C   UNL d   1      52.449  33.978  54.619  0.00  0.00     0.018 A 
ATOM     26  C   UNL d   1      52.423  34.636  55.100  0.00  0.00     0.002 A 
ATOM     27  C   UNL d   1      52.695  35.368  54.833  0.00  0.00     0.000 A 
ATOM     28  C   UNL d   1      52.998  35.431  54.061  0.00  0.00     0.002 A 
ATOM     29  C   UNL d   1      53.025  34.768  53.573  0.00  0.00     0.018 A 
ENDBRANCH   4  24
TORSDOF 2
ENDMDL
MODEL 4
REMARK VINA RESULT:      -6.0      1.234      4.825
REMARK  2 active torsions:
REMARK  status: ('A' for Active; 'I' for Inactive)
REMARK       I    between atoms: N_3  and  C_1 
REMARK       I    between atoms: N_4  and  C_1 
REMARK       I    between atoms: C_2  and  N_5 
REMARK       I    between atoms: N_6  and  C_2 
REMARK    1  A    between atoms: C_13  and  N_4 
REMARK    2  A    between atoms: C_14  and  N_4 
ROOT
ATOM      1  C   UNL d   1      52.414  31.449  53.384  0.00  0.00     0.339 C 
ATOM      2  C   UNL d   1      51.166  34.500  53.237  0.00  0.00     0.340 C 
ATOM      3  N   UNL d   1      52.097  32.223  53.346  0.00  0.00    -0.254 N 
ATOM      4  N   UNL d   1      53.165  31.326  53.697  0.00  0.00    -0.260 N 
ATOM      5  N   UNL d   1      51.475  33.737  53.272  0.00  0.00    -0.254 N 
ATOM      6  N   UNL d   1      50.414  34.627  52.923  0.00  0.00    -0.253 N 
ATOM      7  O   UNL d   1      51.969  30.806  53.104  0.00  0.00    -0.245 OA
ATOM      8  O   UNL d   1      51.608  35.133  53.513  0.00  0.00    -0.245 OA
ATOM      9  C   UNL d   1      51.331  32.330  53.025  0.00  0.00     0.104 A 
ATOM     10  C   UNL d   1      52.531  32.852  53.619  0.00  0.00     0.104 A 
ATOM     11  C   UNL d   1      52.220  33.610  53.582  0.00  0.00     0.104 A 
ATOM     12  C   UNL d   1      51.020  33.089  52.988  0.00  0.00     0.104 A 
ATOM     13  O   UNL d   1      48.906  34.884  52.296  0.00  0.00    -0.300 OA
ATOM     14  C   UNL d   1      50.107  35.392  52.889  0.00  0.00     0.111 A 
ATOM     15  C   UNL d   1      49.971  33.986  52.645  0.00  0.00     0.111 A 
ATOM     16  C   UNL d   1      49.216  34.120  52.331  0.00  0.00     0.142 A 
ATOM     17  C   UNL d   1      49.357  35.524  52.577  0.00  0.00     0.142 A 
ENDROOT
BRANCH   4  18
ATOM     18  C   UNL d   1      53.481  30.556  53.735  0.00  0.00     0.068 A 
ATOM     19  C   UNL d   1      53.246  30.043  54.348  0.00  0.00     0.018 A 
ATOM     20  C   UNL d   1      53.559  29.280  54.385  0.00  0.00     0.002 A 
ATOM     21  C   UNL d   1      54.102  29.030  53.816  0.00  0.00     0.000 A 
ATOM     22  C   UNL d   1      54.336  29.542  53.205  0.00  0.00     0.002 A 
ATOM     23  C   UNL d   1      54.024  30.304  53.168  0.00  0.00     0.018 A 
ENDBRANCH   4  18
BRANCH   4  24
ATOM     24  C   UNL d   1      53.607  31.958  53.974  0.00  0.00     0.068 A 
ATOM     25  C   UNL d   1      53.558  32.188  54.763  0.00  0.00     0.018 A 
ATOM     26  C   UNL d   1      54.002  32.819  55.028  0.00  0.00     0.002 A 
ATOM     27  C   UNL d   1      54.502  33.230  54.516  0.00  0.00     0.000 A 
ATOM     28  C   UNL d   1      54.550  32.995  53.720  0.00  0.00     0.002 A 
ATOM     29  C   UNL d   1      54.102  32.359  53.450  0.00  0.00     0.018 A 
ENDBRANCH   4  24
TORSDOF 2
ENDMDL
MODEL 5
REMARK VINA RESULT:      -5.5      1.374      2.536
REMARK  2 active torsions:
REMARK  status: ('A' for Active; 'I' for Inactive)
REMARK       I    between atoms: N_3  and  C_1 
REMARK       I    between atoms: N_4  and  C_1 
REMARK       I    between atoms: C_2  and  N_5 
REMARK       I    between atoms: N_6  and  C_2 
REMARK    1  A    between atoms: C_13  and  N_4 
REMARK    2  A    between atoms: C_14  and  N_4 
ROOT
ATOM      1  C   UNL d   1      53.175  33.769  54.286  0.00  0.00     0.339 C 
ATOM      2  C   UNL d   1      52.565  30.757  53.086  0.00  0.00     0.340 C 
ATOM      3  N   UNL d   1      53.021  33.004  53.983  0.00  0.00    -0.254 N 
ATOM      4  N   UNL d   1      52.840  34.430  53.929  0.00  0.00    -0.260 N 
ATOM      5  N   UNL d   1      52.719  31.508  53.388  0.00  0.00    -0.254 N 
ATOM      6  N   UNL d   1      52.899  30.092  53.442  0.00  0.00    -0.253 N 
ATOM      7  O   UNL d   1      53.668  33.858  54.950  0.00  0.00    -0.245 OA
ATOM      8  O   UNL d   1      52.079  30.672  52.431  0.00  0.00    -0.245 OA
ATOM      9  C   UNL d   1      53.370  32.342  54.358  0.00  0.00     0.104 A 
ATOM     10  C   UNL d   1      52.540  32.916  53.335  0.00  0.00     0.104 A 
ATOM     11  C   UNL d   1      52.389  32.166  53.037  0.00  0.00     0.104 A 
ATOM     12  C   UNL d   1      53.218  31.592  54.060  0.00  0.00     0.104 A 
ATOM     13  O   UNL d   1      53.567  28.757  54.152  0.00  0.00    -0.300 OA
ATOM     14  C   UNL d   1      52.742  29.341  53.137  0.00  0.00     0.111 A 
ATOM     15  C   UNL d   1      53.389  30.181  54.102  0.00  0.00     0.111 A 
ATOM     16  C   UNL d   1      53.722  29.509  54.455  0.00  0.00     0.142 A 
ATOM     17  C   UNL d   1      53.073  28.674  53.488  0.00  0.00     0.142 A 
ENDROOT
BRANCH   4  18
ATOM     18  C   UNL d   1      52.994  35.191  54.232  0.00  0.00     0.068 A 
ATOM     19  C   UNL d   1      52.497  35.510  54.820  0.00  0.00     0.018 A 
ATOM     20  C   UNL d   1      52.649  36.263  55.119  0.00  0.00     0.002 A 
ATOM     21  C   UNL d   1      53.292  36.697  54.835  0.00  0.00     0.000 A 
ATOM     22  C   UNL d   1      53.787  36.379  54.250  0.00  0.00     0.002 A 
ATOM     23  C   UNL d   1      53.635  35.626  53.950  0.00  0.00     0.018 A 
ENDBRANCH   4  18
BRANCH   4  24
ATOM     24  C   UNL d   1      52.354  34.346  53.275  0.00  0.00     0.068 A 
ATOM     25  C   UNL d   1      52.671  34.365  52.515  0.00  0.00     0.018 A 
ATOM     26  C   UNL d   1      52.178  34.280  51.870  0.00  0.00     0.002 A 
ATOM     27  C   UNL d   1      51.366  34.176  51.969  0.00  0.00     0.000 A 
ATOM     28  C   UNL d   1      51.049  34.157  52.737  0.00  0.00     0.002 A 
ATOM     29  C   UNL d   1      51.544  34.242  53.390  0.00  0.00     0.018 A 
ENDBRANCH   4  24
TORSDOF 2
ENDMDL
MODEL 6
REMARK VINA RESULT:      -4.1      9.688     10.655
REMARK  2 active torsions:
REMARK  status: ('A' for Active; 'I' for Inactive)
REMARK       I    between atoms: N_3  and  C_1 
REMARK       I    between atoms: N_4  and  C_1 
REMARK       I    between atoms: C_2  and  N_5 
REMARK       I    between atoms: N_6  and  C_2 
REMARK    1  A    between atoms: C_13  and  N_4 
REMARK    2  A    between atoms: C_14  and  N_4 
ROOT
ATOM      1  C   UNL d   1      44.780  27.739  58.962  0.00  0.00     0.339 C 
ATOM      2  C   UNL d   1      44.690  24.912  57.265  0.00  0.00     0.340 C 
ATOM      3  N   UNL d   1      44.757  27.021  58.532  0.00  0.00    -0.254 N 
ATOM      4  N   UNL d   1      44.885  28.454  58.567  0.00  0.00    -0.260 N 
ATOM      5  N   UNL d   1      44.712  25.616  57.691  0.00  0.00    -0.254 N 
ATOM      6  N   UNL d   1      44.585  24.194  57.657  0.00  0.00    -0.253 N 
ATOM      7  O   UNL d   1      44.697  27.729  59.789  0.00  0.00    -0.245 OA
ATOM      8  O   UNL d   1      44.772  24.925  56.449  0.00  0.00    -0.245 OA
ATOM      9  C   UNL d   1      44.650  26.304  58.950  0.00  0.00     0.104 A 
ATOM     10  C   UNL d   1      44.838  27.031  57.725  0.00  0.00     0.104 A 
ATOM     11  C   UNL d   1      44.816  26.327  57.303  0.00  0.00     0.104 A 
ATOM     12  C   UNL d   1      44.627  25.600  58.528  0.00  0.00     0.104 A 
ATOM     13  O   UNL d   1      44.375  22.754  58.442  0.00  0.00    -0.300 OA
ATOM     14  C   UNL d   1      44.563  23.490  57.227  0.00  0.00     0.111 A 
ATOM     15  C   UNL d   1      44.502  24.184  58.480  0.00  0.00     0.111 A 
ATOM     16  C   UNL d   1      44.397  23.459  58.869  0.00  0.00     0.142 A 
ATOM     17  C   UNL d   1      44.459  22.771  57.614  0.00  0.00     0.142 A 
ENDROOT
BRANCH   4  18
ATOM     18  C   UNL d   1      44.908  29.168  58.995  0.00  0.00     0.068 A 
ATOM     19  C   UNL d   1      45.533  29.705  58.869  0.00  0.00     0.018 A 
ATOM     20  C   UNL d   1      45.556  30.412  59.292  0.00  0.00     0.002 A 
ATOM     21  C   UNL d   1      44.961  30.585  59.838  0.00  0.00     0.000 A 
ATOM     22  C   UNL d   1      44.338  30.050  59.963  0.00  0.00     0.002 A 
ATOM     23  C   UNL d   1      44.315  29.343  59.539  0.00  0.00     0.018 A 
ENDBRANCH   4  18
BRANCH   4  24
ATOM     24  C   UNL d   1      44.967  28.468  57.752  0.00  0.00     0.068 A 
ATOM     25  C   UNL d   1      44.314  28.604  57.269  0.00  0.00     0.018 A 
ATOM     26  C   UNL d   1      44.407  28.616  56.459  0.00  0.00     0.002 A 
ATOM     27  C   UNL d   1      45.147  28.494  56.115  0.00  0.00     0.000 A 
ATOM     28  C   UNL d   1      45.805  28.357  56.605  0.00  0.00     0.002 A 
ATOM     29  C   UNL d   1      45.714  28.344  57.423  0.00  0.00     0.018 A 
ENDBRANCH   4  24
TORSDOF 2
ENDMDL
MODEL 7
REMARK VINA RESULT:      -4.0      9.965     11.059
REMARK  2 active torsions:
REMARK  status: ('A' for Active; 'I' for Inactive)
REMARK       I    between atoms: N_3  and  C_1 
REMARK       I    between atoms: N_4  and  C_1 
REMARK       I    between atoms: C_2  and  N_5 
REMARK       I    between atoms: N_6  and  C_2 
REMARK    1  A    between atoms: C_13  and  N_4 
REMARK    2  A    between atoms: C_14  and  N_4 
ROOT
ATOM      1  C   UNL d   1      44.915  28.283  59.399  0.00  0.00     0.339 C 
ATOM      2  C   UNL d   1      44.612  30.680  61.645  0.00  0.00     0.340 C 
ATOM      3  N   UNL d   1      44.838  28.890  59.969  0.00  0.00    -0.254 N 
ATOM      4  N   UNL d   1      44.996  28.472  58.602  0.00  0.00    -0.260 N 
ATOM      5  N   UNL d   1      44.687  30.079  61.086  0.00  0.00    -0.254 N 
ATOM      6  N   UNL d   1      44.530  30.493  62.444  0.00  0.00    -0.253 N 
ATOM      7  O   UNL d   1      44.909  27.487  59.639  0.00  0.00    -0.245 OA
ATOM      8  O   UNL d   1      44.618  31.464  61.405  0.00  0.00    -0.245 OA
ATOM      9  C   UNL d   1      44.756  28.679  60.775  0.00  0.00     0.104 A 
ATOM     10  C   UNL d   1      44.843  29.667  59.735  0.00  0.00     0.104 A 
ATOM     11  C   UNL d   1      44.768  30.263  60.295  0.00  0.00     0.104 A 
ATOM     12  C   UNL d   1      44.681  29.275  61.335  0.00  0.00     0.104 A 
ATOM     13  O   UNL d   1      44.367  30.122  64.047  0.00  0.00    -0.300 OA
ATOM     14  C   UNL d   1      44.455  31.097  63.001  0.00  0.00     0.111 A 
ATOM     15  C   UNL d   1      44.525  29.701  62.682  0.00  0.00     0.111 A 
ATOM     16  C   UNL d   1      44.443  29.520  63.487  0.00  0.00     0.142 A 
ATOM     17  C   UNL d   1      44.373  30.916  63.800  0.00  0.00     0.142 A 
ENDROOT
BRANCH   4  18
ATOM     18  C   UNL d   1      45.072  27.868  58.034  0.00  0.00     0.068 A 
ATOM     19  C   UNL d   1      45.805  27.482  57.938  0.00  0.00     0.018 A 
ATOM     20  C   UNL d   1      45.881  26.883  57.375  0.00  0.00     0.002 A 
ATOM     21  C   UNL d   1      45.232  26.669  56.911  0.00  0.00     0.000 A 
ATOM     22  C   UNL d   1      44.502  27.054  57.007  0.00  0.00     0.002 A 
ATOM     23  C   UNL d   1      44.426  27.653  57.570  0.00  0.00     0.018 A 
ENDBRANCH   4  18
BRANCH   4  24
ATOM     24  C   UNL d   1      45.002  29.256  58.361  0.00  0.00     0.068 A 
ATOM     25  C   UNL d   1      44.316  29.710  58.403  0.00  0.00     0.018 A 
ATOM     26  C   UNL d   1      44.333  30.489  58.161  0.00  0.00     0.002 A 
ATOM     27  C   UNL d   1      45.029  30.828  57.874  0.00  0.00     0.000 A 
ATOM     28  C   UNL d   1      45.719  30.367  57.833  0.00  0.00     0.002 A 
ATOM     29  C   UNL d   1      45.705  29.581  58.077  0.00  0.00     0.018 A 
ENDBRANCH   4  24
TORSDOF 2
ENDMDL
MODEL 8
REMARK VINA RESULT:      -3.6      2.793      5.186
REMARK  2 active torsions:
REMARK  status: ('A' for Active; 'I' for Inactive)
REMARK       I    between atoms: N_3  and  C_1 
REMARK       I    between atoms: N_4  and  C_1 
REMARK       I    between atoms: C_2  and  N_5 
REMARK       I    between atoms: N_6  and  C_2 
REMARK    1  A    between atoms: C_13  and  N_4 
REMARK    2  A    between atoms: C_14  and  N_4 
ROOT
ATOM      1  C   UNL d   1      47.099  35.382  51.580  0.00  0.00     0.339 C 
ATOM      2  C   UNL d   1      49.927  34.850  53.194  0.00  0.00     0.340 C 
ATOM      3  N   UNL d   1      47.817  35.247  51.988  0.00  0.00    -0.254 N 
ATOM      4  N   UNL d   1      46.446  35.683  51.980  0.00  0.00    -0.260 N 
ATOM      5  N   UNL d   1      49.222  34.982  52.788  0.00  0.00    -0.254 N 
ATOM      6  N   UNL d   1      50.583  34.548  52.795  0.00  0.00    -0.253 N 
ATOM      7  O   UNL d   1      47.047  35.211  50.768  0.00  0.00    -0.245 OA
ATOM      8  O   UNL d   1      49.975  35.020  53.995  0.00  0.00    -0.245 OA
ATOM      9  C   UNL d   1      48.471  34.940  51.566  0.00  0.00     0.104 A 
ATOM     10  C   UNL d   1      47.868  35.413  52.781  0.00  0.00     0.104 A 
ATOM     11  C   UNL d   1      48.572  35.281  53.182  0.00  0.00     0.104 A 
ATOM     12  C   UNL d   1      49.175  34.807  51.966  0.00  0.00     0.104 A 
ATOM     13  O   UNL d   1      51.899  33.943  51.999  0.00  0.00    -0.300 OA
ATOM     14  C   UNL d   1      51.287  34.418  53.205  0.00  0.00     0.111 A 
ATOM     15  C   UNL d   1      50.530  34.378  51.988  0.00  0.00     0.111 A 
ATOM     16  C   UNL d   1      51.194  34.075  51.593  0.00  0.00     0.142 A 
ATOM     17  C   UNL d   1      51.945  34.116  52.811  0.00  0.00     0.142 A 
ENDROOT
BRANCH   4  18
ATOM     18  C   UNL d   1      45.732  35.818  51.573  0.00  0.00     0.068 A 
ATOM     19  C   UNL d   1      45.145  35.226  51.563  0.00  0.00     0.018 A 
ATOM     20  C   UNL d   1      44.437  35.360  51.161  0.00  0.00     0.002 A 
ATOM     21  C   UNL d   1      44.314  36.077  50.770  0.00  0.00     0.000 A 
ATOM     22  C   UNL d   1      44.900  36.666  50.780  0.00  0.00     0.002 A 
ATOM     23  C   UNL d   1      45.607  36.533  51.183  0.00  0.00     0.018 A 
ENDBRANCH   4  18
BRANCH   4  24
ATOM     24  C   UNL d   1      46.494  35.853  52.780  0.00  0.00     0.068 A 
ATOM     25  C   UNL d   1      46.848  36.550  53.039  0.00  0.00     0.018 A 
ATOM     26  C   UNL d   1      46.889  36.709  53.838  0.00  0.00     0.002 A 
ATOM     27  C   UNL d   1      46.582  36.181  54.392  0.00  0.00     0.000 A 
ATOM     28  C   UNL d   1      46.225  35.478  54.128  0.00  0.00     0.002 A 
ATOM     29  C   UNL d   1      46.182  35.315  53.322  0.00  0.00     0.018 A 
ENDBRANCH   4  24
TORSDOF 2
ENDMDL
