MODEL 1
REMARK VINA RESULT:      -7.2      0.000      0.000
REMARK  6 active torsions:
REMARK  status: ('A' for Active; 'I' for Inactive)
REMARK    1  A    between atoms: C_6  and  C_1 
REMARK    2  A    between atoms: C_8  and  N_2 
REMARK    3  A    between atoms: C_12  and  C_5 
REMARK    4  A    between atoms: C_7  and  C_6 
REMARK    5  A    between atoms: C_18  and  C_8 
REMARK    6  A    between atoms: N_10  and  C_18 
ROOT
ATOM      1  C   UNL d   1      52.837  32.871  53.034  0.00  0.00     0.099 A 
ATOM      2  N   UNL d   1      53.136  31.621  53.412  0.00  0.00    -0.269 N 
ATOM      3  C   UNL d   1      52.391  32.368  52.557  0.00  0.00     0.256 A 
ATOM      4  C   UNL d   1      52.575  31.604  52.790  0.00  0.00     0.304 A 
ATOM      5  C   UNL d   1      53.284  32.422  53.548  0.00  0.00     0.073 A 
ATOM      6  O   UNL d   1      52.261  30.919  52.466  0.00  0.00    -0.263 OA
ATOM      7  O   UNL d   1      51.863  32.596  51.963  0.00  0.00    -0.281 OA
ENDROOT
BRANCH   2   8
ATOM      8  C   UNL d   1      53.478  30.977  53.815  0.00  0.00     0.102 C 
BRANCH   8   9
ATOM      9  C   UNL d   1      53.233  30.216  53.639  0.00  0.00     0.100 C 
BRANCH   9  10
ATOM     10  N   UNL d   1      53.357  29.603  54.171  0.00  0.00    -0.298 N 
ATOM     11  C   UNL d   1      53.930  29.012  53.974  0.00  0.00     0.107 A 
ATOM     12  C   UNL d   1      54.065  28.380  54.510  0.00  0.00     0.142 A 
ATOM     13  O   UNL d   1      53.631  28.351  55.221  0.00  0.00    -0.300 OA
ATOM     14  C   UNL d   1      53.075  28.926  55.410  0.00  0.00     0.142 A 
ATOM     15  C   UNL d   1      52.940  29.561  54.870  0.00  0.00     0.107 A 
ENDBRANCH   9  10
ENDBRANCH   8   9
ENDBRANCH   2   8
BRANCH   5  16
ATOM     16  C   UNL d   1      53.810  32.703  54.121  0.00  0.00     0.016 A 
ATOM     17  C   UNL d   1      53.565  32.777  54.905  0.00  0.00     0.001 A 
ATOM     18  C   UNL d   1      54.084  33.055  55.474  0.00  0.00     0.000 A 
ATOM     19  C   UNL d   1      54.859  33.263  55.262  0.00  0.00     0.000 A 
ATOM     20  C   UNL d   1      55.096  33.186  54.478  0.00  0.00     0.000 A 
ATOM     21  C   UNL d   1      54.565  32.904  53.906  0.00  0.00     0.001 A 
ENDBRANCH   5  16
BRANCH   1  22
ATOM     22  C   UNL d   1      52.821  33.694  52.987  0.00  0.00     0.206 C 
ATOM     23  O   UNL d   1      53.507  34.099  52.836  0.00  0.00    -0.286 OA
BRANCH  22  24
ATOM     24  C   UNL d   1      52.096  34.115  53.096  0.00  0.00     0.069 A 
ATOM     25  S   UNL d   1      51.582  34.366  52.497  0.00  0.00    -0.083 SA
ATOM     26  C   UNL d   1      50.948  34.752  52.855  0.00  0.00     0.035 A 
ATOM     27  C   UNL d   1      51.058  34.746  53.667  0.00  0.00     0.008 A 
ATOM     28  C   UNL d   1      51.773  34.349  53.817  0.00  0.00     0.010 A 
ENDBRANCH  22  24
ENDBRANCH   1  22
TORSDOF 6
ENDMDL
MODEL 2
REMARK VINA RESULT:      -7.1      2.209      4.562
REMARK  6 active torsions:
REMARK  status: ('A' for Active; 'I' for Inactive)
REMARK    1  A    between atoms: C_6  and  C_1 
REMARK    2  A    between atoms: C_8  and  N_2 
REMARK    3  A    between atoms: C_12  and  C_5 
REMARK    4  A    between atoms: C_7  and  C_6 
REMARK    5  A    between atoms: C_18  and  C_8 
REMARK    6  A    between atoms: N_10  and  C_18 
ROOT
ATOM      1  C   UNL d   1      53.163  33.606  54.376  0.00  0.00     0.099 A 
ATOM      2  N   UNL d   1      52.173  33.948  53.540  0.00  0.00    -0.269 N 
ATOM      3  C   UNL d   1      52.996  34.400  54.521  0.00  0.00     0.256 A 
ATOM      4  C   UNL d   1      52.391  34.607  54.008  0.00  0.00     0.304 A 
ATOM      5  C   UNL d   1      52.668  33.334  53.786  0.00  0.00     0.073 A 
ATOM      6  O   UNL d   1      52.045  35.349  53.957  0.00  0.00    -0.263 OA
ATOM      7  O   UNL d   1      53.371  34.886  55.076  0.00  0.00    -0.281 OA
ENDROOT
BRANCH   2   8
ATOM      8  C   UNL d   1      51.587  33.907  52.950  0.00  0.00     0.102 C 
BRANCH   8   9
ATOM      9  C   UNL d   1      51.068  34.532  52.854  0.00  0.00     0.100 C 
BRANCH   9  10
ATOM     10  N   UNL d   1      50.436  34.475  52.333  0.00  0.00    -0.298 N 
ATOM     11  C   UNL d   1      49.655  34.598  52.636  0.00  0.00     0.107 A 
ATOM     12  C   UNL d   1      49.000  34.542  52.113  0.00  0.00     0.142 A 
ATOM     13  O   UNL d   1      49.137  34.368  51.309  0.00  0.00    -0.300 OA
ATOM     14  C   UNL d   1      49.896  34.250  51.017  0.00  0.00     0.142 A 
ATOM     15  C   UNL d   1      50.553  34.306  51.544  0.00  0.00     0.107 A 
ENDBRANCH   9  10
ENDBRANCH   8   9
ENDBRANCH   2   8
BRANCH   5  16
ATOM     16  C   UNL d   1      52.648  32.570  53.470  0.00  0.00     0.016 A 
ATOM     17  C   UNL d   1      52.167  31.994  53.812  0.00  0.00     0.001 A 
ATOM     18  C   UNL d   1      52.145  31.238  53.501  0.00  0.00     0.000 A 
ATOM     19  C   UNL d   1      52.609  31.048  52.839  0.00  0.00     0.000 A 
ATOM     20  C   UNL d   1      53.086  31.629  52.504  0.00  0.00     0.000 A 
ATOM     21  C   UNL d   1      53.104  32.394  52.824  0.00  0.00     0.001 A 
ENDBRANCH   5  16
BRANCH   1  22
ATOM     22  C   UNL d   1      53.740  33.170  54.772  0.00  0.00     0.206 C 
ATOM     23  O   UNL d   1      53.526  32.509  55.189  0.00  0.00    -0.286 OA
BRANCH  22  24
ATOM     24  C   UNL d   1      54.550  33.409  54.744  0.00  0.00     0.069 A 
ATOM     25  S   UNL d   1      54.997  33.697  55.379  0.00  0.00    -0.083 SA
ATOM     26  C   UNL d   1      55.755  33.860  55.100  0.00  0.00     0.035 A 
ATOM     27  C   UNL d   1      55.789  33.679  54.301  0.00  0.00     0.008 A 
ATOM     28  C   UNL d   1      55.038  33.398  54.079  0.00  0.00     0.010 A 
ENDBRANCH  22  24
ENDBRANCH   1  22
TORSDOF 6
ENDMDL
MODEL 3
REMARK VINA RESULT:      -6.8      1.475      2.557
REMARK  6 active torsions:
REMARK  status: ('A' for Active; 'I' for Inactive)
REMARK    1  A    between atoms: C_6  and  C_1 
REMARK    2  A    between atoms: C_8  and  N_2 
REMARK    3  A    between atoms: C_12  and  C_5 
REMARK    4  A    between atoms: C_7  and  C_6 
REMARK    5  A    between atoms: C_18  and  C_8 
REMARK    6  A    between atoms: N_10  and  C_18 
ROOT
ATOM      1  C   UNL d   1      53.427  33.958  53.539  0.00  0.00     0.099 A 
ATOM      2  N   UNL d   1      53.351  32.627  53.401  0.00  0.00    -0.269 N 
ATOM      3  C   UNL d   1      54.170  33.659  53.731  0.00  0.00     0.256 A 
ATOM      4  C   UNL d   1      54.122  32.845  53.646  0.00  0.00     0.304 A 
ATOM      5  C   UNL d   1      52.935  33.338  53.340  0.00  0.00     0.073 A 
ATOM      6  O   UNL d   1      54.734  32.316  53.779  0.00  0.00    -0.263 OA
ATOM      7  O   UNL d   1      54.831  34.100  53.963  0.00  0.00    -0.281 OA
ENDROOT
BRANCH   2   8
ATOM      8  C   UNL d   1      53.056  31.864  53.248  0.00  0.00     0.102 C 
BRANCH   8   9
ATOM      9  C   UNL d   1      53.542  31.215  53.357  0.00  0.00     0.100 C 
BRANCH   9  10
ATOM     10  N   UNL d   1      53.228  30.457  53.391  0.00  0.00    -0.298 N 
ATOM     11  C   UNL d   1      53.369  29.996  54.087  0.00  0.00     0.107 A 
ATOM     12  C   UNL d   1      53.053  29.220  54.134  0.00  0.00     0.142 A 
ATOM     13  O   UNL d   1      52.609  28.924  53.494  0.00  0.00    -0.300 OA
ATOM     14  C   UNL d   1      52.474  29.372  52.819  0.00  0.00     0.142 A 
ATOM     15  C   UNL d   1      52.792  30.153  52.773  0.00  0.00     0.107 A 
ENDBRANCH   9  10
ENDBRANCH   8   9
ENDBRANCH   2   8
BRANCH   5  16
ATOM     16  C   UNL d   1      52.141  33.390  53.112  0.00  0.00     0.016 A 
ATOM     17  C   UNL d   1      51.543  33.211  53.652  0.00  0.00     0.001 A 
ATOM     18  C   UNL d   1      50.758  33.261  53.428  0.00  0.00     0.000 A 
ATOM     19  C   UNL d   1      50.561  33.493  52.655  0.00  0.00     0.000 A 
ATOM     20  C   UNL d   1      51.163  33.670  52.123  0.00  0.00     0.000 A 
ATOM     21  C   UNL d   1      51.958  33.617  52.357  0.00  0.00     0.001 A 
ENDBRANCH   5  16
BRANCH   1  22
ATOM     22  C   UNL d   1      53.228  34.758  53.550  0.00  0.00     0.206 C 
ATOM     23  O   UNL d   1      53.103  35.150  52.851  0.00  0.00    -0.286 OA
BRANCH  22  24
ATOM     24  C   UNL d   1      53.155  35.170  54.284  0.00  0.00     0.069 A 
ATOM     25  S   UNL d   1      52.989  35.976  54.379  0.00  0.00    -0.083 SA
ATOM     26  C   UNL d   1      52.969  36.136  55.187  0.00  0.00     0.035 A 
ATOM     27  C   UNL d   1      53.119  35.443  55.599  0.00  0.00     0.008 A 
ATOM     28  C   UNL d   1      53.235  34.842  55.037  0.00  0.00     0.010 A 
ENDBRANCH  22  24
ENDBRANCH   1  22
TORSDOF 6
ENDMDL
MODEL 4
REMARK VINA RESULT:      -6.5      1.609      4.147
REMARK  6 active torsions:
REMARK  status: ('A' for Active; 'I' for Inactive)
REMARK    1  A    between atoms: C_6  and  C_1 
REMARK    2  A    between atoms: C_8  and  N_2 
REMARK    3  A    between atoms: C_12  and  C_5 
REMARK    4  A    between atoms: C_7  and  C_6 
REMARK    5  A    between atoms: C_18  and  C_8 
REMARK    6  A    between atoms: N_10  and  C_18 
ROOT
ATOM      1  C   UNL d   1      53.288  31.101  53.389  0.00  0.00     0.099 A 
ATOM      2  N   UNL d   1      52.593  32.229  53.190  0.00  0.00    -0.269 N 
ATOM      3  C   UNL d   1      52.644  30.900  52.917  0.00  0.00     0.256 A 
ATOM      4  C   UNL d   1      52.220  31.591  52.796  0.00  0.00     0.304 A 
ATOM      5  C   UNL d   1      53.258  31.900  53.553  0.00  0.00     0.073 A 
ATOM      6  O   UNL d   1      51.532  31.655  52.355  0.00  0.00    -0.263 OA
ATOM      7  O   UNL d   1      52.466  30.146  52.625  0.00  0.00    -0.281 OA
ENDROOT
BRANCH   2   8
ATOM      8  C   UNL d   1      52.356  33.026  53.217  0.00  0.00     0.102 C 
BRANCH   8   9
ATOM      9  C   UNL d   1      51.723  33.274  52.761  0.00  0.00     0.100 C 
BRANCH   9  10
ATOM     10  N   UNL d   1      51.311  33.958  52.952  0.00  0.00    -0.298 N 
ATOM     11  C   UNL d   1      50.471  33.964  52.842  0.00  0.00     0.107 A 
ATOM     12  C   UNL d   1      50.039  34.657  53.034  0.00  0.00     0.142 A 
ATOM     13  O   UNL d   1      50.448  35.321  53.328  0.00  0.00    -0.300 OA
ATOM     14  C   UNL d   1      51.262  35.313  53.435  0.00  0.00     0.142 A 
ATOM     15  C   UNL d   1      51.696  34.615  53.241  0.00  0.00     0.107 A 
ENDBRANCH   9  10
ENDBRANCH   8   9
ENDBRANCH   2   8
BRANCH   5  16
ATOM     16  C   UNL d   1      53.796  32.332  54.009  0.00  0.00     0.016 A 
ATOM     17  C   UNL d   1      53.661  32.441  54.816  0.00  0.00     0.001 A 
ATOM     18  C   UNL d   1      54.191  32.868  55.268  0.00  0.00     0.000 A 
ATOM     19  C   UNL d   1      54.869  33.194  54.915  0.00  0.00     0.000 A 
ATOM     20  C   UNL d   1      54.996  33.082  54.111  0.00  0.00     0.000 A 
ATOM     21  C   UNL d   1      54.454  32.647  53.657  0.00  0.00     0.001 A 
ENDBRANCH   5  16
BRANCH   1  22
ATOM     22  C   UNL d   1      53.863  30.569  53.647  0.00  0.00     0.206 C 
ATOM     23  O   UNL d   1      54.638  30.684  53.438  0.00  0.00    -0.286 OA
BRANCH  22  24
ATOM     24  C   UNL d   1      53.648  29.906  54.125  0.00  0.00     0.069 A 
ATOM     25  S   UNL d   1      53.820  29.112  53.966  0.00  0.00    -0.083 SA
ATOM     26  C   UNL d   1      53.506  28.658  54.578  0.00  0.00     0.035 A 
ATOM     27  C   UNL d   1      53.141  29.157  55.117  0.00  0.00     0.008 A 
ATOM     28  C   UNL d   1      53.229  29.933  54.835  0.00  0.00     0.010 A 
ENDBRANCH  22  24
ENDBRANCH   1  22
TORSDOF 6
ENDMDL
MODEL 5
REMARK VINA RESULT:      -6.0      2.020      4.576
REMARK  6 active torsions:
REMARK  status: ('A' for Active; 'I' for Inactive)
REMARK    1  A    between atoms: C_6  and  C_1 
REMARK    2  A    between atoms: C_8  and  N_2 
REMARK    3  A    between atoms: C_12  and  C_5 
REMARK    4  A    between atoms: C_7  and  C_6 
REMARK    5  A    between atoms: C_18  and  C_8 
REMARK    6  A    between atoms: N_10  and  C_18 
ROOT
ATOM      1  C   UNL d   1      52.570  33.084  53.172  0.00  0.00     0.099 A 
ATOM      2  N   UNL d   1      51.397  33.727  53.111  0.00  0.00    -0.269 N 
ATOM      3  C   UNL d   1      52.033  32.560  52.834  0.00  0.00     0.256 A 
ATOM      4  C   UNL d   1      51.315  32.955  52.797  0.00  0.00     0.304 A 
ATOM      5  C   UNL d   1      52.188  33.785  53.338  0.00  0.00     0.073 A 
ATOM      6  O   UNL d   1      50.617  32.645  52.498  0.00  0.00    -0.263 OA
ATOM      7  O   UNL d   1      52.192  31.787  52.582  0.00  0.00    -0.281 OA
ENDROOT
BRANCH   2   8
ATOM      8  C   UNL d   1      50.814  34.317  53.183  0.00  0.00     0.102 C 
BRANCH   8   9
ATOM      9  C   UNL d   1      50.099  34.226  52.796  0.00  0.00     0.100 C 
BRANCH   9  10
ATOM     10  N   UNL d   1      49.520  34.807  52.844  0.00  0.00    -0.298 N 
ATOM     11  C   UNL d   1      49.113  35.026  52.135  0.00  0.00     0.107 A 
ATOM     12  C   UNL d   1      48.519  35.618  52.171  0.00  0.00     0.142 A 
ATOM     13  O   UNL d   1      48.346  35.974  52.905  0.00  0.00    -0.300 OA
ATOM     14  C   UNL d   1      48.741  35.760  53.592  0.00  0.00     0.142 A 
ATOM     15  C   UNL d   1      49.339  35.164  53.554  0.00  0.00     0.107 A 
ENDBRANCH   9  10
ENDBRANCH   8   9
ENDBRANCH   2   8
BRANCH   5  16
ATOM     16  C   UNL d   1      52.521  34.461  53.681  0.00  0.00     0.016 A 
ATOM     17  C   UNL d   1      52.450  34.591  54.492  0.00  0.00     0.001 A 
ATOM     18  C   UNL d   1      52.778  35.258  54.832  0.00  0.00     0.000 A 
ATOM     19  C   UNL d   1      53.185  35.808  54.361  0.00  0.00     0.000 A 
ATOM     20  C   UNL d   1      53.252  35.671  53.552  0.00  0.00     0.000 A 
ATOM     21  C   UNL d   1      52.916  34.991  53.213  0.00  0.00     0.001 A 
ENDBRANCH   5  16
BRANCH   1  22
ATOM     22  C   UNL d   1      53.365  32.912  53.313  0.00  0.00     0.206 C 
ATOM     23  O   UNL d   1      53.940  33.335  52.931  0.00  0.00    -0.286 OA
BRANCH  22  24
ATOM     24  C   UNL d   1      53.579  32.298  53.853  0.00  0.00     0.069 A 
ATOM     25  S   UNL d   1      53.727  31.507  53.660  0.00  0.00    -0.083 SA
ATOM     26  C   UNL d   1      53.916  31.108  54.356  0.00  0.00     0.035 A 
ATOM     27  C   UNL d   1      53.889  31.638  54.981  0.00  0.00     0.008 A 
ATOM     28  C   UNL d   1      53.679  32.379  54.668  0.00  0.00     0.010 A 
ENDBRANCH  22  24
ENDBRANCH   1  22
TORSDOF 6
ENDMDL
