MODEL 1
REMARK VINA RESULT:      23.4      0.000      0.000
REMARK  4 active torsions:
REMARK  status: ('A' for Active; 'I' for Inactive)
REMARK    1  A    between atoms: N_3  and  C_1 
REMARK       I    between atoms: C_7  and  N_3 
REMARK    2  A    between atoms: C_15  and  C_7 
REMARK    3  A    between atoms: C_10  and  S_11 
REMARK    4  A    between atoms: S_11  and  C_15 
ROOT
ATOM      1  C   UNL d   1      14.072  12.560  -1.975  0.00  0.00     0.182 A 
ATOM      2  N   UNL d   1      13.397  12.136  -2.193  0.00  0.00    -0.283 N 
ATOM      3  S   UNL d   1      14.442  12.823  -2.670  0.00  0.00    -0.048 SA
ATOM      4  C   UNL d   1      13.991  12.559  -3.314  0.00  0.00     0.051 A 
ATOM      5  C   UNL d   1      13.346  12.135  -3.020  0.00  0.00     0.072 A 
ATOM      6  C   UNL d   1      14.094  12.656  -4.130  0.00  0.00     0.038 A 
ATOM      7  C   UNL d   1      12.805  11.808  -3.542  0.00  0.00     0.020 A 
ATOM      8  C   UNL d   1      13.542  12.322  -4.638  0.00  0.00     0.141 A 
ATOM      9  C   UNL d   1      12.897  11.898  -4.344  0.00  0.00     0.031 A 
ATOM     10  C   UNL d   1      12.873  11.781  -1.675  0.00  0.00     0.101 C 
ATOM     11  F   UNL d   1      13.633  12.411  -5.458  0.00  0.00    -0.204 F 
ENDROOT
BRANCH   1  12
ATOM     12  N   UNL d   1      14.333  12.698  -1.203  0.00  0.00    -0.183 NA
ATOM     13  C   UNL d   1      14.975  13.217  -1.286  0.00  0.00     0.288 C 
ATOM     14  O   UNL d   1      15.207  13.470  -2.040  0.00  0.00    -0.265 OA
BRANCH  13  15
ATOM     15  C   UNL d   1      15.383  13.482  -0.627  0.00  0.00     0.101 C 
BRANCH  15  16
ATOM     16  S   UNL d   1      15.115  14.142  -0.204  0.00  0.00    -0.040 SA
BRANCH  16  17
ATOM     17  C   UNL d   1      15.610  14.804  -0.107  0.00  0.00     0.226 C 
ATOM     18  O   UNL d   1      15.270  15.550  -0.019  0.00  0.00    -0.279 OA
ATOM     19  C   UNL d   1      16.421  14.709  -0.102  0.00  0.00     0.053 C 
ENDBRANCH  16  17
ENDBRANCH  15  16
ENDBRANCH  13  15
ENDBRANCH   1  12
TORSDOF 4
ENDMDL
MODEL 2
REMARK VINA RESULT:      25.4      1.864      2.529
REMARK  4 active torsions:
REMARK  status: ('A' for Active; 'I' for Inactive)
REMARK    1  A    between atoms: N_3  and  C_1 
REMARK       I    between atoms: C_7  and  N_3 
REMARK    2  A    between atoms: C_15  and  C_7 
REMARK    3  A    between atoms: C_10  and  S_11 
REMARK    4  A    between atoms: S_11  and  C_15 
ROOT
ATOM      1  C   UNL d   1      13.131  12.661  -3.589  0.00  0.00     0.182 A 
ATOM      2  N   UNL d   1      13.167  12.517  -4.402  0.00  0.00    -0.283 N 
ATOM      3  S   UNL d   1      13.193  13.481  -3.472  0.00  0.00    -0.048 SA
ATOM      4  C   UNL d   1      13.267  13.838  -4.218  0.00  0.00     0.051 A 
ATOM      5  C   UNL d   1      13.252  13.243  -4.791  0.00  0.00     0.072 A 
ATOM      6  C   UNL d   1      13.347  14.632  -4.438  0.00  0.00     0.038 A 
ATOM      7  C   UNL d   1      13.316  13.444  -5.583  0.00  0.00     0.020 A 
ATOM      8  C   UNL d   1      13.411  14.815  -5.236  0.00  0.00     0.141 A 
ATOM      9  C   UNL d   1      13.395  14.221  -5.809  0.00  0.00     0.031 A 
ATOM     10  C   UNL d   1      13.127  11.781  -4.755  0.00  0.00     0.101 C 
ATOM     11  F   UNL d   1      13.492  15.607  -5.470  0.00  0.00    -0.204 F 
ENDROOT
BRANCH   1  12
ATOM     12  N   UNL d   1      13.047  12.091  -2.996  0.00  0.00    -0.183 NA
ATOM     13  C   UNL d   1      13.668  12.242  -2.468  0.00  0.00     0.288 C 
ATOM     14  O   UNL d   1      14.196  12.863  -2.617  0.00  0.00    -0.265 OA
BRANCH  13  15
ATOM     15  C   UNL d   1      13.765  11.780  -1.799  0.00  0.00     0.101 C 
BRANCH  15  16
ATOM     16  S   UNL d   1      14.463  11.826  -1.353  0.00  0.00    -0.040 SA
BRANCH  16  17
ATOM     17  C   UNL d   1      14.440  12.104  -0.570  0.00  0.00     0.226 C 
ATOM     18  O   UNL d   1      14.967  12.693  -0.337  0.00  0.00    -0.279 OA
ATOM     19  C   UNL d   1      13.899  11.792  -0.042  0.00  0.00     0.053 C 
ENDBRANCH  16  17
ENDBRANCH  15  16
ENDBRANCH  13  15
ENDBRANCH   1  12
TORSDOF 4
ENDMDL
