MODEL 1
REMARK VINA RESULT:       0.9      0.000      0.000
REMARK  8 active torsions:
REMARK  status: ('A' for Active; 'I' for Inactive)
REMARK    1  A    between atoms: C_3  and  C_1 
REMARK    2  A    between atoms: N_5  and  C_2 
REMARK    3  A    between atoms: N_4  and  C_3 
REMARK    4  A    between atoms: C_10  and  C_3 
REMARK    5  A    between atoms: C_13  and  N_4 
REMARK       I    between atoms: C_6  and  N_5 
REMARK    6  A    between atoms: C_8  and  C_13 
REMARK    7  A    between atoms: O_16  and  C_8 
REMARK    8  A    between atoms: C_21  and  O_16 
ROOT
ATOM      1  C   UNL d   1      31.280  17.088 -23.533  0.00  0.00     0.083 C 
ENDROOT
BRANCH   1   2
ATOM      2  C   UNL d   1      30.472  16.918 -23.550  0.00  0.00     0.036 A 
ATOM      3  C   UNL d   1      29.958  17.367 -23.991  0.00  0.00     0.086 A 
ATOM      4  C   UNL d   1      29.151  17.198 -24.009  0.00  0.00     0.020 A 
ATOM      5  C   UNL d   1      28.858  16.579 -23.586  0.00  0.00     0.008 A 
ATOM      6  C   UNL d   1      29.382  16.102 -23.122  0.00  0.00     0.035 A 
ATOM      7  C   UNL d   1      30.186  16.286 -23.116  0.00  0.00     0.010 A 
ATOM      8 BR   UNL d   1      29.090  15.453 -22.675  0.00  0.00    -0.049 Br
BRANCH   3   9
ATOM      9  N   UNL d   1      30.260  18.018 -24.437  0.00  0.00    -0.208 NA
ATOM     10  C   UNL d   1      29.751  18.628 -24.671  0.00  0.00     0.279 C 
ATOM     11  O   UNL d   1      30.040  19.248 -25.096  0.00  0.00    -0.265 OA
ATOM     12  C   UNL d   1      28.957  18.614 -24.478  0.00  0.00     0.068 C 
ENDBRANCH   3   9
ENDBRANCH   1   2
BRANCH   1  13
ATOM     13  N   UNL d   1      31.565  17.754 -23.160  0.00  0.00    -0.238 NA
BRANCH  13  14
ATOM     14  C   UNL d   1      32.384  17.891 -23.181  0.00  0.00     0.167 C 
BRANCH  14  15
ATOM     15  C   UNL d   1      32.687  18.529 -22.724  0.00  0.00     0.320 C 
ATOM     16  O   UNL d   1      33.106  18.351 -22.009  0.00  0.00    -0.257 OA
BRANCH  15  17
ATOM     17  O   UNL d   1      32.584  19.313 -22.957  0.00  0.00    -0.270 OA
BRANCH  17  18
ATOM     18  C   UNL d   1      33.193  19.829 -22.911  0.00  0.00     0.126 C 
ATOM     19  C   UNL d   1      33.079  20.647 -22.900  0.00  0.00     0.029 C 
ENDBRANCH  17  18
ENDBRANCH  15  17
ENDBRANCH  14  15
ENDBRANCH  13  14
ENDBRANCH   1  13
BRANCH   1  20
ATOM     20  C   UNL d   1      31.809  16.577 -23.897  0.00  0.00     0.018 A 
ATOM     21  C   UNL d   1      32.369  16.161 -23.456  0.00  0.00     0.002 A 
ATOM     22  C   UNL d   1      32.903  15.650 -23.799  0.00  0.00     0.000 A 
ATOM     23  C   UNL d   1      32.870  15.549 -24.649  0.00  0.00     0.000 A 
ATOM     24  C   UNL d   1      32.313  15.961 -25.096  0.00  0.00     0.000 A 
ATOM     25  C   UNL d   1      31.784  16.473 -24.724  0.00  0.00     0.002 A 
ENDBRANCH   1  20
TORSDOF 8
ENDMDL
MODEL 2
REMARK VINA RESULT:       1.9      1.688      2.634
REMARK  8 active torsions:
REMARK  status: ('A' for Active; 'I' for Inactive)
REMARK    1  A    between atoms: C_3  and  C_1 
REMARK    2  A    between atoms: N_5  and  C_2 
REMARK    3  A    between atoms: N_4  and  C_3 
REMARK    4  A    between atoms: C_10  and  C_3 
REMARK    5  A    between atoms: C_13  and  N_4 
REMARK       I    between atoms: C_6  and  N_5 
REMARK    6  A    between atoms: C_8  and  C_13 
REMARK    7  A    between atoms: O_16  and  C_8 
REMARK    8  A    between atoms: C_21  and  O_16 
ROOT
ATOM      1  C   UNL d   1      32.367  18.089 -23.600  0.00  0.00     0.083 C 
ENDROOT
BRANCH   1   2
ATOM      2  C   UNL d   1      32.186  17.350 -23.918  0.00  0.00     0.036 A 
ATOM      3  C   UNL d   1      31.423  17.070 -23.923  0.00  0.00     0.086 A 
ATOM      4  C   UNL d   1      31.241  16.331 -24.242  0.00  0.00     0.020 A 
ATOM      5  C   UNL d   1      31.823  15.871 -24.555  0.00  0.00     0.008 A 
ATOM      6  C   UNL d   1      32.623  16.149 -24.557  0.00  0.00     0.035 A 
ATOM      7  C   UNL d   1      32.786  16.891 -24.234  0.00  0.00     0.010 A 
ATOM      8 BR   UNL d   1      33.240  15.681 -24.881  0.00  0.00    -0.049 Br
BRANCH   3   9
ATOM      9  N   UNL d   1      30.808  17.549 -23.596  0.00  0.00    -0.208 NA
ATOM     10  C   UNL d   1      30.027  17.273 -23.600  0.00  0.00     0.279 C 
ATOM     11  O   UNL d   1      29.441  17.730 -23.287  0.00  0.00    -0.265 OA
ATOM     12  C   UNL d   1      29.836  16.544 -23.916  0.00  0.00     0.068 C 
ENDBRANCH   3   9
ENDBRANCH   1   2
BRANCH   1  13
ATOM     13  N   UNL d   1      32.490  18.187 -22.800  0.00  0.00    -0.238 NA
BRANCH  13  14
ATOM     14  C   UNL d   1      33.066  18.734 -22.559  0.00  0.00     0.167 C 
BRANCH  14  15
ATOM     15  C   UNL d   1      33.026  19.026 -21.770  0.00  0.00     0.320 C 
ATOM     16  O   UNL d   1      32.899  18.473 -21.141  0.00  0.00    -0.257 OA
BRANCH  15  17
ATOM     17  O   UNL d   1      33.107  19.830 -21.604  0.00  0.00    -0.270 OA
BRANCH  17  18
ATOM     18  C   UNL d   1      33.014  20.096 -20.857  0.00  0.00     0.126 C 
ATOM     19  C   UNL d   1      33.233  20.860 -20.629  0.00  0.00     0.029 C 
ENDBRANCH  17  18
ENDBRANCH  15  17
ENDBRANCH  14  15
ENDBRANCH  13  14
ENDBRANCH   1  13
BRANCH   1  20
ATOM     20  C   UNL d   1      32.427  18.740 -24.096  0.00  0.00     0.018 A 
ATOM     21  C   UNL d   1      33.160  18.990 -24.381  0.00  0.00     0.002 A 
ATOM     22  C   UNL d   1      33.239  19.634 -24.874  0.00  0.00     0.000 A 
ATOM     23  C   UNL d   1      32.529  20.057 -25.097  0.00  0.00     0.000 A 
ATOM     24  C   UNL d   1      31.793  19.813 -24.816  0.00  0.00     0.000 A 
ATOM     25  C   UNL d   1      31.740  19.157 -24.317  0.00  0.00     0.002 A 
ENDBRANCH   1  20
TORSDOF 8
ENDMDL
MODEL 3
REMARK VINA RESULT:       2.3      1.885      3.929
REMARK  8 active torsions:
REMARK  status: ('A' for Active; 'I' for Inactive)
REMARK    1  A    between atoms: C_3  and  C_1 
REMARK    2  A    between atoms: N_5  and  C_2 
REMARK    3  A    between atoms: N_4  and  C_3 
REMARK    4  A    between atoms: C_10  and  C_3 
REMARK    5  A    between atoms: C_13  and  N_4 
REMARK       I    between atoms: C_6  and  N_5 
REMARK    6  A    between atoms: C_8  and  C_13 
REMARK    7  A    between atoms: O_16  and  C_8 
REMARK    8  A    between atoms: C_21  and  O_16 
ROOT
ATOM      1  C   UNL d   1      31.990  18.107 -24.054  0.00  0.00     0.083 C 
ENDROOT
BRANCH   1   2
ATOM      2  C   UNL d   1      32.407  17.781 -23.421  0.00  0.00     0.036 A 
ATOM      3  C   UNL d   1      32.790  17.068 -23.493  0.00  0.00     0.086 A 
ATOM      4  C   UNL d   1      33.207  16.742 -22.860  0.00  0.00     0.020 A 
ATOM      5  C   UNL d   1      33.241  17.129 -22.155  0.00  0.00     0.008 A 
ATOM      6  C   UNL d   1      32.846  17.873 -22.065  0.00  0.00     0.035 A 
ATOM      7  C   UNL d   1      32.434  18.184 -22.708  0.00  0.00     0.010 A 
ATOM      8 BR   UNL d   1      32.873  18.288 -21.336  0.00  0.00    -0.049 Br
BRANCH   3   9
ATOM      9  N   UNL d   1      32.758  16.658 -24.231  0.00  0.00    -0.208 NA
ATOM     10  C   UNL d   1      32.969  15.857 -24.265  0.00  0.00     0.279 C 
ATOM     11  O   UNL d   1      32.938  15.466 -24.969  0.00  0.00    -0.265 OA
ATOM     12  C   UNL d   1      33.209  15.453 -23.597  0.00  0.00     0.068 C 
ENDBRANCH   3   9
ENDBRANCH   1   2
BRANCH   1  13
ATOM     13  N   UNL d   1      31.340  17.732 -24.372  0.00  0.00    -0.238 NA
BRANCH  13  14
ATOM     14  C   UNL d   1      30.598  17.884 -24.033  0.00  0.00     0.167 C 
BRANCH  14  15
ATOM     15  C   UNL d   1      29.934  17.464 -24.335  0.00  0.00     0.320 C 
ATOM     16  O   UNL d   1      29.557  17.754 -25.036  0.00  0.00    -0.257 OA
BRANCH  15  17
ATOM     17  O   UNL d   1      29.649  16.785 -23.964  0.00  0.00    -0.270 OA
BRANCH  17  18
ATOM     18  C   UNL d   1      28.862  16.669 -23.890  0.00  0.00     0.126 C 
ATOM     19  C   UNL d   1      28.487  16.632 -23.155  0.00  0.00     0.029 C 
ENDBRANCH  17  18
ENDBRANCH  15  17
ENDBRANCH  14  15
ENDBRANCH  13  14
ENDBRANCH   1  13
BRANCH   1  20
ATOM     20  C   UNL d   1      32.231  18.824 -24.372  0.00  0.00     0.018 A 
ATOM     21  C   UNL d   1      32.950  18.889 -24.772  0.00  0.00     0.002 A 
ATOM     22  C   UNL d   1      33.207  19.593 -25.095  0.00  0.00     0.000 A 
ATOM     23  C   UNL d   1      32.704  20.280 -25.008  0.00  0.00     0.000 A 
ATOM     24  C   UNL d   1      31.985  20.222 -24.609  0.00  0.00     0.000 A 
ATOM     25  C   UNL d   1      31.747  19.498 -24.291  0.00  0.00     0.002 A 
ENDBRANCH   1  20
TORSDOF 8
ENDMDL
MODEL 4
REMARK VINA RESULT:       2.7      1.727      3.840
REMARK  8 active torsions:
REMARK  status: ('A' for Active; 'I' for Inactive)
REMARK    1  A    between atoms: C_3  and  C_1 
REMARK    2  A    between atoms: N_5  and  C_2 
REMARK    3  A    between atoms: N_4  and  C_3 
REMARK    4  A    between atoms: C_10  and  C_3 
REMARK    5  A    between atoms: C_13  and  N_4 
REMARK       I    between atoms: C_6  and  N_5 
REMARK    6  A    between atoms: C_8  and  C_13 
REMARK    7  A    between atoms: O_16  and  C_8 
REMARK    8  A    between atoms: C_21  and  O_16 
ROOT
ATOM      1  C   UNL d   1      31.966  17.750 -24.024  0.00  0.00     0.083 C 
ENDROOT
BRANCH   1   2
ATOM      2  C   UNL d   1      32.366  18.468 -23.955  0.00  0.00     0.036 A 
ATOM      3  C   UNL d   1      32.841  18.624 -23.314  0.00  0.00     0.086 A 
ATOM      4  C   UNL d   1      33.240  19.342 -23.244  0.00  0.00     0.020 A 
ATOM      5  C   UNL d   1      33.165  19.904 -23.816  0.00  0.00     0.008 A 
ATOM      6  C   UNL d   1      32.674  19.756 -24.490  0.00  0.00     0.035 A 
ATOM      7  C   UNL d   1      32.282  19.032 -24.542  0.00  0.00     0.010 A 
ATOM      8 BR   UNL d   1      32.586  20.332 -25.093  0.00  0.00    -0.049 Br
BRANCH   3   9
ATOM      9  N   UNL d   1      32.923  18.038 -22.711  0.00  0.00    -0.208 NA
ATOM     10  C   UNL d   1      33.011  18.271 -21.921  0.00  0.00     0.279 C 
ATOM     11  O   UNL d   1      33.090  17.711 -21.346  0.00  0.00    -0.265 OA
ATOM     12  C   UNL d   1      33.021  19.060 -21.710  0.00  0.00     0.068 C 
ENDBRANCH   3   9
ENDBRANCH   1   2
BRANCH   1  13
ATOM     13  N   UNL d   1      31.156  17.705 -23.942  0.00  0.00    -0.238 NA
BRANCH  13  14
ATOM     14  C   UNL d   1      30.729  17.289 -24.520  0.00  0.00     0.167 C 
BRANCH  14  15
ATOM     15  C   UNL d   1      29.923  17.108 -24.359  0.00  0.00     0.320 C 
ATOM     16  O   UNL d   1      29.336  17.337 -24.924  0.00  0.00    -0.257 OA
BRANCH  15  17
ATOM     17  O   UNL d   1      29.700  16.715 -23.668  0.00  0.00    -0.270 OA
BRANCH  17  18
ATOM     18  C   UNL d   1      29.012  16.311 -23.641  0.00  0.00     0.126 C 
ATOM     19  C   UNL d   1      28.810  15.824 -23.004  0.00  0.00     0.029 C 
ENDBRANCH  17  18
ENDBRANCH  15  17
ENDBRANCH  14  15
ENDBRANCH  13  14
ENDBRANCH   1  13
BRANCH   1  20
ATOM     20  C   UNL d   1      32.389  17.063 -24.178  0.00  0.00     0.018 A 
ATOM     21  C   UNL d   1      32.759  16.949 -24.907  0.00  0.00     0.002 A 
ATOM     22  C   UNL d   1      33.184  16.274 -25.079  0.00  0.00     0.000 A 
ATOM     23  C   UNL d   1      33.241  15.672 -24.472  0.00  0.00     0.000 A 
ATOM     24  C   UNL d   1      32.874  15.780 -23.741  0.00  0.00     0.000 A 
ATOM     25  C   UNL d   1      32.450  16.472 -23.593  0.00  0.00     0.002 A 
ENDBRANCH   1  20
TORSDOF 8
ENDMDL
MODEL 5
REMARK VINA RESULT:       3.4      1.236      1.949
REMARK  8 active torsions:
REMARK  status: ('A' for Active; 'I' for Inactive)
REMARK    1  A    between atoms: C_3  and  C_1 
REMARK    2  A    between atoms: N_5  and  C_2 
REMARK    3  A    between atoms: N_4  and  C_3 
REMARK    4  A    between atoms: C_10  and  C_3 
REMARK    5  A    between atoms: C_13  and  N_4 
REMARK       I    between atoms: C_6  and  N_5 
REMARK    6  A    between atoms: C_8  and  C_13 
REMARK    7  A    between atoms: O_16  and  C_8 
REMARK    8  A    between atoms: C_21  and  O_16 
ROOT
ATOM      1  C   UNL d   1      31.406  16.993 -23.491  0.00  0.00     0.083 C 
ENDROOT
BRANCH   1   2
ATOM      2  C   UNL d   1      30.608  16.814 -23.600  0.00  0.00     0.036 A 
ATOM      3  C   UNL d   1      30.196  16.382 -23.049  0.00  0.00     0.086 A 
ATOM      4  C   UNL d   1      29.398  16.202 -23.158  0.00  0.00     0.020 A 
ATOM      5  C   UNL d   1      29.013  16.455 -23.819  0.00  0.00     0.008 A 
ATOM      6  C   UNL d   1      29.429  16.906 -24.402  0.00  0.00     0.035 A 
ATOM      7  C   UNL d   1      30.227  17.076 -24.276  0.00  0.00     0.010 A 
ATOM      8 BR   UNL d   1      29.040  17.175 -25.095  0.00  0.00    -0.049 Br
BRANCH   3   9
ATOM      9  N   UNL d   1      30.595  16.114 -22.354  0.00  0.00    -0.208 NA
ATOM     10  C   UNL d   1      30.173  15.709 -21.768  0.00  0.00     0.279 C 
ATOM     11  O   UNL d   1      30.555  15.454 -21.106  0.00  0.00    -0.265 OA
ATOM     12  C   UNL d   1      29.374  15.561 -21.848  0.00  0.00     0.068 C 
ENDBRANCH   3   9
ENDBRANCH   1   2
BRANCH   1  13
ATOM     13  N   UNL d   1      31.639  17.669 -23.100  0.00  0.00    -0.238 NA
BRANCH  13  14
ATOM     14  C   UNL d   1      31.658  18.380 -23.529  0.00  0.00     0.167 C 
BRANCH  14  15
ATOM     15  C   UNL d   1      32.220  18.963 -23.300  0.00  0.00     0.320 C 
ATOM     16  O   UNL d   1      32.271  19.176 -22.482  0.00  0.00    -0.257 OA
BRANCH  15  17
ATOM     17  O   UNL d   1      32.715  19.324 -23.852  0.00  0.00    -0.270 OA
BRANCH  17  18
ATOM     18  C   UNL d   1      33.144  19.967 -23.647  0.00  0.00     0.126 C 
ATOM     19  C   UNL d   1      32.821  20.727 -23.634  0.00  0.00     0.029 C 
ENDBRANCH  17  18
ENDBRANCH  15  17
ENDBRANCH  14  15
ENDBRANCH  13  14
ENDBRANCH   1  13
BRANCH   1  20
ATOM     20  C   UNL d   1      31.979  16.483 -23.782  0.00  0.00     0.018 A 
ATOM     21  C   UNL d   1      32.538  16.143 -23.278  0.00  0.00     0.002 A 
ATOM     22  C   UNL d   1      33.115  15.633 -23.548  0.00  0.00     0.000 A 
ATOM     23  C   UNL d   1      33.131  15.453 -24.385  0.00  0.00     0.000 A 
ATOM     24  C   UNL d   1      32.575  15.790 -24.894  0.00  0.00     0.000 A 
ATOM     25  C   UNL d   1      32.001  16.302 -24.595  0.00  0.00     0.002 A 
ENDBRANCH   1  20
TORSDOF 8
ENDMDL
