MODEL 1
REMARK VINA RESULT:      79.4      0.000      0.000
REMARK  5 active torsions:
REMARK  status: ('A' for Active; 'I' for Inactive)
REMARK    1  A    between atoms: C_11  and  C_4 
REMARK    2  A    between atoms: N_10  and  C_5 
REMARK    3  A    between atoms: C_12  and  C_8 
REMARK    4  A    between atoms: C_16  and  N_10 
REMARK    5  A    between atoms: C_17  and  C_16 
ROOT
ATOM      1  C   UNL d   1     -54.807-100.409 -42.122  0.00  0.00     0.167 A 
ATOM      2  N   UNL d   1     -54.813 -99.757 -42.635  0.00  0.00    -0.195 N 
ATOM      3  N   UNL d   1     -54.830-101.158 -42.429  0.00  0.00    -0.231 NA
ATOM      4  C   UNL d   1     -54.777-100.293 -41.329  0.00  0.00     0.057 A 
ATOM      5  C   UNL d   1     -54.843 -99.885 -43.430  0.00  0.00     0.167 A 
ATOM      6  N   UNL d   1     -54.761 -98.901 -41.539  0.00  0.00    -0.161 NA
ATOM      7  C   UNL d   1     -54.866-100.634 -43.743  0.00  0.00     0.054 A 
ATOM      8  C   UNL d   1     -54.860-101.283 -43.233  0.00  0.00     0.063 A 
ATOM      9  C   UNL d   1     -54.755 -99.539 -41.037  0.00  0.00     0.124 A 
ENDROOT
BRANCH   5  10
ATOM     10  N   UNL d   1     -54.850 -99.220 -43.953  0.00  0.00    -0.224 NA
BRANCH  10  11
ATOM     11  C   UNL d   1     -54.990 -99.011 -44.757  0.00  0.00     0.120 C 
BRANCH  11  12
ATOM     12  C   UNL d   1     -55.771 -98.928 -45.048  0.00  0.00     0.101 A 
ATOM     13  N   UNL d   1     -55.910 -98.863 -45.884  0.00  0.00    -0.242 NA
ATOM     14  C   UNL d   1     -56.700 -98.779 -46.172  0.00  0.00     0.099 A 
ATOM     15  C   UNL d   1     -57.351 -98.760 -45.631  0.00  0.00     0.021 A 
ATOM     16  C   UNL d   1     -57.204 -98.825 -44.793  0.00  0.00     0.003 A 
ATOM     17  C   UNL d   1     -56.421 -98.908 -44.510  0.00  0.00     0.021 A 
ENDBRANCH  11  12
ENDBRANCH  10  11
ENDBRANCH   5  10
BRANCH   8  18
ATOM     18  C   UNL d   1     -54.884-102.071 -43.547  0.00  0.00     0.036 C 
ATOM     19  C   UNL d   1     -54.907-102.850 -43.863  0.00  0.00     0.006 C 
ATOM     20  C   UNL d   1     -54.967-102.733 -43.024  0.00  0.00     0.006 C 
ATOM     21  C   UNL d   1     -54.823-102.188 -44.388  0.00  0.00     0.006 C 
ENDBRANCH   8  18
BRANCH   4  22
ATOM     22  C   UNL d   1     -54.771-100.931 -40.827  0.00  0.00     0.005 A 
ATOM     23  C   UNL d   1     -54.816-100.821 -40.019  0.00  0.00     0.001 A 
ATOM     24  C   UNL d   1     -54.809-101.450 -39.525  0.00  0.00     0.011 A 
ATOM     25  C   UNL d   1     -54.758-102.215 -39.818  0.00  0.00     0.058 A 
ATOM     26  C   UNL d   1     -54.713-102.330 -40.611  0.00  0.00     0.011 A 
ATOM     27 CL   UNL d   1     -54.751-102.877 -39.297  0.00  0.00    -0.082 Cl
ATOM     28  C   UNL d   1     -54.720-101.685 -41.118  0.00  0.00     0.001 A 
ENDBRANCH   4  22
TORSDOF 5
ENDMDL
