MODEL 1
REMARK VINA RESULT:      -3.0      0.000      0.000
REMARK  4 active torsions:
REMARK  status: ('A' for Active; 'I' for Inactive)
REMARK    1  A    between atoms: O_2  and  C_1 
REMARK       I    between atoms: N_6  and  C_1 
REMARK    2  A    between atoms: C_3  and  O_2 
REMARK    3  A    between atoms: C_14  and  N_6 
REMARK    4  A    between atoms: C_15  and  N_6 
ROOT
ATOM      1  C   UNL d   1      33.056  20.836 -22.065  0.00  0.00     0.105 A 
ATOM      2  C   UNL d   1      33.051  21.652 -22.187  0.00  0.00     0.024 A 
ATOM      3  C   UNL d   1      32.866  22.165 -21.588  0.00  0.00     0.013 A 
ATOM      4  C   UNL d   1      32.681  21.877 -20.848  0.00  0.00     0.058 A 
ATOM      5  C   UNL d   1      32.865  20.555 -21.307  0.00  0.00     0.026 A 
ATOM      6  C   UNL d   1      32.681  21.068 -20.707  0.00  0.00     0.013 A 
ATOM      7 CL   UNL d   1      32.491  22.395 -20.230  0.00  0.00    -0.082 Cl
ATOM      8  C   UNL d   1      33.241  21.932 -22.945  0.00  0.00     0.002 A 
ATOM      9  C   UNL d   1      32.866  22.973 -21.728  0.00  0.00     0.001 A 
ATOM     10  C   UNL d   1      33.054  23.277 -22.481  0.00  0.00     0.000 A 
ATOM     11  C   UNL d   1      33.239  22.764 -23.081  0.00  0.00     0.000 A 
ENDROOT
BRANCH   1  12
ATOM     12  O   UNL d   1      33.241  20.313 -22.665  0.00  0.00    -0.259 OA
BRANCH  12  13
ATOM     13  C   UNL d   1      33.205  19.495 -22.525  0.00  0.00     0.377 C 
ATOM     14  N   UNL d   1      33.204  18.959 -23.186  0.00  0.00    -0.252 N 
ATOM     15  O   UNL d   1      33.171  19.186 -21.767  0.00  0.00    -0.237 OA
BRANCH  14  16
ATOM     16  C   UNL d   1      33.168  18.148 -23.051  0.00  0.00     0.085 C 
ATOM     17  C   UNL d   1      32.474  17.731 -23.243  0.00  0.00     0.021 C 
ENDBRANCH  14  16
BRANCH  14  18
ATOM     18  C   UNL d   1      33.237  19.250 -23.943  0.00  0.00     0.085 C 
ATOM     19  C   UNL d   1      33.238  18.727 -24.590  0.00  0.00     0.021 C 
ENDBRANCH  14  18
ENDBRANCH  12  13
ENDBRANCH   1  12
TORSDOF 4
ENDMDL
MODEL 2
REMARK VINA RESULT:      -2.9      1.713      3.626
REMARK  4 active torsions:
REMARK  status: ('A' for Active; 'I' for Inactive)
REMARK    1  A    between atoms: O_2  and  C_1 
REMARK       I    between atoms: N_6  and  C_1 
REMARK    2  A    between atoms: C_3  and  O_2 
REMARK    3  A    between atoms: C_14  and  N_6 
REMARK    4  A    between atoms: C_15  and  N_6 
ROOT
ATOM      1  C   UNL d   1      33.235  20.153 -22.483  0.00  0.00     0.105 A 
ATOM      2  C   UNL d   1      33.232  19.916 -23.273  0.00  0.00     0.024 A 
ATOM      3  C   UNL d   1      33.233  19.131 -23.475  0.00  0.00     0.013 A 
ATOM      4  C   UNL d   1      33.237  18.560 -22.893  0.00  0.00     0.058 A 
ATOM      5  C   UNL d   1      33.239  19.561 -21.899  0.00  0.00     0.026 A 
ATOM      6  C   UNL d   1      33.241  18.777 -22.101  0.00  0.00     0.013 A 
ATOM      7 CL   UNL d   1      33.239  17.756 -23.092  0.00  0.00    -0.082 Cl
ATOM      8  C   UNL d   1      33.227  20.507 -23.856  0.00  0.00     0.002 A 
ATOM      9  C   UNL d   1      33.230  18.914 -24.266  0.00  0.00     0.001 A 
ATOM     10  C   UNL d   1      33.225  19.490 -24.869  0.00  0.00     0.000 A 
ATOM     11  C   UNL d   1      33.224  20.275 -24.666  0.00  0.00     0.000 A 
ENDROOT
BRANCH   1  12
ATOM     12  O   UNL d   1      33.234  20.942 -22.271  0.00  0.00    -0.259 OA
BRANCH  12  13
ATOM     13  C   UNL d   1      32.888  21.176 -21.553  0.00  0.00     0.377 C 
ATOM     14  N   UNL d   1      32.897  21.999 -21.336  0.00  0.00    -0.252 N 
ATOM     15  O   UNL d   1      32.537  20.638 -21.046  0.00  0.00    -0.237 OA
BRANCH  14  16
ATOM     16  C   UNL d   1      32.554  22.234 -20.625  0.00  0.00     0.085 C 
ATOM     17  C   UNL d   1      32.951  22.784 -20.142  0.00  0.00     0.021 C 
ENDBRANCH  14  16
BRANCH  14  18
ATOM     18  C   UNL d   1      33.241  22.544 -21.829  0.00  0.00     0.085 C 
ATOM     19  C   UNL d   1      32.958  23.326 -21.845  0.00  0.00     0.021 C 
ENDBRANCH  14  18
ENDBRANCH  12  13
ENDBRANCH   1  12
TORSDOF 4
ENDMDL
MODEL 3
REMARK VINA RESULT:      -2.5      0.858      1.836
REMARK  4 active torsions:
REMARK  status: ('A' for Active; 'I' for Inactive)
REMARK    1  A    between atoms: O_2  and  C_1 
REMARK       I    between atoms: N_6  and  C_1 
REMARK    2  A    between atoms: C_3  and  O_2 
REMARK    3  A    between atoms: C_14  and  N_6 
REMARK    4  A    between atoms: C_15  and  N_6 
ROOT
ATOM      1  C   UNL d   1      33.129  21.015 -22.803  0.00  0.00     0.105 A 
ATOM      2  C   UNL d   1      32.963  21.333 -22.060  0.00  0.00     0.024 A 
ATOM      3  C   UNL d   1      32.910  22.134 -21.949  0.00  0.00     0.013 A 
ATOM      4  C   UNL d   1      33.021  22.641 -22.577  0.00  0.00     0.058 A 
ATOM      5  C   UNL d   1      33.239  21.542 -23.436  0.00  0.00     0.026 A 
ATOM      6  C   UNL d   1      33.186  22.343 -23.325  0.00  0.00     0.013 A 
ATOM      7 CL   UNL d   1      32.968  23.461 -22.472  0.00  0.00    -0.082 Cl
ATOM      8  C   UNL d   1      32.853  20.806 -21.428  0.00  0.00     0.002 A 
ATOM      9  C   UNL d   1      32.745  22.432 -21.202  0.00  0.00     0.001 A 
ATOM     10  C   UNL d   1      32.630  21.921 -20.553  0.00  0.00     0.000 A 
ATOM     11  C   UNL d   1      32.684  21.121 -20.664  0.00  0.00     0.000 A 
ENDROOT
BRANCH   1  12
ATOM     12  O   UNL d   1      33.184  20.209 -22.923  0.00  0.00    -0.259 OA
BRANCH  12  13
ATOM     13  C   UNL d   1      33.180  19.905 -23.696  0.00  0.00     0.377 C 
ATOM     14  N   UNL d   1      33.111  19.065 -23.812  0.00  0.00    -0.252 N 
ATOM     15  O   UNL d   1      33.240  20.391 -24.352  0.00  0.00    -0.237 OA
BRANCH  14  16
ATOM     16  C   UNL d   1      33.106  18.761 -24.578  0.00  0.00     0.085 C 
ATOM     17  C   UNL d   1      32.406  18.430 -24.882  0.00  0.00     0.021 C 
ENDBRANCH  14  16
BRANCH  14  18
ATOM     18  C   UNL d   1      33.051  18.571 -23.171  0.00  0.00     0.085 C 
ATOM     19  C   UNL d   1      33.153  17.751 -23.268  0.00  0.00     0.021 C 
ENDBRANCH  14  18
ENDBRANCH  12  13
ENDBRANCH   1  12
TORSDOF 4
ENDMDL
MODEL 4
REMARK VINA RESULT:      -2.4      2.091      3.319
REMARK  4 active torsions:
REMARK  status: ('A' for Active; 'I' for Inactive)
REMARK    1  A    between atoms: O_2  and  C_1 
REMARK       I    between atoms: N_6  and  C_1 
REMARK    2  A    between atoms: C_3  and  O_2 
REMARK    3  A    between atoms: C_14  and  N_6 
REMARK    4  A    between atoms: C_15  and  N_6 
ROOT
ATOM      1  C   UNL d   1      32.897  18.609 -23.939  0.00  0.00     0.105 A 
ATOM      2  C   UNL d   1      33.013  19.146 -23.323  0.00  0.00     0.024 A 
ATOM      3  C   UNL d   1      33.126  19.934 -23.471  0.00  0.00     0.013 A 
ATOM      4  C   UNL d   1      33.126  20.210 -24.238  0.00  0.00     0.058 A 
ATOM      5  C   UNL d   1      32.900  18.901 -24.716  0.00  0.00     0.026 A 
ATOM      6  C   UNL d   1      33.013  19.690 -24.864  0.00  0.00     0.013 A 
ATOM      7 CL   UNL d   1      33.241  21.014 -24.397  0.00  0.00    -0.082 Cl
ATOM      8  C   UNL d   1      33.010  18.853 -22.546  0.00  0.00     0.002 A 
ATOM      9  C   UNL d   1      33.239  20.454 -22.846  0.00  0.00     0.001 A 
ATOM     10  C   UNL d   1      33.241  20.182 -22.058  0.00  0.00     0.000 A 
ATOM     11  C   UNL d   1      33.128  19.394 -21.910  0.00  0.00     0.000 A 
ENDROOT
BRANCH   1  12
ATOM     12  O   UNL d   1      32.783  17.812 -23.798  0.00  0.00    -0.259 OA
BRANCH  12  13
ATOM     13  C   UNL d   1      32.288  17.371 -24.299  0.00  0.00     0.377 C 
ATOM     14  N   UNL d   1      32.048  16.589 -24.063  0.00  0.00    -0.252 N 
ATOM     15  O   UNL d   1      32.023  17.666 -25.015  0.00  0.00    -0.237 OA
BRANCH  14  16
ATOM     16  C   UNL d   1      31.558  16.150 -24.557  0.00  0.00     0.085 C 
ATOM     17  C   UNL d   1      30.759  16.041 -24.350  0.00  0.00     0.021 C 
ENDBRANCH  14  16
BRANCH  14  18
ATOM     18  C   UNL d   1      32.302  16.284 -23.355  0.00  0.00     0.085 C 
ATOM     19  C   UNL d   1      32.509  15.480 -23.301  0.00  0.00     0.021 C 
ENDBRANCH  14  18
ENDBRANCH  12  13
ENDBRANCH   1  12
TORSDOF 4
ENDMDL
MODEL 5
REMARK VINA RESULT:      -2.1      4.301      5.766
REMARK  4 active torsions:
REMARK  status: ('A' for Active; 'I' for Inactive)
REMARK    1  A    between atoms: O_2  and  C_1 
REMARK       I    between atoms: N_6  and  C_1 
REMARK    2  A    between atoms: C_3  and  O_2 
REMARK    3  A    between atoms: C_14  and  N_6 
REMARK    4  A    between atoms: C_15  and  N_6 
ROOT
ATOM      1  C   UNL d   1      30.986  16.585 -24.574  0.00  0.00     0.105 A 
ATOM      2  C   UNL d   1      31.701  16.977 -24.451  0.00  0.00     0.024 A 
ATOM      3  C   UNL d   1      32.409  16.622 -24.622  0.00  0.00     0.013 A 
ATOM      4  C   UNL d   1      32.423  15.863 -24.920  0.00  0.00     0.058 A 
ATOM      5  C   UNL d   1      31.014  15.812 -24.878  0.00  0.00     0.026 A 
ATOM      6  C   UNL d   1      31.721  15.457 -25.049  0.00  0.00     0.013 A 
ATOM      7 CL   UNL d   1      33.143  15.494 -25.097  0.00  0.00    -0.082 Cl
ATOM      8  C   UNL d   1      31.673  17.749 -24.147  0.00  0.00     0.002 A 
ATOM      9  C   UNL d   1      33.111  17.028 -24.493  0.00  0.00     0.001 A 
ATOM     10  C   UNL d   1      33.107  17.804 -24.189  0.00  0.00     0.000 A 
ATOM     11  C   UNL d   1      32.399  18.159 -24.018  0.00  0.00     0.000 A 
ENDROOT
BRANCH   1  12
ATOM     12  O   UNL d   1      30.268  16.937 -24.404  0.00  0.00    -0.259 OA
BRANCH  12  13
ATOM     13  C   UNL d   1      29.668  16.494 -24.037  0.00  0.00     0.377 C 
ATOM     14  N   UNL d   1      28.909  16.855 -23.902  0.00  0.00    -0.252 N 
ATOM     15  O   UNL d   1      29.785  15.719 -23.801  0.00  0.00    -0.237 OA
BRANCH  14  16
ATOM     16  C   UNL d   1      28.313  16.420 -23.539  0.00  0.00     0.085 C 
ATOM     17  C   UNL d   1      27.835  15.917 -23.998  0.00  0.00     0.021 C 
ENDBRANCH  14  16
BRANCH  14  18
ATOM     18  C   UNL d   1      28.779  17.623 -24.131  0.00  0.00     0.085 C 
ATOM     19  C   UNL d   1      28.184  18.071 -23.761  0.00  0.00     0.021 C 
ENDBRANCH  14  18
ENDBRANCH  12  13
ENDBRANCH   1  12
TORSDOF 4
ENDMDL
MODEL 6
REMARK VINA RESULT:      -2.1      3.801      5.703
REMARK  4 active torsions:
REMARK  status: ('A' for Active; 'I' for Inactive)
REMARK    1  A    between atoms: O_2  and  C_1 
REMARK       I    between atoms: N_6  and  C_1 
REMARK    2  A    between atoms: C_3  and  O_2 
REMARK    3  A    between atoms: C_14  and  N_6 
REMARK    4  A    between atoms: C_15  and  N_6 
ROOT
ATOM      1  C   UNL d   1      30.328  16.998 -24.310  0.00  0.00     0.105 A 
ATOM      2  C   UNL d   1      29.716  16.580 -23.948  0.00  0.00     0.024 A 
ATOM      3  C   UNL d   1      28.948  16.833 -23.997  0.00  0.00     0.013 A 
ATOM      4  C   UNL d   1      28.769  17.512 -24.410  0.00  0.00     0.058 A 
ATOM      5  C   UNL d   1      30.132  17.688 -24.729  0.00  0.00     0.026 A 
ATOM      6  C   UNL d   1      29.365  17.942 -24.778  0.00  0.00     0.013 A 
ATOM      7 CL   UNL d   1      27.986  17.778 -24.465  0.00  0.00    -0.082 Cl
ATOM      8  C   UNL d   1      29.912  15.889 -23.530  0.00  0.00     0.002 A 
ATOM      9  C   UNL d   1      28.353  16.404 -23.629  0.00  0.00     0.001 A 
ATOM     10  C   UNL d   1      28.526  15.708 -23.204  0.00  0.00     0.000 A 
ATOM     11  C   UNL d   1      29.294  15.455 -23.155  0.00  0.00     0.000 A 
ENDROOT
BRANCH   1  12
ATOM     12  O   UNL d   1      31.105  16.748 -24.265  0.00  0.00    -0.259 OA
BRANCH  12  13
ATOM     13  C   UNL d   1      31.721  17.289 -24.401  0.00  0.00     0.377 C 
ATOM     14  N   UNL d   1      32.491  17.133 -24.074  0.00  0.00    -0.252 N 
ATOM     15  O   UNL d   1      31.609  17.970 -24.841  0.00  0.00    -0.237 OA
BRANCH  14  16
ATOM     16  C   UNL d   1      33.103  17.667 -24.206  0.00  0.00     0.085 C 
ATOM     17  C   UNL d   1      33.241  18.277 -23.657  0.00  0.00     0.021 C 
ENDBRANCH  14  16
BRANCH  14  18
ATOM     18  C   UNL d   1      32.616  16.462 -23.635  0.00  0.00     0.085 C 
ATOM     19  C   UNL d   1      33.239  15.947 -23.833  0.00  0.00     0.021 C 
ENDBRANCH  14  18
ENDBRANCH  12  13
ENDBRANCH   1  12
TORSDOF 4
ENDMDL
MODEL 7
REMARK VINA RESULT:      -0.3      1.423      2.002
REMARK  4 active torsions:
REMARK  status: ('A' for Active; 'I' for Inactive)
REMARK    1  A    between atoms: O_2  and  C_1 
REMARK       I    between atoms: N_6  and  C_1 
REMARK    2  A    between atoms: C_3  and  O_2 
REMARK    3  A    between atoms: C_14  and  N_6 
REMARK    4  A    between atoms: C_15  and  N_6 
ROOT
ATOM      1  C   UNL d   1      32.527  19.456 -23.095  0.00  0.00     0.105 A 
ATOM      2  C   UNL d   1      32.746  20.187 -23.409  0.00  0.00     0.024 A 
ATOM      3  C   UNL d   1      32.980  20.796 -22.929  0.00  0.00     0.013 A 
ATOM      4  C   UNL d   1      33.002  20.694 -22.120  0.00  0.00     0.058 A 
ATOM      5  C   UNL d   1      32.553  19.364 -22.269  0.00  0.00     0.026 A 
ATOM      6  C   UNL d   1      32.787  19.973 -21.790  0.00  0.00     0.013 A 
ATOM      7 CL   UNL d   1      33.240  21.312 -21.624  0.00  0.00    -0.082 Cl
ATOM      8  C   UNL d   1      32.720  20.279 -24.234  0.00  0.00     0.002 A 
ATOM      9  C   UNL d   1      33.195  21.516 -23.259  0.00  0.00     0.001 A 
ATOM     10  C   UNL d   1      33.176  21.631 -24.085  0.00  0.00     0.000 A 
ATOM     11  C   UNL d   1      32.942  21.022 -24.564  0.00  0.00     0.000 A 
ENDROOT
BRANCH   1  12
ATOM     12  O   UNL d   1      32.290  18.837 -23.572  0.00  0.00    -0.259 OA
BRANCH  12  13
ATOM     13  C   UNL d   1      32.591  18.074 -23.439  0.00  0.00     0.377 C 
ATOM     14  N   UNL d   1      32.214  17.408 -23.811  0.00  0.00    -0.252 N 
ATOM     15  O   UNL d   1      33.241  17.943 -22.959  0.00  0.00    -0.237 OA
BRANCH  14  16
ATOM     16  C   UNL d   1      32.509  16.650 -23.680  0.00  0.00     0.085 C 
ATOM     17  C   UNL d   1      33.202  16.408 -24.073  0.00  0.00     0.021 C 
ENDBRANCH  14  16
BRANCH  14  18
ATOM     18  C   UNL d   1      31.568  17.522 -24.289  0.00  0.00     0.085 C 
ATOM     19  C   UNL d   1      31.038  16.896 -24.428  0.00  0.00     0.021 C 
ENDBRANCH  14  18
ENDBRANCH  12  13
ENDBRANCH   1  12
TORSDOF 4
ENDMDL
MODEL 8
REMARK VINA RESULT:      -0.2      2.941      3.920
REMARK  4 active torsions:
REMARK  status: ('A' for Active; 'I' for Inactive)
REMARK    1  A    between atoms: O_2  and  C_1 
REMARK       I    between atoms: N_6  and  C_1 
REMARK    2  A    between atoms: C_3  and  O_2 
REMARK    3  A    between atoms: C_14  and  N_6 
REMARK    4  A    between atoms: C_15  and  N_6 
ROOT
ATOM      1  C   UNL d   1      31.822  17.871 -23.815  0.00  0.00     0.105 A 
ATOM      2  C   UNL d   1      32.300  18.501 -24.048  0.00  0.00     0.024 A 
ATOM      3  C   UNL d   1      32.766  18.894 -23.514  0.00  0.00     0.013 A 
ATOM      4  C   UNL d   1      32.767  18.668 -22.731  0.00  0.00     0.058 A 
ATOM      5  C   UNL d   1      31.832  17.650 -23.014  0.00  0.00     0.026 A 
ATOM      6  C   UNL d   1      32.298  18.042 -22.480  0.00  0.00     0.013 A 
ATOM      7 CL   UNL d   1      33.241  19.064 -22.179  0.00  0.00    -0.082 Cl
ATOM      8  C   UNL d   1      32.290  18.721 -24.849  0.00  0.00     0.002 A 
ATOM      9  C   UNL d   1      33.235  19.519 -23.764  0.00  0.00     0.001 A 
ATOM     10  C   UNL d   1      33.241  19.757 -24.563  0.00  0.00     0.000 A 
ATOM     11  C   UNL d   1      32.775  19.365 -25.097  0.00  0.00     0.000 A 
ENDROOT
BRANCH   1  12
ATOM     12  O   UNL d   1      31.349  17.470 -24.348  0.00  0.00    -0.259 OA
BRANCH  12  13
ATOM     13  C   UNL d   1      30.529  17.430 -24.224  0.00  0.00     0.377 C 
ATOM     14  N   UNL d   1      30.111  16.717 -24.428  0.00  0.00    -0.252 N 
ATOM     15  O   UNL d   1      30.108  18.058 -23.910  0.00  0.00    -0.237 OA
BRANCH  14  16
ATOM     16  C   UNL d   1      29.298  16.675 -24.306  0.00  0.00     0.085 C 
ATOM     17  C   UNL d   1      29.001  16.209 -23.683  0.00  0.00     0.021 C 
ENDBRANCH  14  16
BRANCH  14  18
ATOM     18  C   UNL d   1      30.516  16.087 -24.740  0.00  0.00     0.085 C 
ATOM     19  C   UNL d   1      30.098  15.456 -25.087  0.00  0.00     0.021 C 
ENDBRANCH  14  18
ENDBRANCH  12  13
ENDBRANCH   1  12
TORSDOF 4
ENDMDL
