MODEL 1
REMARK VINA RESULT:      47.4      0.000      0.000
REMARK  2 active torsions:
REMARK  status: ('A' for Active; 'I' for Inactive)
REMARK    1  A    between atoms: N_10  and  C_6 
REMARK    2  A    between atoms: C_12  and  N_10 
ROOT
ATOM      1  N   UNL d   1     -50.995  25.445  33.306  0.00  0.00    -0.169 N 
ATOM      2  C   UNL d   1     -51.641  25.959  33.306  0.00  0.00     0.201 A 
ATOM      3  C   UNL d   1     -51.118  24.639  33.306  0.00  0.00     0.283 A 
ATOM      4  S   UNL d   1     -51.356  26.732  33.306  0.00  0.00    -0.008 SA
ATOM      5  N   UNL d   1     -50.307  25.908  33.306  0.00  0.00    -0.134 NA
ATOM      6  C   UNL d   1     -50.529  26.694  33.306  0.00  0.00     0.216 A 
ATOM      7  N   UNL d   1     -52.403  25.676  33.306  0.00  0.00    -0.221 NA
ATOM      8  C   UNL d   1     -51.888  24.338  33.307  0.00  0.00     0.076 A 
ATOM      9  C   UNL d   1     -52.531  24.856  33.306  0.00  0.00     0.088 A 
ATOM     10  O   UNL d   1     -50.475  24.120  33.306  0.00  0.00    -0.265 OA
ATOM     11  C   UNL d   1     -52.020  23.521  33.307  0.00  0.00     0.006 A 
ATOM     12  C   UNL d   1     -53.305  24.558  33.307  0.00  0.00     0.019 A 
ATOM     13  C   UNL d   1     -52.801  23.227  33.307  0.00  0.00     0.000 A 
ATOM     14  C   UNL d   1     -53.434  23.737  33.307  0.00  0.00     0.002 A 
ENDROOT
BRANCH   6  15
ATOM     15  N   UNL d   1     -50.020  27.344  33.306  0.00  0.00    -0.220 NA
BRANCH  15  16
ATOM     16  C   UNL d   1     -49.632  27.583  33.987  0.00  0.00     0.084 A 
ATOM     17  C   UNL d   1     -49.250  28.304  34.017  0.00  0.00     0.019 A 
ATOM     18  C   UNL d   1     -48.865  28.529  34.706  0.00  0.00     0.002 A 
ATOM     19  C   UNL d   1     -48.481  29.252  34.743  0.00  0.00     0.000 C 
ATOM     20  C   UNL d   1     -48.869  28.024  35.359  0.00  0.00     0.000 A 
ATOM     21  C   UNL d   1     -49.249  27.306  35.329  0.00  0.00     0.002 A 
ATOM     22  C   UNL d   1     -49.636  27.079  34.637  0.00  0.00     0.019 A 
ENDBRANCH  15  16
ENDBRANCH   6  15
TORSDOF 2
ENDMDL
