MODEL 1
REMARK VINA RESULT:      12.5      0.000      0.000
REMARK  3 active torsions:
REMARK  status: ('A' for Active; 'I' for Inactive)
REMARK    1  A    between atoms: C_13  and  C_3 
REMARK    2  A    between atoms: C_4  and  S_11 
REMARK    3  A    between atoms: S_11  and  C_13 
ROOT
ATOM      1  C   UNL d   1      46.277 -17.734  44.303  0.00  0.00     0.141 A 
ATOM      2  N   UNL d   1      46.267 -17.865  43.510  0.00  0.00    -0.232 NA
ATOM      3  S   UNL d   1      46.291 -18.454  44.695  0.00  0.00    -0.060 SA
ATOM      4  C   UNL d   1      46.274 -18.678  43.389  0.00  0.00     0.088 A 
ATOM      5  C   UNL d   1      46.288 -19.042  44.122  0.00  0.00     0.049 A 
ATOM      6  C   UNL d   1      46.268 -19.125  42.696  0.00  0.00     0.020 A 
ATOM      7  C   UNL d   1      46.298 -19.863  44.181  0.00  0.00     0.008 A 
ATOM      8  C   UNL d   1      46.292 -20.316  43.489  0.00  0.00     0.001 A 
ATOM      9  C   UNL d   1      46.278 -19.951  42.756  0.00  0.00     0.002 A 
ENDROOT
BRANCH   1  10
ATOM     10  S   UNL d   1      46.275 -16.980  44.678  0.00  0.00    -0.058 SA
BRANCH  10  11
ATOM     11  C   UNL d   1      45.656 -16.466  44.535  0.00  0.00     0.077 C 
BRANCH  11  12
ATOM     12  C   UNL d   1      45.792 -15.640  44.581  0.00  0.00     0.178 A 
ATOM     13  N   UNL d   1      45.177 -15.142  44.781  0.00  0.00    -0.262 N 
ATOM     14  C   UNL d   1      45.483 -14.361  44.780  0.00  0.00     0.227 A 
ATOM     15  C   UNL d   1      44.394 -15.358  44.955  0.00  0.00     0.103 C 
ATOM     16  N   UNL d   1      46.261 -14.408  44.582  0.00  0.00    -0.117 NA
ATOM     17  S   UNL d   1      45.052 -13.653  44.955  0.00  0.00    -0.036 SA
ATOM     18  N   UNL d   1      46.478 -15.176  44.455  0.00  0.00    -0.127 NA
ENDBRANCH  11  12
ENDBRANCH  10  11
ENDBRANCH   1  10
TORSDOF 3
ENDMDL
