MODEL 1
REMARK VINA RESULT:      -8.9      0.000      0.000
REMARK  3 active torsions:
REMARK  status: ('A' for Active; 'I' for Inactive)
REMARK    1  A    between atoms: C_11  and  C_6 
REMARK       I    between atoms: N_15  and  C_11 
REMARK    2  A    between atoms: C_23  and  N_15 
REMARK    3  A    between atoms: C_22  and  C_23 
ROOT
ATOM      1  C   UNL d   1      52.185  33.330  53.652  0.00  0.00     0.155 A 
ATOM      2  C   UNL d   1      52.170  34.157  53.627  0.00  0.00     0.091 A 
ATOM      3  N   UNL d   1      52.811  32.945  54.023  0.00  0.00    -0.210 NA
ATOM      4  N   UNL d   1      53.402  34.201  54.343  0.00  0.00    -0.258 N 
ATOM      5  N   UNL d   1      51.577  32.900  53.306  0.00  0.00    -0.272 N 
ATOM      6  C   UNL d   1      50.929  34.112  52.907  0.00  0.00     0.094 A 
ATOM      7  C   UNL d   1      53.410  33.374  54.363  0.00  0.00     0.152 A 
ATOM      8  C   UNL d   1      52.780  34.595  53.974  0.00  0.00     0.269 A 
ATOM      9  C   UNL d   1      50.944  33.294  52.931  0.00  0.00     0.175 A 
ATOM     10  C   UNL d   1      51.546  34.550  53.257  0.00  0.00     0.016 A 
ATOM     11  C   UNL d   1      54.040  32.989  54.736  0.00  0.00     0.035 A 
ATOM     12  C   UNL d   1      54.009  34.639  54.688  0.00  0.00     0.084 A 
ATOM     13  N   UNL d   1      50.331  32.856  52.583  0.00  0.00    -0.128 N 
ATOM     14  O   UNL d   1      52.765  35.415  53.950  0.00  0.00    -0.266 OA
ATOM     15  C   UNL d   1      54.628  34.245  55.055  0.00  0.00     0.019 A 
ATOM     16  C   UNL d   1      54.644  33.419  55.079  0.00  0.00     0.005 A 
ATOM     17  C   UNL d   1      51.592  32.077  53.330  0.00  0.00     0.102 C 
ATOM     18  C   UNL d   1      54.056  32.166  54.761  0.00  0.00     0.003 C 
ENDROOT
BRANCH   6  19
ATOM     19  C   UNL d   1      50.300  34.506  52.534  0.00  0.00     0.282 C 
ATOM     20  N   UNL d   1      49.736  34.896  52.991  0.00  0.00    -0.206 NA
ATOM     21  O   UNL d   1      50.242  34.505  51.715  0.00  0.00    -0.265 OA
BRANCH  20  22
ATOM     22  C   UNL d   1      49.114  35.285  52.618  0.00  0.00     0.104 C 
BRANCH  22  23
ATOM     23  C   UNL d   1      48.558  35.694  53.074  0.00  0.00     0.038 A 
ATOM     24  C   UNL d   1      48.801  36.082  53.760  0.00  0.00     0.101 A 
ATOM     25  N   UNL d   1      48.250  36.490  54.217  0.00  0.00    -0.242 NA
ATOM     26  C   UNL d   1      47.459  36.510  53.987  0.00  0.00     0.099 A 
ATOM     27  C   UNL d   1      47.217  36.121  53.298  0.00  0.00     0.021 A 
ATOM     28  C   UNL d   1      47.772  35.714  52.845  0.00  0.00     0.005 A 
ENDBRANCH  22  23
ENDBRANCH  20  22
ENDBRANCH   6  19
TORSDOF 3
ENDMDL
MODEL 2
REMARK VINA RESULT:      -7.3      1.650      2.732
REMARK  3 active torsions:
REMARK  status: ('A' for Active; 'I' for Inactive)
REMARK    1  A    between atoms: C_11  and  C_6 
REMARK       I    between atoms: N_15  and  C_11 
REMARK    2  A    between atoms: C_23  and  N_15 
REMARK    3  A    between atoms: C_22  and  C_23 
ROOT
ATOM      1  C   UNL d   1      52.718  32.696  53.224  0.00  0.00     0.155 A 
ATOM      2  C   UNL d   1      51.926  32.459  53.227  0.00  0.00     0.091 A 
ATOM      3  N   UNL d   1      53.314  32.128  53.251  0.00  0.00    -0.210 NA
ATOM      4  N   UNL d   1      52.334  31.094  53.283  0.00  0.00    -0.258 N 
ATOM      5  N   UNL d   1      52.904  33.495  53.195  0.00  0.00    -0.272 N 
ATOM      6  C   UNL d   1      51.514  33.833  53.172  0.00  0.00     0.094 A 
ATOM      7  C   UNL d   1      53.124  31.339  53.279  0.00  0.00     0.152 A 
ATOM      8  C   UNL d   1      51.732  31.655  53.257  0.00  0.00     0.269 A 
ATOM      9  C   UNL d   1      52.299  34.068  53.169  0.00  0.00     0.175 A 
ATOM     10  C   UNL d   1      51.323  33.022  53.201  0.00  0.00     0.016 A 
ATOM     11  C   UNL d   1      53.721  30.767  53.306  0.00  0.00     0.035 A 
ATOM     12  C   UNL d   1      52.139  30.294  53.312  0.00  0.00     0.084 A 
ATOM     13  N   UNL d   1      52.492  34.874  53.139  0.00  0.00    -0.128 N 
ATOM     14  O   UNL d   1      50.945  31.420  53.260  0.00  0.00    -0.266 OA
ATOM     15  C   UNL d   1      52.741  29.736  53.338  0.00  0.00     0.019 A 
ATOM     16  C   UNL d   1      53.533  29.973  53.335  0.00  0.00     0.005 A 
ATOM     17  C   UNL d   1      53.694  33.731  53.192  0.00  0.00     0.102 C 
ATOM     18  C   UNL d   1      54.511  31.003  53.303  0.00  0.00     0.003 C 
ENDROOT
BRANCH   6  19
ATOM     19  C   UNL d   1      50.910  34.401  53.145  0.00  0.00     0.282 C 
ATOM     20  N   UNL d   1      50.302  34.324  52.593  0.00  0.00    -0.206 NA
ATOM     21  O   UNL d   1      50.918  35.036  53.666  0.00  0.00    -0.265 OA
BRANCH  20  22
ATOM     22  C   UNL d   1      49.705  34.890  52.570  0.00  0.00     0.104 C 
BRANCH  22  23
ATOM     23  C   UNL d   1      49.134  34.854  51.972  0.00  0.00     0.038 A 
ATOM     24  C   UNL d   1      49.306  34.458  51.270  0.00  0.00     0.101 A 
ATOM     25  N   UNL d   1      48.739  34.420  50.672  0.00  0.00    -0.242 NA
ATOM     26  C   UNL d   1      48.005  34.778  50.778  0.00  0.00     0.099 A 
ATOM     27  C   UNL d   1      47.834  35.175  51.483  0.00  0.00     0.021 A 
ATOM     28  C   UNL d   1      48.404  35.210  52.078  0.00  0.00     0.005 A 
ENDBRANCH  22  23
ENDBRANCH  20  22
ENDBRANCH   6  19
TORSDOF 3
ENDMDL
MODEL 3
REMARK VINA RESULT:      -6.4      1.553      5.398
REMARK  3 active torsions:
REMARK  status: ('A' for Active; 'I' for Inactive)
REMARK    1  A    between atoms: C_11  and  C_6 
REMARK       I    between atoms: N_15  and  C_11 
REMARK    2  A    between atoms: C_23  and  N_15 
REMARK    3  A    between atoms: C_22  and  C_23 
ROOT
ATOM      1  C   UNL d   1      49.859  34.814  52.704  0.00  0.00     0.155 A 
ATOM      2  C   UNL d   1      50.121  34.430  52.020  0.00  0.00     0.091 A 
ATOM      3  N   UNL d   1      49.112  35.160  52.717  0.00  0.00    -0.210 NA
ATOM      4  N   UNL d   1      48.889  34.742  51.374  0.00  0.00    -0.258 N 
ATOM      5  N   UNL d   1      50.346  34.847  53.365  0.00  0.00    -0.272 N 
ATOM      6  C   UNL d   1      51.361  34.115  52.671  0.00  0.00     0.094 A 
ATOM      7  C   UNL d   1      48.635  35.124  52.062  0.00  0.00     0.152 A 
ATOM      8  C   UNL d   1      49.634  34.393  51.352  0.00  0.00     0.269 A 
ATOM      9  C   UNL d   1      51.102  34.496  53.348  0.00  0.00     0.175 A 
ATOM     10  C   UNL d   1      50.868  34.080  51.999  0.00  0.00     0.016 A 
ATOM     11  C   UNL d   1      47.884  35.472  52.073  0.00  0.00     0.035 A 
ATOM     12  C   UNL d   1      48.406  34.704  50.707  0.00  0.00     0.084 A 
ATOM     13  N   UNL d   1      51.591  34.532  54.018  0.00  0.00    -0.128 N 
ATOM     14  O   UNL d   1      49.894  34.011  50.673  0.00  0.00    -0.266 OA
ATOM     15  C   UNL d   1      47.663  35.053  50.731  0.00  0.00     0.019 A 
ATOM     16  C   UNL d   1      47.402  35.437  51.415  0.00  0.00     0.005 A 
ATOM     17  C   UNL d   1      50.086  35.230  54.046  0.00  0.00     0.102 C 
ATOM     18  C   UNL d   1      47.623  35.854  52.754  0.00  0.00     0.003 C 
ENDROOT
BRANCH   6  19
ATOM     19  C   UNL d   1      52.113  33.765  52.652  0.00  0.00     0.282 C 
ATOM     20  N   UNL d   1      52.195  32.965  52.838  0.00  0.00    -0.206 NA
ATOM     21  O   UNL d   1      52.771  34.212  52.450  0.00  0.00    -0.265 OA
BRANCH  20  22
ATOM     22  C   UNL d   1      52.942  32.621  52.818  0.00  0.00     0.104 C 
BRANCH  22  23
ATOM     23  C   UNL d   1      53.037  31.841  53.075  0.00  0.00     0.038 A 
ATOM     24  C   UNL d   1      53.539  31.679  53.709  0.00  0.00     0.101 A 
ATOM     25  N   UNL d   1      53.637  30.902  53.968  0.00  0.00    -0.242 NA
ATOM     26  C   UNL d   1      53.232  30.291  53.592  0.00  0.00     0.099 A 
ATOM     27  C   UNL d   1      52.729  30.454  52.956  0.00  0.00     0.021 A 
ATOM     28  C   UNL d   1      52.635  31.233  52.701  0.00  0.00     0.005 A 
ENDBRANCH  22  23
ENDBRANCH  20  22
ENDBRANCH   6  19
TORSDOF 3
ENDMDL
