MODEL 1
REMARK VINA RESULT:      -7.9      0.000      0.000
REMARK  4 active torsions:
REMARK  status: ('A' for Active; 'I' for Inactive)
REMARK    1  A    between atoms: N_2  and  S_1 
REMARK    2  A    between atoms: C_3  and  S_1 
REMARK    3  A    between atoms: N_6  and  N_2 
REMARK    4  A    between atoms: C_9  and  N_6 
ROOT
ATOM      1  S   UNL d   1      52.344  34.076  53.302  0.00  0.00     0.302 S 
ATOM      2  O   UNL d   1      52.668  34.827  53.117  0.00  0.00    -0.197 OA
ATOM      3  O   UNL d   1      52.028  33.340  53.486  0.00  0.00    -0.197 OA
ENDROOT
BRANCH   1   4
ATOM      4  N   UNL d   1      51.697  34.231  52.796  0.00  0.00    -0.054 NA
BRANCH   4   5
ATOM      5  N   UNL d   1      50.946  34.117  53.065  0.00  0.00    -0.137 NA
BRANCH   5   6
ATOM      6  C   UNL d   1      50.287  34.335  52.593  0.00  0.00     0.104 A 
ATOM      7  C   UNL d   1      50.250  34.105  51.811  0.00  0.00     0.021 A 
ATOM      8  C   UNL d   1      49.595  34.328  51.361  0.00  0.00     0.002 A 
ATOM      9  C   UNL d   1      48.999  34.771  51.702  0.00  0.00     0.000 A 
ATOM     10  C   UNL d   1      49.043  34.996  52.480  0.00  0.00     0.002 A 
ATOM     11  C   UNL d   1      48.334  34.993  51.229  0.00  0.00     0.000 C 
ATOM     12  C   UNL d   1      49.689  34.781  52.939  0.00  0.00     0.021 A 
ENDBRANCH   5   6
ENDBRANCH   4   5
ENDBRANCH   1   4
BRANCH   1  13
ATOM     13  C   UNL d   1      52.983  33.926  53.802  0.00  0.00     0.107 A 
ATOM     14  C   UNL d   1      53.123  34.405  54.452  0.00  0.00     0.013 A 
ATOM     15  C   UNL d   1      53.767  34.240  54.940  0.00  0.00     0.001 A 
ATOM     16  C   UNL d   1      54.271  33.596  54.779  0.00  0.00     0.000 A 
ATOM     17  C   UNL d   1      54.131  33.110  54.120  0.00  0.00     0.001 A 
ATOM     18  C   UNL d   1      54.925  33.435  55.280  0.00  0.00     0.000 C 
ATOM     19  C   UNL d   1      53.482  33.291  53.644  0.00  0.00     0.013 A 
ENDBRANCH   1  13
TORSDOF 4
ENDMDL
MODEL 2
REMARK VINA RESULT:      -7.7      0.610      4.666
REMARK  4 active torsions:
REMARK  status: ('A' for Active; 'I' for Inactive)
REMARK    1  A    between atoms: N_2  and  S_1 
REMARK    2  A    between atoms: C_3  and  S_1 
REMARK    3  A    between atoms: N_6  and  N_2 
REMARK    4  A    between atoms: C_9  and  N_6 
ROOT
ATOM      1  S   UNL d   1      51.165  33.982  52.853  0.00  0.00     0.302 S 
ATOM      2  O   UNL d   1      50.711  33.479  53.347  0.00  0.00    -0.197 OA
ATOM      3  O   UNL d   1      51.608  34.475  52.369  0.00  0.00    -0.197 OA
ENDROOT
BRANCH   1   4
ATOM      4  N   UNL d   1      51.864  33.727  53.236  0.00  0.00    -0.054 NA
BRANCH   4   5
ATOM      5  N   UNL d   1      52.453  34.257  53.382  0.00  0.00    -0.137 NA
BRANCH   5   6
ATOM      6  C   UNL d   1      53.103  34.047  53.869  0.00  0.00     0.104 A 
ATOM      7  C   UNL d   1      53.572  33.408  53.672  0.00  0.00     0.021 A 
ATOM      8  C   UNL d   1      54.207  33.216  54.162  0.00  0.00     0.002 A 
ATOM      9  C   UNL d   1      54.357  33.662  54.829  0.00  0.00     0.000 A 
ATOM     10  C   UNL d   1      53.887  34.296  55.018  0.00  0.00     0.002 A 
ATOM     11  C   UNL d   1      55.012  33.453  55.321  0.00  0.00     0.000 C 
ATOM     12  C   UNL d   1      53.251  34.498  54.540  0.00  0.00     0.021 A 
ENDBRANCH   5   6
ENDBRANCH   4   5
ENDBRANCH   1   4
BRANCH   1  13
ATOM     13  C   UNL d   1      50.475  34.232  52.477  0.00  0.00     0.107 A 
ATOM     14  C   UNL d   1      50.351  34.063  51.684  0.00  0.00     0.013 A 
ATOM     15  C   UNL d   1      49.654  34.321  51.324  0.00  0.00     0.001 A 
ATOM     16  C   UNL d   1      49.083  34.747  51.756  0.00  0.00     0.000 A 
ATOM     17  C   UNL d   1      49.208  34.919  52.559  0.00  0.00     0.001 A 
ATOM     18  C   UNL d   1      48.377  35.006  51.383  0.00  0.00     0.000 C 
ATOM     19  C   UNL d   1      49.910  34.653  52.901  0.00  0.00     0.013 A 
ENDBRANCH   1  13
TORSDOF 4
ENDMDL
MODEL 3
REMARK VINA RESULT:      -7.2      2.453      4.742
REMARK  4 active torsions:
REMARK  status: ('A' for Active; 'I' for Inactive)
REMARK    1  A    between atoms: N_2  and  S_1 
REMARK    2  A    between atoms: C_3  and  S_1 
REMARK    3  A    between atoms: N_6  and  N_2 
REMARK    4  A    between atoms: C_9  and  N_6 
ROOT
ATOM      1  S   UNL d   1      52.239  32.708  53.046  0.00  0.00     0.302 S 
ATOM      2  O   UNL d   1      52.266  32.934  53.854  0.00  0.00    -0.197 OA
ATOM      3  O   UNL d   1      52.211  32.490  52.255  0.00  0.00    -0.197 OA
ENDROOT
BRANCH   1   4
ATOM      4  N   UNL d   1      52.825  32.129  53.188  0.00  0.00    -0.054 NA
BRANCH   4   5
ATOM      5  N   UNL d   1      52.761  31.406  52.839  0.00  0.00    -0.137 NA
BRANCH   5   6
ATOM      6  C   UNL d   1      52.991  30.712  53.252  0.00  0.00     0.104 A 
ATOM      7  C   UNL d   1      53.696  30.696  53.663  0.00  0.00     0.021 A 
ATOM      8  C   UNL d   1      53.907  30.006  54.064  0.00  0.00     0.002 A 
ATOM      9  C   UNL d   1      53.412  29.356  54.043  0.00  0.00     0.000 A 
ATOM     10  C   UNL d   1      52.713  29.380  53.633  0.00  0.00     0.002 A 
ATOM     11  C   UNL d   1      53.641  28.656  54.459  0.00  0.00     0.000 C 
ATOM     12  C   UNL d   1      52.491  30.060  53.230  0.00  0.00     0.021 A 
ENDBRANCH   5   6
ENDBRANCH   4   5
ENDBRANCH   1   4
BRANCH   1  13
ATOM     13  C   UNL d   1      51.661  33.281  52.909  0.00  0.00     0.107 A 
ATOM     14  C   UNL d   1      51.791  33.880  52.364  0.00  0.00     0.013 A 
ATOM     15  C   UNL d   1      51.202  34.443  52.240  0.00  0.00     0.001 A 
ATOM     16  C   UNL d   1      50.482  34.408  52.659  0.00  0.00     0.000 A 
ATOM     17  C   UNL d   1      50.349  33.802  53.211  0.00  0.00     0.001 A 
ATOM     18  C   UNL d   1      49.888  34.985  52.527  0.00  0.00     0.000 C 
ATOM     19  C   UNL d   1      50.950  33.248  53.321  0.00  0.00     0.013 A 
ENDBRANCH   1  13
TORSDOF 4
ENDMDL
MODEL 4
REMARK VINA RESULT:      -7.1      2.433      2.931
REMARK  4 active torsions:
REMARK  status: ('A' for Active; 'I' for Inactive)
REMARK    1  A    between atoms: N_2  and  S_1 
REMARK    2  A    between atoms: C_3  and  S_1 
REMARK    3  A    between atoms: N_6  and  N_2 
REMARK    4  A    between atoms: C_9  and  N_6 
ROOT
ATOM      1  S   UNL d   1      52.781  31.583  53.058  0.00  0.00     0.302 S 
ATOM      2  O   UNL d   1      52.507  31.182  52.373  0.00  0.00    -0.197 OA
ATOM      3  O   UNL d   1      53.050  31.973  53.729  0.00  0.00    -0.197 OA
ENDROOT
BRANCH   1   4
ATOM      4  N   UNL d   1      52.544  32.313  52.725  0.00  0.00    -0.054 NA
BRANCH   4   5
ATOM      5  N   UNL d   1      52.254  32.892  53.204  0.00  0.00    -0.137 NA
BRANCH   5   6
ATOM      6  C   UNL d   1      51.637  33.394  52.938  0.00  0.00     0.104 A 
ATOM      7  C   UNL d   1      51.740  33.849  52.268  0.00  0.00     0.021 A 
ATOM      8  C   UNL d   1      51.123  34.338  52.021  0.00  0.00     0.002 A 
ATOM      9  C   UNL d   1      50.425  34.359  52.445  0.00  0.00     0.000 A 
ATOM     10  C   UNL d   1      50.330  33.904  53.110  0.00  0.00     0.002 A 
ATOM     11  C   UNL d   1      49.801  34.865  52.179  0.00  0.00     0.000 C 
ATOM     12  C   UNL d   1      50.936  33.413  53.367  0.00  0.00     0.021 A 
ENDBRANCH   5   6
ENDBRANCH   4   5
ENDBRANCH   1   4
BRANCH   1  13
ATOM     13  C   UNL d   1      53.013  30.861  53.384  0.00  0.00     0.107 A 
ATOM     14  C   UNL d   1      53.720  30.801  53.795  0.00  0.00     0.013 A 
ATOM     15  C   UNL d   1      53.936  30.072  54.115  0.00  0.00     0.001 A 
ATOM     16  C   UNL d   1      53.447  29.403  54.023  0.00  0.00     0.000 A 
ATOM     17  C   UNL d   1      52.731  29.463  53.606  0.00  0.00     0.001 A 
ATOM     18  C   UNL d   1      53.674  28.665  54.350  0.00  0.00     0.000 C 
ATOM     19  C   UNL d   1      52.532  30.201  53.294  0.00  0.00     0.013 A 
ENDBRANCH   1  13
TORSDOF 4
ENDMDL
MODEL 5
REMARK VINA RESULT:      -7.0      2.504      4.078
REMARK  4 active torsions:
REMARK  status: ('A' for Active; 'I' for Inactive)
REMARK    1  A    between atoms: N_2  and  S_1 
REMARK    2  A    between atoms: C_3  and  S_1 
REMARK    3  A    between atoms: N_6  and  N_2 
REMARK    4  A    between atoms: C_9  and  N_6 
ROOT
ATOM      1  S   UNL d   1      52.904  33.226  53.568  0.00  0.00     0.302 S 
ATOM      2  O   UNL d   1      52.087  33.215  53.760  0.00  0.00    -0.197 OA
ATOM      3  O   UNL d   1      53.704  33.238  53.381  0.00  0.00    -0.197 OA
ENDROOT
BRANCH   1   4
ATOM      4  N   UNL d   1      52.846  32.444  53.277  0.00  0.00    -0.054 NA
BRANCH   4   5
ATOM      5  N   UNL d   1      53.435  31.917  53.433  0.00  0.00    -0.137 NA
BRANCH   5   6
ATOM      6  C   UNL d   1      53.279  31.093  53.437  0.00  0.00     0.104 A 
ATOM      7  C   UNL d   1      52.853  30.754  52.830  0.00  0.00     0.021 A 
ATOM      8  C   UNL d   1      52.709  29.941  52.850  0.00  0.00     0.002 A 
ATOM      9  C   UNL d   1      52.992  29.493  53.471  0.00  0.00     0.000 A 
ATOM     10  C   UNL d   1      53.416  29.837  54.071  0.00  0.00     0.002 A 
ATOM     11  C   UNL d   1      52.837  28.662  53.478  0.00  0.00     0.000 C 
ATOM     12  C   UNL d   1      53.566  30.644  54.063  0.00  0.00     0.021 A 
ENDBRANCH   5   6
ENDBRANCH   4   5
ENDBRANCH   1   4
BRANCH   1  13
ATOM     13  C   UNL d   1      52.959  33.997  53.855  0.00  0.00     0.107 A 
ATOM     14  C   UNL d   1      52.737  34.631  53.385  0.00  0.00     0.013 A 
ATOM     15  C   UNL d   1      52.798  35.396  53.689  0.00  0.00     0.001 A 
ATOM     16  C   UNL d   1      53.082  35.527  54.461  0.00  0.00     0.000 A 
ATOM     17  C   UNL d   1      53.308  34.885  54.938  0.00  0.00     0.001 A 
ATOM     18  C   UNL d   1      53.142  36.307  54.763  0.00  0.00     0.000 C 
ATOM     19  C   UNL d   1      53.239  34.128  54.617  0.00  0.00     0.013 A 
ENDBRANCH   1  13
TORSDOF 4
ENDMDL
