MODEL 1
REMARK VINA RESULT:      12.0      0.000      0.000
REMARK  6 active torsions:
REMARK  status: ('A' for Active; 'I' for Inactive)
REMARK    1  A    between atoms: N_11  and  C_3 
REMARK    2  A    between atoms: C_10  and  C_5 
REMARK    3  A    between atoms: C_17  and  N_11 
REMARK    4  A    between atoms: N_13  and  C_18 
REMARK    5  A    between atoms: C_16  and  C_17 
REMARK    6  A    between atoms: C_18  and  C_16 
ROOT
ATOM      1  N   UNL d   1     -41.700-121.833 -52.036  0.00  0.00    -0.184 N 
ATOM      2  C   UNL d   1     -41.698-121.775 -51.208  0.00  0.00     0.168 A 
ATOM      3  C   UNL d   1     -41.556-121.160 -52.483  0.00  0.00     0.217 A 
ATOM      4  N   UNL d   1     -41.983-123.210 -51.933  0.00  0.00    -0.162 NA
ATOM      5  C   UNL d   1     -41.838-122.426 -50.748  0.00  0.00     0.055 A 
ATOM      6  N   UNL d   1     -41.553-121.044 -50.846  0.00  0.00    -0.227 NA
ATOM      7  C   UNL d   1     -41.413-120.438 -52.129  0.00  0.00     0.066 A 
ATOM      8  C   UNL d   1     -41.982-123.152 -51.110  0.00  0.00     0.104 A 
ATOM      9  C   UNL d   1     -41.411-120.381 -51.306  0.00  0.00     0.087 A 
ATOM     10  C   UNL d   1     -41.270-119.771 -52.600  0.00  0.00     0.006 A 
ATOM     11  C   UNL d   1     -42.122-123.809 -50.664  0.00  0.00     0.023 C 
ATOM     12  C   UNL d   1     -41.267-119.655 -50.945  0.00  0.00     0.019 A 
ATOM     13  C   UNL d   1     -41.124-119.036 -52.228  0.00  0.00     0.000 A 
ATOM     14  C   UNL d   1     -41.123-118.978 -51.406  0.00  0.00     0.002 A 
ENDROOT
BRANCH   3  15
ATOM     15  N   UNL d   1     -41.557-121.215 -53.324  0.00  0.00    -0.380 NA
BRANCH  15  16
ATOM     16  C   UNL d   1     -41.625-121.298 -54.157  0.00  0.00     0.164 C 
BRANCH  16  17
ATOM     17  C   UNL d   1     -42.260-121.753 -54.469  0.00  0.00     0.054 C 
BRANCH  17  18
ATOM     18  C   UNL d   1     -42.237-122.011 -55.281  0.00  0.00     0.083 C 
BRANCH  18  19
ATOM     19  N   UNL d   1     -42.718-122.655 -55.529  0.00  0.00    -0.300 N 
ATOM     20  C   UNL d   1     -43.350-122.150 -55.737  0.00  0.00     0.100 C 
ATOM     21  C   UNL d   1     -42.813-123.489 -55.640  0.00  0.00     0.100 C 
ENDBRANCH  18  19
ENDBRANCH  17  18
ENDBRANCH  16  17
ENDBRANCH  15  16
ENDBRANCH   3  15
BRANCH   5  22
ATOM     22  C   UNL d   1     -41.836-122.368 -49.925  0.00  0.00     0.004 A 
ATOM     23  C   UNL d   1     -41.145-122.503 -49.516  0.00  0.00     0.000 A 
ATOM     24  C   UNL d   1     -41.144-122.445 -48.693  0.00  0.00     0.000 A 
ATOM     25  C   UNL d   1     -41.833-122.253 -48.293  0.00  0.00     0.000 A 
ATOM     26  C   UNL d   1     -42.524-122.119 -48.714  0.00  0.00     0.000 A 
ATOM     27  C   UNL d   1     -42.525-122.177 -49.537  0.00  0.00     0.000 A 
ENDBRANCH   5  22
TORSDOF 6
ENDMDL
