MODEL 1
REMARK VINA RESULT:      42.2      0.000      0.000
REMARK  4 active torsions:
REMARK  status: ('A' for Active; 'I' for Inactive)
REMARK    1  A    between atoms: N_2  and  S_1 
REMARK    2  A    between atoms: C_4  and  S_1 
REMARK    3  A    between atoms: O_16  and  C_13 
REMARK    4  A    between atoms: C_19  and  O_16 
ROOT
ATOM      1  S   UNL d   1      14.084  13.637  -2.447  0.00  0.00     0.271 S 
ATOM      2  O   UNL d   1      13.527  14.227  -2.602  0.00  0.00    -0.200 OA
ATOM      3  O   UNL d   1      14.644  13.045  -2.290  0.00  0.00    -0.200 OA
ENDROOT
BRANCH   1   4
ATOM      4  N   UNL d   1      14.413  14.107  -1.847  0.00  0.00    -0.229 N 
ATOM      5  C   UNL d   1      14.619  14.889  -2.001  0.00  0.00     0.092 A 
ATOM      6  C   UNL d   1      14.946  15.352  -1.403  0.00  0.00     0.018 A 
ATOM      7  C   UNL d   1      15.153  16.137  -1.556  0.00  0.00     0.002 A 
ATOM      8  C   UNL d   1      15.065  15.033  -0.651  0.00  0.00     0.003 A 
ATOM      9  C   UNL d   1      15.480  16.601  -0.958  0.00  0.00     0.000 A 
ATOM     10  C   UNL d   1      15.599  16.282  -0.206  0.00  0.00     0.000 A 
ATOM     11  C   UNL d   1      15.392  15.499  -0.052  0.00  0.00     0.000 A 
ATOM     12  C   UNL d   1      14.858  14.251  -0.497  0.00  0.00     0.020 A 
ATOM     13  C   UNL d   1      14.532  13.788  -1.095  0.00  0.00     0.092 A 
ENDBRANCH   1   4
BRANCH   1  14
ATOM     14  C   UNL d   1      13.756  13.174  -3.043  0.00  0.00     0.104 A 
ATOM     15  C   UNL d   1      13.881  12.356  -3.048  0.00  0.00     0.015 A 
ATOM     16  C   UNL d   1      13.552  11.892  -3.644  0.00  0.00     0.025 A 
ATOM     17  C   UNL d   1      13.098  12.243  -4.237  0.00  0.00     0.100 A 
ATOM     18  C   UNL d   1      12.972  13.056  -4.233  0.00  0.00     0.025 A 
ATOM     19  C   UNL d   1      13.301  13.524  -3.635  0.00  0.00     0.015 A 
BRANCH  17  20
ATOM     20  O   UNL d   1      12.770  11.780  -4.832  0.00  0.00    -0.305 OA
BRANCH  20  21
ATOM     21  C   UNL d   1      13.071  11.818  -5.599  0.00  0.00     0.123 C 
ATOM     22  C   UNL d   1      13.886  11.819  -5.723  0.00  0.00     0.029 C 
ENDBRANCH  20  21
ENDBRANCH  17  20
ENDBRANCH   1  14
TORSDOF 4
ENDMDL
MODEL 2
REMARK VINA RESULT:      44.1      0.967      4.592
REMARK  4 active torsions:
REMARK  status: ('A' for Active; 'I' for Inactive)
REMARK    1  A    between atoms: N_2  and  S_1 
REMARK    2  A    between atoms: C_4  and  S_1 
REMARK    3  A    between atoms: O_16  and  C_13 
REMARK    4  A    between atoms: C_19  and  O_16 
ROOT
ATOM      1  S   UNL d   1      14.078  13.618  -2.442  0.00  0.00     0.271 S 
ATOM      2  O   UNL d   1      13.744  14.295  -2.778  0.00  0.00    -0.200 OA
ATOM      3  O   UNL d   1      14.413  12.937  -2.107  0.00  0.00    -0.200 OA
ENDROOT
BRANCH   1   4
ATOM      4  N   UNL d   1      13.754  13.158  -3.053  0.00  0.00    -0.229 N 
ATOM      5  C   UNL d   1      13.891  13.359  -3.839  0.00  0.00     0.092 A 
ATOM      6  C   UNL d   1      13.568  12.900  -4.442  0.00  0.00     0.018 A 
ATOM      7  C   UNL d   1      13.705  13.100  -5.232  0.00  0.00     0.002 A 
ATOM      8  C   UNL d   1      13.108  12.240  -4.258  0.00  0.00     0.003 A 
ATOM      9  C   UNL d   1      13.381  12.641  -5.835  0.00  0.00     0.000 A 
ATOM     10  C   UNL d   1      12.921  11.981  -5.651  0.00  0.00     0.000 A 
ATOM     11  C   UNL d   1      12.784  11.780  -4.864  0.00  0.00     0.000 A 
ATOM     12  C   UNL d   1      12.971  12.039  -3.471  0.00  0.00     0.020 A 
ATOM     13  C   UNL d   1      13.294  12.498  -2.869  0.00  0.00     0.092 A 
ENDBRANCH   1   4
BRANCH   1  14
ATOM     14  C   UNL d   1      14.397  14.078  -1.839  0.00  0.00     0.104 A 
ATOM     15  C   UNL d   1      14.844  13.723  -1.240  0.00  0.00     0.015 A 
ATOM     16  C   UNL d   1      15.164  14.182  -0.636  0.00  0.00     0.025 A 
ATOM     17  C   UNL d   1      15.040  14.997  -0.628  0.00  0.00     0.100 A 
ATOM     18  C   UNL d   1      14.595  15.353  -1.223  0.00  0.00     0.025 A 
ATOM     19  C   UNL d   1      14.273  14.893  -1.830  0.00  0.00     0.015 A 
BRANCH  17  20
ATOM     20  O   UNL d   1      15.359  15.456  -0.024  0.00  0.00    -0.305 OA
BRANCH  20  21
ATOM     21  C   UNL d   1      15.906  16.048  -0.201  0.00  0.00     0.123 C 
ATOM     22  C   UNL d   1      15.769  16.563  -0.830  0.00  0.00     0.029 C 
ENDBRANCH  20  21
ENDBRANCH  17  20
ENDBRANCH   1  14
TORSDOF 4
ENDMDL
