MODEL 1
REMARK VINA RESULT:      -4.3      0.000      0.000
REMARK  2 active torsions:
REMARK  status: ('A' for Active; 'I' for Inactive)
REMARK    1  A    between atoms: C_2  and  C_1 
REMARK    2  A    between atoms: C_14  and  N_5 
ROOT
ATOM      1  C   UNL d   1      58.469  -0.706  29.896  0.00  0.00     0.117 A 
ATOM      2  N   UNL d   1      59.017  -1.338  29.940  0.00  0.00    -0.164 NA
ATOM      3  C   UNL d   1      58.369  -0.509  29.110  0.00  0.00     0.107 A 
ATOM      4  N   UNL d   1      59.244  -1.518  29.183  0.00  0.00    -0.228 N 
ATOM      5  C   UNL d   1      58.842  -1.003  28.663  0.00  0.00     0.112 A 
ATOM      6  C   UNL d   1      57.876   0.088  28.799  0.00  0.00     0.104 C 
ATOM      7  N   UNL d   1      57.385   0.682  28.493  0.00  0.00    -0.191 NA
ENDROOT
BRANCH   1   8
ATOM      8  C   UNL d   1      58.112  -0.369  30.573  0.00  0.00     0.084 A 
ATOM      9  C   UNL d   1      58.454   0.322  30.918  0.00  0.00     0.302 A 
ATOM     10  O   UNL d   1      58.122   0.660  31.572  0.00  0.00    -0.273 OA
ATOM     11  O   UNL d   1      59.131   0.658  30.590  0.00  0.00    -0.259 OA
ATOM     12  C   UNL d   1      57.438   0.335  31.919  0.00  0.00     0.103 A 
ATOM     13  C   UNL d   1      57.105  -0.342  31.578  0.00  0.00     0.023 A 
ATOM     14  C   UNL d   1      57.111   0.681  32.576  0.00  0.00     0.025 A 
ATOM     15  C   UNL d   1      57.441  -0.690  30.910  0.00  0.00     0.009 A 
ATOM     16  C   UNL d   1      56.425  -0.664  31.923  0.00  0.00     0.002 A 
ATOM     17  C   UNL d   1      56.102  -0.312  32.583  0.00  0.00     0.000 A 
ATOM     18  C   UNL d   1      56.433   0.359  32.918  0.00  0.00     0.002 A 
ENDBRANCH   1   8
BRANCH   4  19
ATOM     19  C   UNL d   1      59.783  -2.115  28.988  0.00  0.00     0.083 A 
ATOM     20  C   UNL d   1      60.550  -1.928  28.745  0.00  0.00     0.019 A 
ATOM     21  C   UNL d   1      61.076  -2.524  28.554  0.00  0.00     0.002 A 
ATOM     22  C   UNL d   1      60.842  -3.305  28.605  0.00  0.00     0.000 A 
ATOM     23  C   UNL d   1      60.062  -3.517  28.852  0.00  0.00     0.002 A 
ATOM     24  C   UNL d   1      59.536  -2.900  29.043  0.00  0.00     0.019 A 
ENDBRANCH   4  19
TORSDOF 2
ENDMDL
MODEL 2
REMARK VINA RESULT:      -4.1      1.001      4.296
REMARK  2 active torsions:
REMARK  status: ('A' for Active; 'I' for Inactive)
REMARK    1  A    between atoms: C_2  and  C_1 
REMARK    2  A    between atoms: C_14  and  N_5 
ROOT
ATOM      1  C   UNL d   1      58.179  -0.550  30.307  0.00  0.00     0.117 A 
ATOM      2  N   UNL d   1      57.958  -0.656  31.108  0.00  0.00    -0.164 NA
ATOM      3  C   UNL d   1      57.748   0.073  30.003  0.00  0.00     0.107 A 
ATOM      4  N   UNL d   1      57.397  -0.098  31.283  0.00  0.00    -0.228 N 
ATOM      5  C   UNL d   1      57.263   0.358  30.596  0.00  0.00     0.112 A 
ATOM      6  C   UNL d   1      57.782   0.379  29.228  0.00  0.00     0.104 C 
ATOM      7  N   UNL d   1      57.818   0.682  28.457  0.00  0.00    -0.191 NA
ENDROOT
BRANCH   1   8
ATOM      8  C   UNL d   1      58.751  -1.028  29.928  0.00  0.00     0.084 A 
ATOM      9  C   UNL d   1      59.558  -0.777  29.919  0.00  0.00     0.302 A 
ATOM     10  O   UNL d   1      60.122  -1.229  29.558  0.00  0.00    -0.273 OA
ATOM     11  O   UNL d   1      59.776  -0.070  30.279  0.00  0.00    -0.259 OA
ATOM     12  C   UNL d   1      59.921  -1.948  29.188  0.00  0.00     0.103 A 
ATOM     13  C   UNL d   1      59.130  -2.191  29.199  0.00  0.00     0.023 A 
ATOM     14  C   UNL d   1      60.495  -2.394  28.828  0.00  0.00     0.025 A 
ATOM     15  C   UNL d   1      58.550  -1.733  29.567  0.00  0.00     0.009 A 
ATOM     16  C   UNL d   1      58.931  -2.905  28.832  0.00  0.00     0.002 A 
ATOM     17  C   UNL d   1      59.512  -3.349  28.471  0.00  0.00     0.000 A 
ATOM     18  C   UNL d   1      60.295  -3.106  28.462  0.00  0.00     0.002 A 
ENDBRANCH   1   8
BRANCH   4  19
ATOM     19  C   UNL d   1      57.035  -0.018  32.022  0.00  0.00     0.083 A 
ATOM     20  C   UNL d   1      57.240   0.602  32.528  0.00  0.00     0.019 A 
ATOM     21  C   UNL d   1      56.877   0.673  33.257  0.00  0.00     0.002 A 
ATOM     22  C   UNL d   1      56.311   0.130  33.485  0.00  0.00     0.000 A 
ATOM     23  C   UNL d   1      56.088  -0.510  32.983  0.00  0.00     0.002 A 
ATOM     24  C   UNL d   1      56.465  -0.572  32.242  0.00  0.00     0.019 A 
ENDBRANCH   4  19
TORSDOF 2
ENDMDL
