MODEL 1
REMARK VINA RESULT:      47.0      0.000      0.000
REMARK  7 active torsions:
REMARK  status: ('A' for Active; 'I' for Inactive)
REMARK    1  A    between atoms: C_3  and  C_1 
REMARK    2  A    between atoms: C_9  and  N_2 
REMARK    3  A    between atoms: C_6  and  C_3 
REMARK    4  A    between atoms: C_8  and  C_3 
REMARK       I    between atoms: N_11  and  C_6 
REMARK    5  A    between atoms: C_26  and  C_7 
REMARK    6  A    between atoms: C_21  and  N_11 
REMARK    7  A    between atoms: C_12  and  C_21 
ROOT
ATOM      1  C   UNL d   1     -55.106-100.240 -44.467  0.00  0.00     0.103 A 
ATOM      2  N   UNL d   1     -55.011-100.763 -43.841  0.00  0.00    -0.269 N 
ATOM      3  S   UNL d   1     -55.035-100.667 -45.170  0.00  0.00    -0.064 SA
ATOM      4  C   UNL d   1     -54.881-101.518 -44.149  0.00  0.00     0.271 A 
ATOM      5  C   UNL d   1     -54.896-101.454 -44.972  0.00  0.00     0.087 A 
ATOM      6  O   UNL d   1     -54.758-102.204 -43.714  0.00  0.00    -0.266 OA
ENDROOT
BRANCH   1   7
ATOM      7  C   UNL d   1     -55.249 -99.426 -44.409  0.00  0.00     0.101 C 
BRANCH   7   8
ATOM      8  C   UNL d   1     -55.925 -99.150 -44.022  0.00  0.00     0.283 C 
ATOM      9  N   UNL d   1     -56.623 -99.048 -44.436  0.00  0.00    -0.204 NA
ATOM     10  O   UNL d   1     -55.893 -98.979 -43.213  0.00  0.00    -0.265 OA
BRANCH   9  11
ATOM     11  C   UNL d   1     -57.299 -98.772 -44.050  0.00  0.00     0.127 C 
BRANCH  11  12
ATOM     12  C   UNL d   1     -58.040 -98.836 -44.402  0.00  0.00     0.119 A 
ATOM     13  O   UNL d   1     -58.213 -98.771 -45.202  0.00  0.00    -0.304 OA
ATOM     14  C   UNL d   1     -59.026 -98.873 -45.301  0.00  0.00     0.123 A 
ATOM     15  C   UNL d   1     -59.355 -99.002 -44.559  0.00  0.00     0.029 A 
ATOM     16  C   UNL d   1     -58.751 -98.979 -44.003  0.00  0.00     0.028 A 
ENDBRANCH  11  12
ENDBRANCH   9  11
ENDBRANCH   7   8
BRANCH   7  17
ATOM     17  C   UNL d   1     -54.711 -98.887 -44.739  0.00  0.00     0.129 C 
ATOM     18  N   UNL d   1     -54.718 -98.758 -45.551  0.00  0.00    -0.146 N 
ENDBRANCH   7  17
ENDBRANCH   1   7
BRANCH   2  19
ATOM     19  C   UNL d   1     -54.956-101.055 -43.071  0.00  0.00     0.067 A 
ATOM     20  C   UNL d   1     -54.767-100.555 -42.454  0.00  0.00     0.018 A 
ATOM     21  C   UNL d   1     -54.712-100.845 -41.690  0.00  0.00     0.008 A 
ATOM     22  C   UNL d   1     -54.848-101.650 -41.544  0.00  0.00     0.035 A 
ATOM     23  C   UNL d   1     -55.038-102.152 -42.169  0.00  0.00     0.008 A 
ATOM     24 BR   UNL d   1     -54.795-101.948 -40.781  0.00  0.00    -0.049 Br
ATOM     25  C   UNL d   1     -55.092-101.857 -42.932  0.00  0.00     0.018 A 
ENDBRANCH   2  19
BRANCH   5  26
ATOM     26  C   UNL d   1     -54.790-102.080 -45.501  0.00  0.00     0.011 C 
ATOM     27  C   UNL d   1     -55.219-102.779 -45.400  0.00  0.00     0.001 C 
ENDBRANCH   5  26
TORSDOF 7
ENDMDL
