MODEL 1
REMARK VINA RESULT:       1.0      0.000      0.000
REMARK  6 active torsions:
REMARK  status: ('A' for Active; 'I' for Inactive)
REMARK    1  A    between atoms: C_4  and  C_1 
REMARK    2  A    between atoms: C_7  and  C_4 
REMARK    3  A    between atoms: N_10  and  C_7 
REMARK    4  A    between atoms: C_13  and  N_10 
REMARK    5  A    between atoms: O_18  and  C_11 
REMARK    6  A    between atoms: O_20  and  C_15 
ROOT
ATOM      1  C   UNL d   1      32.198  18.703 -23.879  0.00  0.00     0.122 C 
ATOM      2  C   UNL d   1      32.719  18.515 -24.487  0.00  0.00     0.106 C 
ATOM      3  N   UNL d   1      33.240  18.327 -25.097  0.00  0.00    -0.191 NA
ENDROOT
BRANCH   1   4
ATOM      4  C   UNL d   1      32.429  19.227 -23.284  0.00  0.00     0.159 A 
ATOM      5  N   UNL d   1      32.477  20.049 -23.350  0.00  0.00    -0.226 NA
ATOM      6  C   UNL d   1      32.729  20.348 -22.630  0.00  0.00     0.099 A 
ATOM      7  C   UNL d   1      32.876  21.122 -22.368  0.00  0.00     0.021 A 
ATOM      8  C   UNL d   1      32.838  19.713 -22.114  0.00  0.00     0.083 A 
ATOM      9  C   UNL d   1      33.131  21.250 -21.591  0.00  0.00     0.002 A 
ATOM     10  C   UNL d   1      33.240  20.616 -21.076  0.00  0.00     0.002 A 
ATOM     11  C   UNL d   1      33.096  19.847 -21.331  0.00  0.00     0.019 A 
ATOM     12  N   UNL d   1      32.654  19.021 -22.514  0.00  0.00    -0.287 N 
ATOM     13  C   UNL d   1      32.685  18.248 -22.210  0.00  0.00     0.101 C 
ENDBRANCH   1   4
BRANCH   1  14
ATOM     14  C   UNL d   1      31.446  18.368 -23.864  0.00  0.00     0.112 C 
BRANCH  14  15
ATOM     15  N   UNL d   1      31.199  17.880 -24.481  0.00  0.00    -0.241 NA
BRANCH  15  16
ATOM     16  C   UNL d   1      30.481  17.481 -24.430  0.00  0.00     0.104 A 
ATOM     17  C   UNL d   1      30.468  16.656 -24.395  0.00  0.00     0.114 A 
ATOM     18  C   UNL d   1      29.749  16.258 -24.344  0.00  0.00     0.050 A 
ATOM     19  C   UNL d   1      29.041  16.683 -24.328  0.00  0.00     0.096 A 
ATOM     20  C   UNL d   1      29.058  17.507 -24.362  0.00  0.00     0.026 A 
ATOM     21  C   UNL d   1      29.776  17.906 -24.414  0.00  0.00     0.023 A 
BRANCH  17  22
ATOM     22  O   UNL d   1      31.172  16.232 -24.412  0.00  0.00    -0.327 OA
ATOM     23  C   UNL d   1      31.191  15.453 -24.142  0.00  0.00     0.181 C 
ENDBRANCH  17  22
BRANCH  19  24
ATOM     24  O   UNL d   1      28.322  16.284 -24.276  0.00  0.00    -0.328 OA
ATOM     25  C   UNL d   1      27.936  16.210 -23.545  0.00  0.00     0.181 C 
ENDBRANCH  19  24
ENDBRANCH  15  16
ENDBRANCH  14  15
ENDBRANCH   1  14
TORSDOF 6
ENDMDL
MODEL 2
REMARK VINA RESULT:       1.7      2.200      4.927
REMARK  6 active torsions:
REMARK  status: ('A' for Active; 'I' for Inactive)
REMARK    1  A    between atoms: C_4  and  C_1 
REMARK    2  A    between atoms: C_7  and  C_4 
REMARK    3  A    between atoms: N_10  and  C_7 
REMARK    4  A    between atoms: C_13  and  N_10 
REMARK    5  A    between atoms: O_18  and  C_11 
REMARK    6  A    between atoms: O_20  and  C_15 
ROOT
ATOM      1  C   UNL d   1      32.843  18.386 -22.888  0.00  0.00     0.122 C 
ATOM      2  C   UNL d   1      32.991  18.111 -22.126  0.00  0.00     0.106 C 
ATOM      3  N   UNL d   1      33.140  17.836 -21.364  0.00  0.00    -0.191 NA
ENDROOT
BRANCH   1   4
ATOM      4  C   UNL d   1      32.324  17.977 -23.381  0.00  0.00     0.159 A 
ATOM      5  N   UNL d   1      31.552  18.204 -23.573  0.00  0.00    -0.226 NA
ATOM      6  C   UNL d   1      31.238  17.639 -24.076  0.00  0.00     0.099 A 
ATOM      7  C   UNL d   1      30.498  17.571 -24.446  0.00  0.00     0.021 A 
ATOM      8  C   UNL d   1      31.812  17.059 -24.200  0.00  0.00     0.083 A 
ATOM      9  C   UNL d   1      30.342  16.922 -24.934  0.00  0.00     0.002 A 
ATOM     10  C   UNL d   1      30.915  16.343 -25.057  0.00  0.00     0.002 A 
ATOM     11  C   UNL d   1      31.650  16.405 -24.693  0.00  0.00     0.019 A 
ATOM     12  N   UNL d   1      32.482  17.264 -23.772  0.00  0.00    -0.287 N 
ATOM     13  C   UNL d   1      33.195  16.840 -23.733  0.00  0.00     0.101 C 
ENDBRANCH   1   4
BRANCH   1  14
ATOM     14  C   UNL d   1      33.214  19.070 -23.157  0.00  0.00     0.112 C 
BRANCH  14  15
ATOM     15  N   UNL d   1      33.206  19.753 -22.695  0.00  0.00    -0.241 NA
BRANCH  15  16
ATOM     16  C   UNL d   1      33.206  20.494 -23.053  0.00  0.00     0.104 A 
ATOM     17  C   UNL d   1      33.171  21.177 -22.592  0.00  0.00     0.114 A 
ATOM     18  C   UNL d   1      33.171  21.918 -22.951  0.00  0.00     0.050 A 
ATOM     19  C   UNL d   1      33.206  21.978 -23.775  0.00  0.00     0.096 A 
ATOM     20  C   UNL d   1      33.241  21.293 -24.233  0.00  0.00     0.026 A 
ATOM     21  C   UNL d   1      33.241  20.552 -23.874  0.00  0.00     0.023 A 
BRANCH  17  22
ATOM     22  O   UNL d   1      33.137  21.119 -21.772  0.00  0.00    -0.327 OA
ATOM     23  C   UNL d   1      32.545  21.515 -21.354  0.00  0.00     0.181 C 
ENDBRANCH  17  22
BRANCH  19  24
ATOM     24  O   UNL d   1      33.206  22.719 -24.134  0.00  0.00    -0.328 OA
ATOM     25  C   UNL d   1      32.544  22.975 -24.565  0.00  0.00     0.181 C 
ENDBRANCH  19  24
ENDBRANCH  15  16
ENDBRANCH  14  15
ENDBRANCH   1  14
TORSDOF 6
ENDMDL
MODEL 3
REMARK VINA RESULT:       1.8      3.083      5.634
REMARK  6 active torsions:
REMARK  status: ('A' for Active; 'I' for Inactive)
REMARK    1  A    between atoms: C_4  and  C_1 
REMARK    2  A    between atoms: C_7  and  C_4 
REMARK    3  A    between atoms: N_10  and  C_7 
REMARK    4  A    between atoms: C_13  and  N_10 
REMARK    5  A    between atoms: O_18  and  C_11 
REMARK    6  A    between atoms: O_20  and  C_15 
ROOT
ATOM      1  C   UNL d   1      33.145  20.858 -22.868  0.00  0.00     0.122 C 
ATOM      2  C   UNL d   1      33.083  21.373 -23.507  0.00  0.00     0.106 C 
ATOM      3  N   UNL d   1      33.021  21.888 -24.147  0.00  0.00    -0.191 NA
ENDROOT
BRANCH   1   4
ATOM      4  C   UNL d   1      33.113  20.043 -22.990  0.00  0.00     0.159 A 
ATOM      5  N   UNL d   1      33.229  19.459 -22.416  0.00  0.00    -0.226 NA
ATOM      6  C   UNL d   1      33.148  18.728 -22.777  0.00  0.00     0.099 A 
ATOM      7  C   UNL d   1      33.203  17.953 -22.485  0.00  0.00     0.021 A 
ATOM      8  C   UNL d   1      32.981  18.853 -23.575  0.00  0.00     0.083 A 
ATOM      9  C   UNL d   1      33.091  17.313 -22.997  0.00  0.00     0.002 A 
ATOM     10  C   UNL d   1      32.925  17.438 -23.794  0.00  0.00     0.002 A 
ATOM     11  C   UNL d   1      32.868  18.205 -24.089  0.00  0.00     0.019 A 
ATOM     12  N   UNL d   1      32.959  19.662 -23.710  0.00  0.00    -0.287 N 
ATOM     13  C   UNL d   1      32.810  20.042 -24.434  0.00  0.00     0.101 C 
ENDBRANCH   1   4
BRANCH   1  14
ATOM     14  C   UNL d   1      33.238  21.158 -22.107  0.00  0.00     0.112 C 
BRANCH  14  15
ATOM     15  N   UNL d   1      32.579  21.403 -21.676  0.00  0.00    -0.241 NA
BRANCH  15  16
ATOM     16  C   UNL d   1      32.676  21.830 -20.979  0.00  0.00     0.104 A 
ATOM     17  C   UNL d   1      32.321  22.570 -20.893  0.00  0.00     0.114 A 
ATOM     18  C   UNL d   1      32.419  22.995 -20.195  0.00  0.00     0.050 A 
ATOM     19  C   UNL d   1      32.874  22.683 -19.581  0.00  0.00     0.096 A 
ATOM     20  C   UNL d   1      33.228  21.943 -19.670  0.00  0.00     0.026 A 
ATOM     21  C   UNL d   1      33.130  21.516 -20.367  0.00  0.00     0.023 A 
BRANCH  17  22
ATOM     22  O   UNL d   1      31.868  22.882 -21.504  0.00  0.00    -0.327 OA
ATOM     23  C   UNL d   1      31.619  23.668 -21.474  0.00  0.00     0.181 C 
ENDBRANCH  17  22
BRANCH  19  24
ATOM     24  O   UNL d   1      32.972  23.109 -18.883  0.00  0.00    -0.328 OA
ATOM     25  C   UNL d   1      33.216  22.724 -18.189  0.00  0.00     0.181 C 
ENDBRANCH  19  24
ENDBRANCH  15  16
ENDBRANCH  14  15
ENDBRANCH   1  14
TORSDOF 6
ENDMDL
MODEL 4
REMARK VINA RESULT:       2.4      2.744      4.158
REMARK  6 active torsions:
REMARK  status: ('A' for Active; 'I' for Inactive)
REMARK    1  A    between atoms: C_4  and  C_1 
REMARK    2  A    between atoms: C_7  and  C_4 
REMARK    3  A    between atoms: N_10  and  C_7 
REMARK    4  A    between atoms: C_13  and  N_10 
REMARK    5  A    between atoms: O_18  and  C_11 
REMARK    6  A    between atoms: O_20  and  C_15 
ROOT
ATOM      1  C   UNL d   1      33.002  21.801 -21.670  0.00  0.00     0.122 C 
ATOM      2  C   UNL d   1      32.768  22.297 -22.283  0.00  0.00     0.106 C 
ATOM      3  N   UNL d   1      32.532  22.793 -22.897  0.00  0.00    -0.191 NA
ENDROOT
BRANCH   1   4
ATOM      4  C   UNL d   1      33.052  22.091 -20.900  0.00  0.00     0.159 A 
ATOM      5  N   UNL d   1      33.036  22.887 -20.676  0.00  0.00    -0.226 NA
ATOM      6  C   UNL d   1      33.100  22.923 -19.860  0.00  0.00     0.099 A 
ATOM      7  C   UNL d   1      33.115  23.562 -19.330  0.00  0.00     0.021 A 
ATOM      8  C   UNL d   1      33.155  22.152 -19.573  0.00  0.00     0.083 A 
ATOM      9  C   UNL d   1      33.186  23.419 -18.518  0.00  0.00     0.002 A 
ATOM     10  C   UNL d   1      33.241  22.649 -18.231  0.00  0.00     0.002 A 
ATOM     11  C   UNL d   1      33.226  22.012 -18.753  0.00  0.00     0.019 A 
ATOM     12  N   UNL d   1      33.125  21.636 -20.211  0.00  0.00    -0.287 N 
ATOM     13  C   UNL d   1      33.162  20.807 -20.182  0.00  0.00     0.101 C 
ENDBRANCH   1   4
BRANCH   1  14
ATOM     14  C   UNL d   1      33.188  21.014 -21.827  0.00  0.00     0.112 C 
BRANCH  14  15
ATOM     15  N   UNL d   1      33.237  20.749 -22.606  0.00  0.00    -0.241 NA
BRANCH  15  16
ATOM     16  C   UNL d   1      33.196  19.943 -22.772  0.00  0.00     0.104 A 
ATOM     17  C   UNL d   1      33.181  19.682 -23.554  0.00  0.00     0.114 A 
ATOM     18  C   UNL d   1      33.140  18.876 -23.718  0.00  0.00     0.050 A 
ATOM     19  C   UNL d   1      33.113  18.328 -23.100  0.00  0.00     0.096 A 
ATOM     20  C   UNL d   1      33.128  18.594 -22.319  0.00  0.00     0.026 A 
ATOM     21  C   UNL d   1      33.169  19.399 -22.154  0.00  0.00     0.023 A 
BRANCH  17  22
ATOM     22  O   UNL d   1      33.208  20.225 -24.171  0.00  0.00    -0.327 OA
ATOM     23  C   UNL d   1      32.918  20.020 -24.915  0.00  0.00     0.181 C 
ENDBRANCH  17  22
BRANCH  19  24
ATOM     24  O   UNL d   1      33.072  17.522 -23.264  0.00  0.00    -0.328 OA
ATOM     25  C   UNL d   1      32.926  16.978 -22.654  0.00  0.00     0.181 C 
ENDBRANCH  19  24
ENDBRANCH  15  16
ENDBRANCH  14  15
ENDBRANCH   1  14
TORSDOF 6
ENDMDL
MODEL 5
REMARK VINA RESULT:       2.8      1.793      4.834
REMARK  6 active torsions:
REMARK  status: ('A' for Active; 'I' for Inactive)
REMARK    1  A    between atoms: C_4  and  C_1 
REMARK    2  A    between atoms: C_7  and  C_4 
REMARK    3  A    between atoms: N_10  and  C_7 
REMARK    4  A    between atoms: C_13  and  N_10 
REMARK    5  A    between atoms: O_18  and  C_11 
REMARK    6  A    between atoms: O_20  and  C_15 
ROOT
ATOM      1  C   UNL d   1      31.930  18.221 -24.123  0.00  0.00     0.122 C 
ATOM      2  C   UNL d   1      32.577  18.057 -24.605  0.00  0.00     0.106 C 
ATOM      3  N   UNL d   1      33.224  17.894 -25.087  0.00  0.00    -0.191 NA
ENDROOT
BRANCH   1   4
ATOM      4  C   UNL d   1      31.215  17.827 -24.244  0.00  0.00     0.159 A 
ATOM      5  N   UNL d   1      30.515  18.164 -24.525  0.00  0.00    -0.226 NA
ATOM      6  C   UNL d   1      29.945  17.576 -24.559  0.00  0.00     0.099 A 
ATOM      7  C   UNL d   1      29.149  17.584 -24.794  0.00  0.00     0.021 A 
ATOM      8  C   UNL d   1      30.288  16.872 -24.300  0.00  0.00     0.083 A 
ATOM      9  C   UNL d   1      28.706  16.886 -24.767  0.00  0.00     0.002 A 
ATOM     10  C   UNL d   1      29.049  16.183 -24.508  0.00  0.00     0.002 A 
ATOM     11  C   UNL d   1      29.838  16.169 -24.274  0.00  0.00     0.019 A 
ATOM     12  N   UNL d   1      31.071  17.023 -24.105  0.00  0.00    -0.287 N 
ATOM     13  C   UNL d   1      31.626  16.476 -23.819  0.00  0.00     0.101 C 
ENDBRANCH   1   4
BRANCH   1  14
ATOM     14  C   UNL d   1      31.998  18.777 -23.519  0.00  0.00     0.112 C 
BRANCH  14  15
ATOM     15  N   UNL d   1      32.449  19.458 -23.634  0.00  0.00    -0.241 NA
BRANCH  15  16
ATOM     16  C   UNL d   1      32.562  19.987 -23.014  0.00  0.00     0.104 A 
ATOM     17  C   UNL d   1      32.622  20.796 -23.167  0.00  0.00     0.114 A 
ATOM     18  C   UNL d   1      32.735  21.325 -22.546  0.00  0.00     0.050 A 
ATOM     19  C   UNL d   1      32.790  21.047 -21.770  0.00  0.00     0.096 A 
ATOM     20  C   UNL d   1      32.730  20.237 -21.621  0.00  0.00     0.026 A 
ATOM     21  C   UNL d   1      32.616  19.708 -22.241  0.00  0.00     0.023 A 
BRANCH  17  22
ATOM     22  O   UNL d   1      32.568  21.075 -23.939  0.00  0.00    -0.327 OA
ATOM     23  C   UNL d   1      33.216  21.016 -24.445  0.00  0.00     0.181 C 
ENDBRANCH  17  22
BRANCH  19  24
ATOM     24  O   UNL d   1      32.903  21.576 -21.149  0.00  0.00    -0.328 OA
ATOM     25  C   UNL d   1      33.218  22.330 -21.294  0.00  0.00     0.181 C 
ENDBRANCH  19  24
ENDBRANCH  15  16
ENDBRANCH  14  15
ENDBRANCH   1  14
TORSDOF 6
ENDMDL
