MODEL 1
REMARK VINA RESULT:      -2.2      0.000      0.000
REMARK  4 active torsions:
REMARK  status: ('A' for Active; 'I' for Inactive)
REMARK    1  A    between atoms: C_5  and  N_1 
REMARK    2  A    between atoms: C_7  and  C_3 
REMARK    3  A    between atoms: C_10  and  C_4 
REMARK    4  A    between atoms: N_11  and  C_5 
ROOT
ATOM      1  N   UNL d   1      31.650  16.446 -24.009  0.00  0.00    -0.203 N 
ATOM      2  N   UNL d   1      30.936  16.026 -24.053  0.00  0.00    -0.163 NA
ATOM      3  C   UNL d   1      31.479  17.238 -23.862  0.00  0.00     0.088 A 
ATOM      4  C   UNL d   1      30.315  16.572 -23.930  0.00  0.00     0.103 A 
ATOM      5  C   UNL d   1      30.653  17.316 -23.813  0.00  0.00     0.040 A 
ENDROOT
BRANCH   3   6
ATOM      6  C   UNL d   1      32.003  17.875 -23.773  0.00  0.00     0.028 A 
ATOM      7  C   UNL d   1      31.987  18.492 -24.306  0.00  0.00     0.059 A 
ATOM      8 CL   UNL d   1      31.662  18.452 -24.658  0.00  0.00    -0.082 Cl
ATOM      9  C   UNL d   1      32.506  19.131 -24.223  0.00  0.00     0.011 A 
ATOM     10  C   UNL d   1      33.040  19.148 -23.602  0.00  0.00     0.001 A 
ATOM     11  C   UNL d   1      33.046  18.514 -23.067  0.00  0.00     0.000 A 
ATOM     12  C   UNL d   1      32.533  17.895 -23.159  0.00  0.00     0.002 A 
ENDBRANCH   3   6
BRANCH   1  13
ATOM     13  C   UNL d   1      32.418  16.104 -24.103  0.00  0.00     0.222 C 
ATOM     14  S   UNL d   1      32.786  15.759 -23.443  0.00  0.00    -0.037 SA
BRANCH  13  15
ATOM     15  N   UNL d   1      32.791  16.118 -24.846  0.00  0.00    -0.214 NA
ATOM     16  C   UNL d   1      33.241  15.453 -25.097  0.00  0.00     0.122 C 
ENDBRANCH  13  15
ENDBRANCH   1  13
BRANCH   4  17
ATOM     17  C   UNL d   1      29.524  16.387 -23.928  0.00  0.00     0.019 A 
ATOM     18  C   UNL d   1      29.125  16.315 -24.647  0.00  0.00     0.002 A 
ATOM     19  C   UNL d   1      28.321  16.128 -24.659  0.00  0.00     0.000 A 
ATOM     20  C   UNL d   1      27.913  16.011 -23.954  0.00  0.00     0.000 A 
ATOM     21  C   UNL d   1      28.303  16.080 -23.239  0.00  0.00     0.000 A 
ATOM     22  C   UNL d   1      29.107  16.268 -23.227  0.00  0.00     0.002 A 
ENDBRANCH   4  17
TORSDOF 4
ENDMDL
MODEL 2
REMARK VINA RESULT:      -1.8      0.859      3.626
REMARK  4 active torsions:
REMARK  status: ('A' for Active; 'I' for Inactive)
REMARK    1  A    between atoms: C_5  and  N_1 
REMARK    2  A    between atoms: C_7  and  C_3 
REMARK    3  A    between atoms: C_10  and  C_4 
REMARK    4  A    between atoms: N_11  and  C_5 
ROOT
ATOM      1  N   UNL d   1      32.108  17.061 -24.087  0.00  0.00    -0.203 N 
ATOM      2  N   UNL d   1      32.659  17.648 -23.884  0.00  0.00    -0.163 NA
ATOM      3  C   UNL d   1      31.354  17.393 -24.071  0.00  0.00     0.088 A 
ATOM      4  C   UNL d   1      32.234  18.353 -23.742  0.00  0.00     0.103 A 
ATOM      5  C   UNL d   1      31.433  18.193 -23.857  0.00  0.00     0.040 A 
ENDROOT
BRANCH   3   6
ATOM      6  C   UNL d   1      30.624  17.034 -24.231  0.00  0.00     0.028 A 
ATOM      7  C   UNL d   1      30.164  17.307 -24.847  0.00  0.00     0.059 A 
ATOM      8 CL   UNL d   1      30.348  17.676 -25.094  0.00  0.00    -0.082 Cl
ATOM      9  C   UNL d   1      29.434  16.954 -25.012  0.00  0.00     0.011 A 
ATOM     10  C   UNL d   1      29.168  16.327 -24.557  0.00  0.00     0.001 A 
ATOM     11  C   UNL d   1      29.646  16.059 -23.934  0.00  0.00     0.000 A 
ATOM     12  C   UNL d   1      30.358  16.413 -23.782  0.00  0.00     0.002 A 
ENDBRANCH   3   6
BRANCH   1  13
ATOM     13  C   UNL d   1      32.302  16.260 -24.275  0.00  0.00     0.222 C 
ATOM     14  S   UNL d   1      32.165  15.670 -23.706  0.00  0.00    -0.037 SA
BRANCH  13  15
ATOM     15  N   UNL d   1      32.624  16.075 -25.020  0.00  0.00    -0.214 NA
ATOM     16  C   UNL d   1      33.199  15.463 -25.081  0.00  0.00     0.122 C 
ENDBRANCH  13  15
ENDBRANCH   1  13
BRANCH   4  17
ATOM     17  C   UNL d   1      32.566  19.063 -23.528  0.00  0.00     0.019 A 
ATOM     18  C   UNL d   1      32.663  19.239 -22.728  0.00  0.00     0.002 A 
ATOM     19  C   UNL d   1      33.000  19.956 -22.498  0.00  0.00     0.000 A 
ATOM     20  C   UNL d   1      33.241  20.502 -23.065  0.00  0.00     0.000 A 
ATOM     21  C   UNL d   1      33.147  20.333 -23.860  0.00  0.00     0.000 A 
ATOM     22  C   UNL d   1      32.810  19.615 -24.090  0.00  0.00     0.002 A 
ENDBRANCH   4  17
TORSDOF 4
ENDMDL
MODEL 3
REMARK VINA RESULT:      -0.3      1.374      2.309
REMARK  4 active torsions:
REMARK  status: ('A' for Active; 'I' for Inactive)
REMARK    1  A    between atoms: C_5  and  N_1 
REMARK    2  A    between atoms: C_7  and  C_3 
REMARK    3  A    between atoms: C_10  and  C_4 
REMARK    4  A    between atoms: N_11  and  C_5 
ROOT
ATOM      1  N   UNL d   1      30.808  17.357 -24.136  0.00  0.00    -0.203 N 
ATOM      2  N   UNL d   1      29.999  17.421 -23.963  0.00  0.00    -0.163 NA
ATOM      3  C   UNL d   1      31.020  16.562 -24.107  0.00  0.00     0.088 A 
ATOM      4  C   UNL d   1      29.710  16.648 -23.826  0.00  0.00     0.103 A 
ATOM      5  C   UNL d   1      30.340  16.123 -23.915  0.00  0.00     0.040 A 
ENDROOT
BRANCH   3   6
ATOM      6  C   UNL d   1      31.763  16.217 -24.239  0.00  0.00     0.028 A 
ATOM      7  C   UNL d   1      32.129  15.801 -23.640  0.00  0.00     0.059 A 
ATOM      8 CL   UNL d   1      31.885  15.778 -23.226  0.00  0.00    -0.082 Cl
ATOM      9  C   UNL d   1      32.869  15.454 -23.764  0.00  0.00     0.011 A 
ATOM     10  C   UNL d   1      33.241  15.526 -24.491  0.00  0.00     0.001 A 
ATOM     11  C   UNL d   1      32.857  15.951 -25.091  0.00  0.00     0.000 A 
ATOM     12  C   UNL d   1      32.133  16.286 -24.957  0.00  0.00     0.002 A 
ENDBRANCH   3   6
BRANCH   1  13
ATOM     13  C   UNL d   1      31.317  18.010 -24.310  0.00  0.00     0.222 C 
ATOM     14  S   UNL d   1      31.375  18.274 -25.095  0.00  0.00    -0.037 SA
BRANCH  13  15
ATOM     15  N   UNL d   1      31.749  18.374 -23.699  0.00  0.00    -0.214 NA
ATOM     16  C   UNL d   1      32.278  19.002 -23.884  0.00  0.00     0.122 C 
ENDBRANCH  13  15
ENDBRANCH   1  13
BRANCH   4  17
ATOM     17  C   UNL d   1      28.941  16.464 -23.638  0.00  0.00     0.019 A 
ATOM     18  C   UNL d   1      28.715  15.672 -23.594  0.00  0.00     0.002 A 
ATOM     19  C   UNL d   1      27.937  15.471 -23.405  0.00  0.00     0.000 A 
ATOM     20  C   UNL d   1      27.382  16.061 -23.259  0.00  0.00     0.000 A 
ATOM     21  C   UNL d   1      27.600  16.848 -23.301  0.00  0.00     0.000 A 
ATOM     22  C   UNL d   1      28.378  17.048 -23.490  0.00  0.00     0.002 A 
ENDBRANCH   4  17
TORSDOF 4
ENDMDL
MODEL 4
REMARK VINA RESULT:       0.5      1.817      4.092
REMARK  4 active torsions:
REMARK  status: ('A' for Active; 'I' for Inactive)
REMARK    1  A    between atoms: C_5  and  N_1 
REMARK    2  A    between atoms: C_7  and  C_3 
REMARK    3  A    between atoms: C_10  and  C_4 
REMARK    4  A    between atoms: N_11  and  C_5 
ROOT
ATOM      1  N   UNL d   1      31.707  18.281 -23.762  0.00  0.00    -0.203 N 
ATOM      2  N   UNL d   1      31.763  19.041 -23.434  0.00  0.00    -0.163 NA
ATOM      3  C   UNL d   1      32.333  17.826 -23.479  0.00  0.00     0.088 A 
ATOM      4  C   UNL d   1      32.438  19.052 -22.940  0.00  0.00     0.103 A 
ATOM      5  C   UNL d   1      32.785  18.304 -22.970  0.00  0.00     0.040 A 
ENDROOT
BRANCH   3   6
ATOM      6  C   UNL d   1      32.517  17.035 -23.644  0.00  0.00     0.028 A 
ATOM      7  C   UNL d   1      32.388  16.462 -23.078  0.00  0.00     0.059 A 
ATOM      8 CL   UNL d   1      32.205  16.620 -22.662  0.00  0.00    -0.082 Cl
ATOM      9  C   UNL d   1      32.570  15.670 -23.236  0.00  0.00     0.011 A 
ATOM     10  C   UNL d   1      32.881  15.456 -23.963  0.00  0.00     0.001 A 
ATOM     11  C   UNL d   1      33.007  16.049 -24.529  0.00  0.00     0.000 A 
ATOM     12  C   UNL d   1      32.825  16.820 -24.363  0.00  0.00     0.002 A 
ENDBRANCH   3   6
BRANCH   1  13
ATOM     13  C   UNL d   1      31.101  18.029 -24.296  0.00  0.00     0.222 C 
ATOM     14  S   UNL d   1      31.295  17.916 -25.095  0.00  0.00    -0.037 SA
BRANCH  13  15
ATOM     15  N   UNL d   1      30.328  17.900 -24.016  0.00  0.00    -0.214 NA
ATOM     16  C   UNL d   1      29.677  17.995 -24.540  0.00  0.00     0.122 C 
ENDBRANCH  13  15
ENDBRANCH   1  13
BRANCH   4  17
ATOM     17  C   UNL d   1      32.693  19.694 -22.513  0.00  0.00     0.019 A 
ATOM     18  C   UNL d   1      32.672  20.443 -22.858  0.00  0.00     0.002 A 
ATOM     19  C   UNL d   1      32.928  21.103 -22.435  0.00  0.00     0.000 A 
ATOM     20  C   UNL d   1      33.207  21.019 -21.665  0.00  0.00     0.000 A 
ATOM     21  C   UNL d   1      33.231  20.279 -21.317  0.00  0.00     0.000 A 
ATOM     22  C   UNL d   1      32.974  19.618 -21.741  0.00  0.00     0.002 A 
ENDBRANCH   4  17
TORSDOF 4
ENDMDL
