MODEL 1
REMARK VINA RESULT:      -9.5      0.000      0.000
REMARK  9 active torsions:
REMARK  status: ('A' for Active; 'I' for Inactive)
REMARK    1  A    between atoms: N_6  and  S_1 
REMARK    2  A    between atoms: C_12  and  S_1 
REMARK    3  A    between atoms: C_2  and  C_3 
REMARK    4  A    between atoms: C_4  and  C_2 
REMARK    5  A    between atoms: C_5  and  C_2 
REMARK    6  A    between atoms: O_14  and  C_4 
REMARK    7  A    between atoms: C_9  and  C_5 
REMARK    8  A    between atoms: C_7  and  N_6 
REMARK    9  A    between atoms: C_29  and  O_14 
ROOT
ATOM      1  C   UNL d   1      53.760  32.817  54.037  0.00  0.00     0.049 A 
ATOM      2  C   UNL d   1      52.898  32.380  52.989  0.00  0.00     0.094 A 
ATOM      3  C   UNL d   1      53.820  32.033  54.303  0.00  0.00     0.196 A 
ATOM      4  C   UNL d   1      53.301  32.989  53.382  0.00  0.00     0.023 A 
ATOM      5  C   UNL d   1      53.415  31.418  53.910  0.00  0.00     0.040 A 
ATOM      6  C   UNL d   1      52.956  31.591  53.255  0.00  0.00     0.021 A 
ATOM      7  O   UNL d   1      54.282  31.859  54.964  0.00  0.00    -0.287 OA
ATOM      8  C   UNL d   1      53.505  30.658  54.211  0.00  0.00     0.003 A 
ATOM      9  C   UNL d   1      52.552  30.990  52.858  0.00  0.00     0.002 A 
ATOM     10  C   UNL d   1      53.061  30.031  53.768  0.00  0.00     0.000 A 
ATOM     11  C   UNL d   1      52.613  30.199  53.128  0.00  0.00     0.000 A 
ENDROOT
BRANCH   2  12
ATOM     12  N   UNL d   1      52.433  32.590  52.316  0.00  0.00    -0.158 NA
BRANCH  12  13
ATOM     13  S   UNL d   1      51.768  33.058  52.411  0.00  0.00     0.285 S 
ATOM     14  O   UNL d   1      52.140  33.680  51.988  0.00  0.00    -0.198 OA
ATOM     15  O   UNL d   1      51.383  32.457  52.832  0.00  0.00    -0.198 OA
BRANCH  13  16
ATOM     16  C   UNL d   1      51.084  33.554  52.503  0.00  0.00     0.105 A 
ATOM     17  C   UNL d   1      50.663  33.816  51.860  0.00  0.00     0.013 A 
ATOM     18  C   UNL d   1      50.011  34.289  51.949  0.00  0.00     0.001 A 
ATOM     19  C   UNL d   1      49.603  34.541  51.295  0.00  0.00     0.000 A 
ATOM     20  C   UNL d   1      49.755  34.522  52.728  0.00  0.00     0.000 A 
ATOM     21  C   UNL d   1      48.901  35.049  51.378  0.00  0.00     0.000 A 
ATOM     22  C   UNL d   1      48.658  35.272  52.145  0.00  0.00     0.000 A 
ATOM     23  C   UNL d   1      49.083  35.010  52.826  0.00  0.00     0.000 A 
ATOM     24  C   UNL d   1      50.194  34.247  53.356  0.00  0.00     0.001 A 
ATOM     25  C   UNL d   1      50.850  33.770  53.263  0.00  0.00     0.013 A 
ENDBRANCH  13  16
ENDBRANCH  12  13
ENDBRANCH   2  12
BRANCH   1  26
ATOM     26  C   UNL d   1      54.165  33.432  54.430  0.00  0.00     0.110 C 
BRANCH  26  27
ATOM     27  C   UNL d   1      53.708  33.988  54.834  0.00  0.00     0.303 C 
ATOM     28  O   UNL d   1      53.246  33.762  55.481  0.00  0.00    -0.259 OA
BRANCH  27  29
ATOM     29  O   UNL d   1      53.744  34.758  54.558  0.00  0.00    -0.273 OA
BRANCH  29  30
ATOM     30  C   UNL d   1      53.238  35.320  54.888  0.00  0.00     0.103 C 
ATOM     31  C   UNL d   1      52.924  35.197  55.614  0.00  0.00     0.027 C 
ATOM     32  C   UNL d   1      53.066  36.002  54.462  0.00  0.00     0.027 C 
ENDBRANCH  29  30
ENDBRANCH  27  29
ENDBRANCH  26  27
BRANCH  26  33
ATOM     33  C   UNL d   1      54.998  33.477  54.412  0.00  0.00     0.272 C 
ATOM     34  O   UNL d   1      55.386  33.317  53.729  0.00  0.00    -0.282 OA
BRANCH  33  35
ATOM     35  C   UNL d   1      55.407  33.683  55.090  0.00  0.00     0.456 C 
ATOM     36  F   UNL d   1      55.775  34.296  54.641  0.00  0.00    -0.163 F 
ATOM     37  F   UNL d   1      55.031  33.076  55.501  0.00  0.00    -0.163 F 
ATOM     38  F   UNL d   1      55.824  33.907  55.748  0.00  0.00    -0.163 F 
ENDBRANCH  33  35
ENDBRANCH  26  33
ENDBRANCH   1  26
TORSDOF 9
ENDMDL
MODEL 2
REMARK VINA RESULT:      -9.5      1.785      3.322
REMARK  9 active torsions:
REMARK  status: ('A' for Active; 'I' for Inactive)
REMARK    1  A    between atoms: N_6  and  S_1 
REMARK    2  A    between atoms: C_12  and  S_1 
REMARK    3  A    between atoms: C_2  and  C_3 
REMARK    4  A    between atoms: C_4  and  C_2 
REMARK    5  A    between atoms: C_5  and  C_2 
REMARK    6  A    between atoms: O_14  and  C_4 
REMARK    7  A    between atoms: C_9  and  C_5 
REMARK    8  A    between atoms: C_7  and  N_6 
REMARK    9  A    between atoms: C_29  and  O_14 
ROOT
ATOM      1  C   UNL d   1      53.392  31.982  53.859  0.00  0.00     0.049 A 
ATOM      2  C   UNL d   1      52.853  33.242  54.250  0.00  0.00     0.094 A 
ATOM      3  C   UNL d   1      54.137  32.225  54.132  0.00  0.00     0.196 A 
ATOM      4  C   UNL d   1      52.752  32.488  53.918  0.00  0.00     0.023 A 
ATOM      5  C   UNL d   1      54.240  32.983  54.467  0.00  0.00     0.040 A 
ATOM      6  C   UNL d   1      53.601  33.489  54.526  0.00  0.00     0.021 A 
ATOM      7  O   UNL d   1      54.782  31.715  54.072  0.00  0.00    -0.287 OA
ATOM      8  C   UNL d   1      54.997  33.179  54.723  0.00  0.00     0.003 A 
ATOM      9  C   UNL d   1      53.692  34.242  54.856  0.00  0.00     0.002 A 
ATOM     10  C   UNL d   1      55.070  33.991  55.073  0.00  0.00     0.000 A 
ATOM     11  C   UNL d   1      54.445  34.486  55.130  0.00  0.00     0.000 A 
ENDROOT
BRANCH   2  12
ATOM     12  N   UNL d   1      52.173  33.741  54.297  0.00  0.00    -0.158 NA
BRANCH  12  13
ATOM     13  S   UNL d   1      51.722  33.879  53.628  0.00  0.00     0.285 S 
ATOM     14  O   UNL d   1      52.271  34.461  53.373  0.00  0.00    -0.198 OA
ATOM     15  O   UNL d   1      51.169  33.308  53.862  0.00  0.00    -0.198 OA
BRANCH  13  16
ATOM     16  C   UNL d   1      51.263  34.031  52.929  0.00  0.00     0.105 A 
ATOM     17  C   UNL d   1      50.464  34.166  52.971  0.00  0.00     0.013 A 
ATOM     18  C   UNL d   1      50.027  34.311  52.303  0.00  0.00     0.001 A 
ATOM     19  C   UNL d   1      49.229  34.443  52.363  0.00  0.00     0.000 A 
ATOM     20  C   UNL d   1      50.406  34.325  51.539  0.00  0.00     0.000 A 
ATOM     21  C   UNL d   1      48.750  34.601  51.654  0.00  0.00     0.000 A 
ATOM     22  C   UNL d   1      49.130  34.612  50.910  0.00  0.00     0.000 A 
ATOM     23  C   UNL d   1      49.961  34.474  50.847  0.00  0.00     0.000 A 
ATOM     24  C   UNL d   1      51.208  34.187  51.525  0.00  0.00     0.001 A 
ATOM     25  C   UNL d   1      51.645  34.041  52.199  0.00  0.00     0.013 A 
ENDBRANCH  13  16
ENDBRANCH  12  13
ENDBRANCH   2  12
BRANCH   1  26
ATOM     26  C   UNL d   1      53.288  31.224  53.524  0.00  0.00     0.110 C 
BRANCH  26  27
ATOM     27  C   UNL d   1      53.009  30.626  54.019  0.00  0.00     0.303 C 
ATOM     28  O   UNL d   1      52.198  30.522  54.135  0.00  0.00    -0.259 OA
BRANCH  27  29
ATOM     29  O   UNL d   1      53.575  30.156  54.378  0.00  0.00    -0.273 OA
BRANCH  29  30
ATOM     30  C   UNL d   1      53.326  29.516  54.835  0.00  0.00     0.103 C 
ATOM     31  C   UNL d   1      53.348  28.776  54.531  0.00  0.00     0.027 C 
ATOM     32  C   UNL d   1      53.058  29.653  55.600  0.00  0.00     0.027 C 
ENDBRANCH  29  30
ENDBRANCH  27  29
ENDBRANCH  26  27
BRANCH  26  33
ATOM     33  C   UNL d   1      53.462  31.084  52.720  0.00  0.00     0.272 C 
ATOM     34  O   UNL d   1      54.102  31.434  52.388  0.00  0.00    -0.282 OA
BRANCH  33  35
ATOM     35  C   UNL d   1      52.978  30.592  52.282  0.00  0.00     0.456 C 
ATOM     36  F   UNL d   1      53.642  30.080  52.183  0.00  0.00    -0.163 F 
ATOM     37  F   UNL d   1      52.348  31.112  52.395  0.00  0.00    -0.163 F 
ATOM     38  F   UNL d   1      52.518  30.087  51.843  0.00  0.00    -0.163 F 
ENDBRANCH  33  35
ENDBRANCH  26  33
ENDBRANCH   1  26
TORSDOF 9
ENDMDL
MODEL 3
REMARK VINA RESULT:      -8.6      1.919      4.858
REMARK  9 active torsions:
REMARK  status: ('A' for Active; 'I' for Inactive)
REMARK    1  A    between atoms: N_6  and  S_1 
REMARK    2  A    between atoms: C_12  and  S_1 
REMARK    3  A    between atoms: C_2  and  C_3 
REMARK    4  A    between atoms: C_4  and  C_2 
REMARK    5  A    between atoms: C_5  and  C_2 
REMARK    6  A    between atoms: O_14  and  C_4 
REMARK    7  A    between atoms: C_9  and  C_5 
REMARK    8  A    between atoms: C_7  and  N_6 
REMARK    9  A    between atoms: C_29  and  O_14 
ROOT
ATOM      1  C   UNL d   1      51.819  34.001  53.237  0.00  0.00     0.049 A 
ATOM      2  C   UNL d   1      53.191  33.663  53.423  0.00  0.00     0.094 A 
ATOM      3  C   UNL d   1      51.943  34.703  53.660  0.00  0.00     0.196 A 
ATOM      4  C   UNL d   1      52.441  33.482  53.119  0.00  0.00     0.023 A 
ATOM      5  C   UNL d   1      52.697  34.888  53.967  0.00  0.00     0.040 A 
ATOM      6  C   UNL d   1      53.318  34.369  53.849  0.00  0.00     0.021 A 
ATOM      7  O   UNL d   1      51.315  35.226  53.779  0.00  0.00    -0.287 OA
ATOM      8  C   UNL d   1      52.770  35.595  54.380  0.00  0.00     0.003 A 
ATOM      9  C   UNL d   1      54.069  34.542  54.149  0.00  0.00     0.002 A 
ATOM     10  C   UNL d   1      53.584  35.758  54.692  0.00  0.00     0.000 A 
ATOM     11  C   UNL d   1      54.192  35.252  54.576  0.00  0.00     0.000 A 
ENDROOT
BRANCH   2  12
ATOM     12  N   UNL d   1      53.812  33.108  53.285  0.00  0.00    -0.158 NA
BRANCH  12  13
ATOM     13  S   UNL d   1      53.681  32.310  53.410  0.00  0.00     0.285 S 
ATOM     14  O   UNL d   1      53.630  32.185  52.581  0.00  0.00    -0.198 OA
ATOM     15  O   UNL d   1      53.728  32.412  54.230  0.00  0.00    -0.198 OA
BRANCH  13  16
ATOM     16  C   UNL d   1      53.543  31.480  53.525  0.00  0.00     0.105 A 
ATOM     17  C   UNL d   1      53.527  31.154  54.268  0.00  0.00     0.013 A 
ATOM     18  C   UNL d   1      53.395  30.361  54.377  0.00  0.00     0.001 A 
ATOM     19  C   UNL d   1      53.382  30.053  55.127  0.00  0.00     0.000 A 
ATOM     20  C   UNL d   1      53.271  29.853  53.704  0.00  0.00     0.000 A 
ATOM     21  C   UNL d   1      53.242  29.204  55.256  0.00  0.00     0.000 A 
ATOM     22  C   UNL d   1      53.121  28.713  54.591  0.00  0.00     0.000 A 
ATOM     23  C   UNL d   1      53.135  29.034  53.809  0.00  0.00     0.000 A 
ATOM     24  C   UNL d   1      53.292  30.203  52.970  0.00  0.00     0.001 A 
ATOM     25  C   UNL d   1      53.425  31.001  52.864  0.00  0.00     0.013 A 
ENDBRANCH  13  16
ENDBRANCH  12  13
ENDBRANCH   2  12
BRANCH   1  26
ATOM     26  C   UNL d   1      51.065  33.816  52.930  0.00  0.00     0.110 C 
BRANCH  26  27
ATOM     27  C   UNL d   1      50.909  34.036  52.149  0.00  0.00     0.303 C 
ATOM     28  O   UNL d   1      51.437  33.840  51.545  0.00  0.00    -0.259 OA
BRANCH  27  29
ATOM     29  O   UNL d   1      50.214  34.449  52.019  0.00  0.00    -0.273 OA
BRANCH  29  30
ATOM     30  C   UNL d   1      49.957  34.554  51.242  0.00  0.00     0.103 C 
ATOM     31  C   UNL d   1      50.480  34.760  50.673  0.00  0.00     0.027 C 
ATOM     32  C   UNL d   1      49.161  34.444  51.068  0.00  0.00     0.027 C 
ENDBRANCH  29  30
ENDBRANCH  27  29
ENDBRANCH  26  27
BRANCH  26  33
ATOM     33  C   UNL d   1      50.495  33.425  53.398  0.00  0.00     0.272 C 
ATOM     34  O   UNL d   1      49.991  33.856  53.847  0.00  0.00    -0.282 OA
BRANCH  33  35
ATOM     35  C   UNL d   1      50.461  32.608  53.393  0.00  0.00     0.456 C 
ATOM     36  F   UNL d   1      50.446  32.636  54.237  0.00  0.00    -0.163 F 
ATOM     37  F   UNL d   1      50.476  32.612  52.570  0.00  0.00    -0.163 F 
ATOM     38  F   UNL d   1      50.425  31.798  53.415  0.00  0.00    -0.163 F 
ENDBRANCH  33  35
ENDBRANCH  26  33
ENDBRANCH   1  26
TORSDOF 9
ENDMDL
MODEL 4
REMARK VINA RESULT:      -8.4      1.231      4.089
REMARK  9 active torsions:
REMARK  status: ('A' for Active; 'I' for Inactive)
REMARK    1  A    between atoms: N_6  and  S_1 
REMARK    2  A    between atoms: C_12  and  S_1 
REMARK    3  A    between atoms: C_2  and  C_3 
REMARK    4  A    between atoms: C_4  and  C_2 
REMARK    5  A    between atoms: C_5  and  C_2 
REMARK    6  A    between atoms: O_14  and  C_4 
REMARK    7  A    between atoms: C_9  and  C_5 
REMARK    8  A    between atoms: C_7  and  N_6 
REMARK    9  A    between atoms: C_29  and  O_14 
ROOT
ATOM      1  C   UNL d   1      52.997  33.672  53.852  0.00  0.00     0.049 A 
ATOM      2  C   UNL d   1      52.146  32.880  53.027  0.00  0.00     0.094 A 
ATOM      3  C   UNL d   1      52.443  34.288  53.819  0.00  0.00     0.196 A 
ATOM      4  C   UNL d   1      52.850  32.970  53.458  0.00  0.00     0.023 A 
ATOM      5  C   UNL d   1      51.734  34.199  53.386  0.00  0.00     0.040 A 
ATOM      6  C   UNL d   1      51.587  33.498  52.992  0.00  0.00     0.021 A 
ATOM      7  O   UNL d   1      52.591  34.995  54.217  0.00  0.00    -0.287 OA
ATOM      8  C   UNL d   1      51.216  34.838  53.383  0.00  0.00     0.003 A 
ATOM      9  C   UNL d   1      50.889  33.400  52.561  0.00  0.00     0.002 A 
ATOM     10  C   UNL d   1      50.474  34.708  52.913  0.00  0.00     0.000 A 
ATOM     11  C   UNL d   1      50.330  34.023  52.528  0.00  0.00     0.000 A 
ENDROOT
BRANCH   2  12
ATOM     12  N   UNL d   1      52.023  32.144  52.631  0.00  0.00    -0.158 NA
BRANCH  12  13
ATOM     13  S   UNL d   1      52.360  31.460  52.929  0.00  0.00     0.285 S 
ATOM     14  O   UNL d   1      52.923  31.462  52.306  0.00  0.00    -0.198 OA
ATOM     15  O   UNL d   1      51.813  31.440  53.551  0.00  0.00    -0.198 OA
BRANCH  13  16
ATOM     16  C   UNL d   1      52.719  30.750  53.227  0.00  0.00     0.105 A 
ATOM     17  C   UNL d   1      52.585  30.496  53.987  0.00  0.00     0.013 A 
ATOM     18  C   UNL d   1      52.928  29.819  54.270  0.00  0.00     0.001 A 
ATOM     19  C   UNL d   1      52.783  29.580  55.032  0.00  0.00     0.000 A 
ATOM     20  C   UNL d   1      53.441  29.358  53.769  0.00  0.00     0.000 A 
ATOM     21  C   UNL d   1      53.145  28.855  55.347  0.00  0.00     0.000 A 
ATOM     22  C   UNL d   1      53.647  28.410  54.848  0.00  0.00     0.000 A 
ATOM     23  C   UNL d   1      53.798  28.657  54.056  0.00  0.00     0.000 A 
ATOM     24  C   UNL d   1      53.559  29.633  53.012  0.00  0.00     0.001 A 
ATOM     25  C   UNL d   1      53.212  30.316  52.730  0.00  0.00     0.013 A 
ENDBRANCH  13  16
ENDBRANCH  12  13
ENDBRANCH   2  12
BRANCH   1  26
ATOM     26  C   UNL d   1      53.706  33.760  54.285  0.00  0.00     0.110 C 
BRANCH  26  27
ATOM     27  C   UNL d   1      54.405  33.846  53.855  0.00  0.00     0.303 C 
ATOM     28  O   UNL d   1      54.627  34.583  53.558  0.00  0.00    -0.259 OA
BRANCH  27  29
ATOM     29  O   UNL d   1      54.850  33.167  53.745  0.00  0.00    -0.273 OA
BRANCH  29  30
ATOM     30  C   UNL d   1      55.541  33.216  53.297  0.00  0.00     0.103 C 
ATOM     31  C   UNL d   1      55.814  32.569  52.913  0.00  0.00     0.027 C 
ATOM     32  C   UNL d   1      55.938  33.935  53.253  0.00  0.00     0.027 C 
ENDBRANCH  29  30
ENDBRANCH  27  29
ENDBRANCH  26  27
BRANCH  26  33
ATOM     33  C   UNL d   1      53.700  33.760  55.120  0.00  0.00     0.272 C 
ATOM     34  O   UNL d   1      53.342  34.361  55.511  0.00  0.00    -0.282 OA
BRANCH  33  35
ATOM     35  C   UNL d   1      54.060  33.148  55.526  0.00  0.00     0.456 C 
ATOM     36  F   UNL d   1      54.735  33.648  55.614  0.00  0.00    -0.163 F 
ATOM     37  F   UNL d   1      53.386  32.685  55.425  0.00  0.00    -0.163 F 
ATOM     38  F   UNL d   1      54.438  32.557  55.933  0.00  0.00    -0.163 F 
ENDBRANCH  33  35
ENDBRANCH  26  33
ENDBRANCH   1  26
TORSDOF 9
ENDMDL
