MODEL 1
REMARK VINA RESULT:      -2.9      0.000      0.000
REMARK  4 active torsions:
REMARK  status: ('A' for Active; 'I' for Inactive)
REMARK    1  A    between atoms: N_7  and  C_6 
REMARK       I    between atoms: C_8  and  N_7 
REMARK    2  A    between atoms: C_14  and  C_8 
REMARK    3  A    between atoms: C_16  and  C_14 
REMARK    4  A    between atoms: C_17  and  C_16 
ROOT
ATOM      1  C   UNL d   1      33.234  21.133 -21.056  0.00  0.00     0.269 A 
ATOM      2  N   UNL d   1      33.233  21.835 -20.603  0.00  0.00    -0.239 N 
ATOM      3  C   UNL d   1      33.236  21.362 -21.850  0.00  0.00     0.079 A 
ATOM      4  C   UNL d   1      33.235  22.466 -21.111  0.00  0.00     0.267 A 
ATOM      5  C   UNL d   1      33.237  22.187 -21.884  0.00  0.00     0.063 A 
ATOM      6  C   UNL d   1      33.238  20.921 -22.543  0.00  0.00     0.089 A 
ATOM      7  O   UNL d   1      33.233  20.361 -20.772  0.00  0.00    -0.267 OA
ATOM      8  O   UNL d   1      33.235  23.274 -20.882  0.00  0.00    -0.267 OA
ATOM      9  C   UNL d   1      33.231  21.874 -19.779  0.00  0.00     0.105 C 
ATOM     10  C   UNL d   1      33.239  22.569 -22.610  0.00  0.00     0.005 A 
ATOM     11  C   UNL d   1      33.240  21.304 -23.274  0.00  0.00     0.019 A 
ATOM     12  C   UNL d   1      33.241  22.128 -23.308  0.00  0.00     0.002 A 
ENDROOT
BRANCH   6  13
ATOM     13  N   UNL d   1      33.238  20.096 -22.509  0.00  0.00    -0.208 NA
ATOM     14  C   UNL d   1      33.159  19.660 -23.202  0.00  0.00     0.279 C 
ATOM     15  O   UNL d   1      33.081  20.038 -23.929  0.00  0.00    -0.265 OA
BRANCH  14  16
ATOM     16  C   UNL d   1      33.159  18.835 -23.169  0.00  0.00     0.062 C 
BRANCH  16  17
ATOM     17  C   UNL d   1      32.772  18.399 -23.753  0.00  0.00     0.005 C 
BRANCH  17  18
ATOM     18  C   UNL d   1      32.635  17.593 -23.642  0.00  0.00     0.000 A 
ATOM     19  C   UNL d   1      33.240  17.110 -23.333  0.00  0.00     0.000 A 
ATOM     20  C   UNL d   1      33.104  16.304 -23.223  0.00  0.00     0.000 A 
ATOM     21  C   UNL d   1      32.362  15.981 -23.421  0.00  0.00     0.000 A 
ATOM     22  C   UNL d   1      31.777  16.461 -23.722  0.00  0.00     0.000 A 
ATOM     23  C   UNL d   1      31.914  17.267 -23.832  0.00  0.00     0.000 A 
ENDBRANCH  17  18
ENDBRANCH  16  17
ENDBRANCH  14  16
ENDBRANCH   6  13
TORSDOF 4
ENDMDL
MODEL 2
REMARK VINA RESULT:      -2.7      1.291      2.044
REMARK  4 active torsions:
REMARK  status: ('A' for Active; 'I' for Inactive)
REMARK    1  A    between atoms: N_7  and  C_6 
REMARK       I    between atoms: C_8  and  N_7 
REMARK    2  A    between atoms: C_14  and  C_8 
REMARK    3  A    between atoms: C_16  and  C_14 
REMARK    4  A    between atoms: C_17  and  C_16 
ROOT
ATOM      1  C   UNL d   1      32.207  22.342 -21.573  0.00  0.00     0.269 A 
ATOM      2  N   UNL d   1      32.011  23.038 -21.155  0.00  0.00    -0.239 N 
ATOM      3  C   UNL d   1      32.570  21.834 -21.032  0.00  0.00     0.079 A 
ATOM      4  C   UNL d   1      32.250  22.950 -20.387  0.00  0.00     0.267 A 
ATOM      5  C   UNL d   1      32.597  22.210 -20.298  0.00  0.00     0.063 A 
ATOM      6  C   UNL d   1      32.877  21.077 -21.120  0.00  0.00     0.089 A 
ATOM      7  O   UNL d   1      32.067  22.187 -22.369  0.00  0.00    -0.267 OA
ATOM      8  O   UNL d   1      32.158  23.522 -19.779  0.00  0.00    -0.267 OA
ATOM      9  C   UNL d   1      31.638  23.701 -21.475  0.00  0.00     0.105 C 
ATOM     10  C   UNL d   1      32.931  21.829 -19.652  0.00  0.00     0.005 A 
ATOM     11  C   UNL d   1      33.214  20.693 -20.472  0.00  0.00     0.019 A 
ATOM     12  C   UNL d   1      33.241  21.069 -19.738  0.00  0.00     0.002 A 
ENDROOT
BRANCH   6  13
ATOM     13  N   UNL d   1      32.851  20.702 -21.854  0.00  0.00    -0.208 NA
ATOM     14  C   UNL d   1      33.033  19.901 -21.909  0.00  0.00     0.279 C 
ATOM     15  O   UNL d   1      33.241  19.471 -21.239  0.00  0.00    -0.265 OA
BRANCH  14  16
ATOM     16  C   UNL d   1      33.006  19.525 -22.643  0.00  0.00     0.062 C 
BRANCH  16  17
ATOM     17  C   UNL d   1      32.809  18.725 -22.690  0.00  0.00     0.005 C 
BRANCH  17  18
ATOM     18  C   UNL d   1      32.872  18.326 -23.409  0.00  0.00     0.000 A 
ATOM     19  C   UNL d   1      32.785  18.748 -24.124  0.00  0.00     0.000 A 
ATOM     20  C   UNL d   1      32.848  18.349 -24.843  0.00  0.00     0.000 A 
ATOM     21  C   UNL d   1      32.997  17.530 -24.849  0.00  0.00     0.000 A 
ATOM     22  C   UNL d   1      33.080  17.127 -24.146  0.00  0.00     0.000 A 
ATOM     23  C   UNL d   1      33.018  17.525 -23.427  0.00  0.00     0.000 A 
ENDBRANCH  17  18
ENDBRANCH  16  17
ENDBRANCH  14  16
ENDBRANCH   6  13
TORSDOF 4
ENDMDL
MODEL 3
REMARK VINA RESULT:      -2.4      1.468      5.222
REMARK  4 active torsions:
REMARK  status: ('A' for Active; 'I' for Inactive)
REMARK    1  A    between atoms: N_7  and  C_6 
REMARK       I    between atoms: C_8  and  N_7 
REMARK    2  A    between atoms: C_14  and  C_8 
REMARK    3  A    between atoms: C_16  and  C_14 
REMARK    4  A    between atoms: C_17  and  C_16 
ROOT
ATOM      1  C   UNL d   1      33.108  20.267 -21.718  0.00  0.00     0.269 A 
ATOM      2  N   UNL d   1      33.051  19.693 -22.322  0.00  0.00    -0.239 N 
ATOM      3  C   UNL d   1      33.148  21.003 -22.092  0.00  0.00     0.079 A 
ATOM      4  C   UNL d   1      33.057  20.074 -23.037  0.00  0.00     0.267 A 
ATOM      5  C   UNL d   1      33.117  20.883 -22.908  0.00  0.00     0.063 A 
ATOM      6  C   UNL d   1      33.210  21.763 -21.788  0.00  0.00     0.089 A 
ATOM      7  O   UNL d   1      33.121  20.131 -20.906  0.00  0.00    -0.267 OA
ATOM      8  O   UNL d   1      33.010  19.701 -23.787  0.00  0.00    -0.267 OA
ATOM      9  C   UNL d   1      32.998  18.878 -22.206  0.00  0.00     0.105 C 
ATOM     10  C   UNL d   1      33.147  21.525 -23.419  0.00  0.00     0.005 A 
ATOM     11  C   UNL d   1      33.240  22.409 -22.301  0.00  0.00     0.019 A 
ATOM     12  C   UNL d   1      33.209  22.290 -23.117  0.00  0.00     0.002 A 
ENDROOT
BRANCH   6  13
ATOM     13  N   UNL d   1      33.241  21.883 -20.972  0.00  0.00    -0.208 NA
ATOM     14  C   UNL d   1      33.139  22.640 -20.666  0.00  0.00     0.279 C 
ATOM     15  O   UNL d   1      33.007  23.280 -21.167  0.00  0.00    -0.265 OA
BRANCH  14  16
ATOM     16  C   UNL d   1      33.171  22.759 -19.851  0.00  0.00     0.062 C 
BRANCH  16  17
ATOM     17  C   UNL d   1      32.498  23.014 -19.445  0.00  0.00     0.005 C 
BRANCH  17  18
ATOM     18  C   UNL d   1      32.530  23.135 -18.630  0.00  0.00     0.000 A 
ATOM     19  C   UNL d   1      31.935  23.582 -18.255  0.00  0.00     0.000 A 
ATOM     20  C   UNL d   1      31.967  23.702 -17.440  0.00  0.00     0.000 A 
ATOM     21  C   UNL d   1      32.593  23.376 -16.999  0.00  0.00     0.000 A 
ATOM     22  C   UNL d   1      33.170  22.940 -17.374  0.00  0.00     0.000 A 
ATOM     23  C   UNL d   1      33.138  22.820 -18.189  0.00  0.00     0.000 A 
ENDBRANCH  17  18
ENDBRANCH  16  17
ENDBRANCH  14  16
ENDBRANCH   6  13
TORSDOF 4
ENDMDL
MODEL 4
REMARK VINA RESULT:      -1.6      0.952      1.442
REMARK  4 active torsions:
REMARK  status: ('A' for Active; 'I' for Inactive)
REMARK    1  A    between atoms: N_7  and  C_6 
REMARK       I    between atoms: C_8  and  N_7 
REMARK    2  A    between atoms: C_14  and  C_8 
REMARK    3  A    between atoms: C_16  and  C_14 
REMARK    4  A    between atoms: C_17  and  C_16 
ROOT
ATOM      1  C   UNL d   1      33.124  21.583 -20.109  0.00  0.00     0.269 A 
ATOM      2  N   UNL d   1      33.116  22.128 -19.476  0.00  0.00    -0.239 N 
ATOM      3  C   UNL d   1      33.063  22.027 -20.804  0.00  0.00     0.079 A 
ATOM      4  C   UNL d   1      33.053  22.874 -19.781  0.00  0.00     0.267 A 
ATOM      5  C   UNL d   1      33.020  22.825 -20.601  0.00  0.00     0.063 A 
ATOM      6  C   UNL d   1      33.043  21.799 -21.593  0.00  0.00     0.089 A 
ATOM      7  O   UNL d   1      33.180  20.764 -20.057  0.00  0.00    -0.267 OA
ATOM      8  O   UNL d   1      33.027  23.583 -19.333  0.00  0.00    -0.267 OA
ATOM      9  C   UNL d   1      33.165  21.932 -18.675  0.00  0.00     0.105 C 
ATOM     10  C   UNL d   1      32.956  23.396 -21.187  0.00  0.00     0.005 A 
ATOM     11  C   UNL d   1      32.979  22.373 -22.184  0.00  0.00     0.019 A 
ATOM     12  C   UNL d   1      32.935  23.171 -21.981  0.00  0.00     0.002 A 
ENDROOT
BRANCH   6  13
ATOM     13  N   UNL d   1      33.086  21.001 -21.796  0.00  0.00    -0.208 NA
ATOM     14  C   UNL d   1      32.961  20.771 -22.576  0.00  0.00     0.279 C 
ATOM     15  O   UNL d   1      32.792  21.330 -23.156  0.00  0.00    -0.265 OA
BRANCH  14  16
ATOM     16  C   UNL d   1      33.004  19.972 -22.779  0.00  0.00     0.062 C 
BRANCH  16  17
ATOM     17  C   UNL d   1      32.470  19.656 -23.323  0.00  0.00     0.005 C 
BRANCH  17  18
ATOM     18  C   UNL d   1      32.578  18.889 -23.607  0.00  0.00     0.000 A 
ATOM     19  C   UNL d   1      32.850  18.772 -24.386  0.00  0.00     0.000 A 
ATOM     20  C   UNL d   1      32.958  18.005 -24.670  0.00  0.00     0.000 A 
ATOM     21  C   UNL d   1      32.794  17.355 -24.176  0.00  0.00     0.000 A 
ATOM     22  C   UNL d   1      32.528  17.479 -23.417  0.00  0.00     0.000 A 
ATOM     23  C   UNL d   1      32.420  18.246 -23.132  0.00  0.00     0.000 A 
ENDBRANCH  17  18
ENDBRANCH  16  17
ENDBRANCH  14  16
ENDBRANCH   6  13
TORSDOF 4
ENDMDL
MODEL 5
REMARK VINA RESULT:      -1.4      2.993      5.711
REMARK  4 active torsions:
REMARK  status: ('A' for Active; 'I' for Inactive)
REMARK    1  A    between atoms: N_7  and  C_6 
REMARK       I    between atoms: C_8  and  N_7 
REMARK    2  A    between atoms: C_14  and  C_8 
REMARK    3  A    between atoms: C_16  and  C_14 
REMARK    4  A    between atoms: C_17  and  C_16 
ROOT
ATOM      1  C   UNL d   1      29.062  17.347 -23.753  0.00  0.00     0.269 A 
ATOM      2  N   UNL d   1      28.313  17.010 -23.598  0.00  0.00    -0.239 N 
ATOM      3  C   UNL d   1      29.497  16.780 -24.167  0.00  0.00     0.079 A 
ATOM      4  C   UNL d   1      28.301  16.263 -23.910  0.00  0.00     0.267 A 
ATOM      5  C   UNL d   1      29.027  16.109 -24.264  0.00  0.00     0.063 A 
ATOM      6  C   UNL d   1      30.262  16.794 -24.465  0.00  0.00     0.089 A 
ATOM      7  O   UNL d   1      29.320  18.098 -23.538  0.00  0.00    -0.267 OA
ATOM      8  O   UNL d   1      27.651  15.732 -23.876  0.00  0.00    -0.267 OA
ATOM      9  C   UNL d   1      27.695  17.379 -23.196  0.00  0.00     0.105 C 
ATOM     10  C   UNL d   1      29.321  15.453 -24.659  0.00  0.00     0.005 A 
ATOM     11  C   UNL d   1      30.560  16.135 -24.863  0.00  0.00     0.019 A 
ATOM     12  C   UNL d   1      30.090  15.464 -24.960  0.00  0.00     0.002 A 
ENDROOT
BRANCH   6  13
ATOM     13  N   UNL d   1      30.733  17.465 -24.368  0.00  0.00    -0.208 NA
ATOM     14  C   UNL d   1      31.552  17.389 -24.353  0.00  0.00     0.279 C 
ATOM     15  O   UNL d   1      31.907  16.651 -24.434  0.00  0.00    -0.265 OA
BRANCH  14  16
ATOM     16  C   UNL d   1      32.023  18.060 -24.256  0.00  0.00     0.062 C 
BRANCH  16  17
ATOM     17  C   UNL d   1      32.600  18.077 -23.665  0.00  0.00     0.005 C 
BRANCH  17  18
ATOM     18  C   UNL d   1      32.804  18.793 -23.310  0.00  0.00     0.000 A 
ATOM     19  C   UNL d   1      33.035  19.438 -23.784  0.00  0.00     0.000 A 
ATOM     20  C   UNL d   1      33.240  20.154 -23.429  0.00  0.00     0.000 A 
ATOM     21  C   UNL d   1      33.214  20.225 -22.599  0.00  0.00     0.000 A 
ATOM     22  C   UNL d   1      32.987  19.589 -22.145  0.00  0.00     0.000 A 
ATOM     23  C   UNL d   1      32.782  18.873 -22.500  0.00  0.00     0.000 A 
ENDBRANCH  17  18
ENDBRANCH  16  17
ENDBRANCH  14  16
ENDBRANCH   6  13
TORSDOF 4
ENDMDL
