MODEL 1
REMARK VINA RESULT:      -3.7      0.000      0.000
REMARK  6 active torsions:
REMARK  status: ('A' for Active; 'I' for Inactive)
REMARK    1  A    between atoms: C_10  and  N_1 
REMARK    2  A    between atoms: S_14  and  C_6 
REMARK       I    between atoms: N_7  and  C_11 
REMARK    3  A    between atoms: C_22  and  N_9 
REMARK    4  A    between atoms: C_13  and  C_10 
REMARK    5  A    between atoms: C_11  and  C_16 
REMARK    6  A    between atoms: C_16  and  S_14 
ROOT
ATOM      1  N   UNL d   1      30.847  16.539 -24.048  0.00  0.00    -0.192 N 
ATOM      2  N   UNL d   1      30.542  17.261 -24.281  0.00  0.00    -0.058 NA
ATOM      3  C   UNL d   1      31.639  16.651 -23.865  0.00  0.00     0.189 A 
ATOM      4  C   UNL d   1      31.813  17.448 -23.988  0.00  0.00     0.164 A 
ATOM      5  N   UNL d   1      31.125  17.814 -24.246  0.00  0.00    -0.125 NA
ATOM      6  C   UNL d   1      32.564  17.733 -23.852  0.00  0.00     0.135 A 
ATOM      7  N   UNL d   1      32.216  16.139 -23.605  0.00  0.00    -0.203 NA
ATOM      8  N   UNL d   1      33.155  17.217 -23.588  0.00  0.00    -0.216 NA
ATOM      9  C   UNL d   1      32.981  16.420 -23.465  0.00  0.00     0.201 A 
ENDROOT
BRANCH   6  10
ATOM     10  S   UNL d   1      32.737  18.530 -23.975  0.00  0.00    -0.061 SA
BRANCH  10  11
ATOM     11  C   UNL d   1      32.872  19.025 -23.343  0.00  0.00     0.098 C 
BRANCH  11  12
ATOM     12  C   UNL d   1      33.057  19.818 -23.476  0.00  0.00     0.272 C 
ATOM     13  N   UNL d   1      33.057  20.345 -22.838  0.00  0.00    -0.269 N 
ATOM     14  C   UNL d   1      32.872  20.079 -22.076  0.00  0.00     0.102 A 
ATOM     15  C   UNL d   1      33.240  21.141 -22.954  0.00  0.00     0.102 A 
ATOM     16  C   UNL d   1      32.871  20.606 -21.438  0.00  0.00     0.100 A 
ATOM     17  N   UNL d   1      33.056  21.401 -21.562  0.00  0.00    -0.301 N 
ATOM     18  C   UNL d   1      33.241  21.668 -22.324  0.00  0.00     0.100 A 
ATOM     19  O   UNL d   1      33.241  20.085 -24.229  0.00  0.00    -0.266 OA
BRANCH  17  20
ATOM     20  C   UNL d   1      33.056  21.929 -20.925  0.00  0.00     0.064 A 
ATOM     21  C   UNL d   1      32.932  22.734 -21.058  0.00  0.00     0.018 A 
ATOM     22  C   UNL d   1      32.934  23.254 -20.419  0.00  0.00     0.002 A 
ATOM     23  C   UNL d   1      33.054  22.982 -19.666  0.00  0.00     0.000 A 
ATOM     24  C   UNL d   1      33.177  22.177 -19.533  0.00  0.00     0.002 A 
ATOM     25  C   UNL d   1      33.177  21.649 -20.171  0.00  0.00     0.018 A 
ENDBRANCH  17  20
ENDBRANCH  11  12
ENDBRANCH  10  11
ENDBRANCH   6  10
BRANCH   1  26
ATOM     26  C   UNL d   1      30.422  15.818 -24.007  0.00  0.00     0.106 C 
BRANCH  26  27
ATOM     27  C   UNL d   1      29.625  15.811 -23.767  0.00  0.00     0.047 A 
ATOM     28  C   UNL d   1      29.032  15.636 -24.313  0.00  0.00     0.142 A 
ATOM     29  F   UNL d   1      29.214  15.467 -25.096  0.00  0.00    -0.204 F 
ATOM     30  C   UNL d   1      28.250  15.628 -24.083  0.00  0.00     0.030 A 
ATOM     31  C   UNL d   1      28.053  15.797 -23.297  0.00  0.00     0.002 A 
ATOM     32  C   UNL d   1      28.646  15.975 -22.743  0.00  0.00     0.000 A 
ATOM     33  C   UNL d   1      29.418  15.978 -22.989  0.00  0.00     0.004 A 
ENDBRANCH  26  27
ENDBRANCH   1  26
TORSDOF 6
ENDMDL
