MODEL 1
REMARK VINA RESULT:      -2.0      0.000      0.000
REMARK  4 active torsions:
REMARK  status: ('A' for Active; 'I' for Inactive)
REMARK    1  A    between atoms: N_7  and  C_1 
REMARK    2  A    between atoms: C_9  and  N_3 
REMARK       I    between atoms: C_11  and  N_7 
REMARK    3  A    between atoms: C_15  and  C_11 
REMARK    4  A    between atoms: C_17  and  C_15 
ROOT
ATOM      1  C   UNL d   1      57.923  -0.672  30.334  0.00  0.00     0.169 A 
ATOM      2  C   UNL d   1      57.447  -0.689  31.016  0.00  0.00     0.065 A 
ATOM      3  N   UNL d   1      58.412  -0.005  30.372  0.00  0.00    -0.212 N 
ATOM      4  N   UNL d   1      58.239   0.392  31.079  0.00  0.00    -0.163 NA
ATOM      5  C   UNL d   1      57.645  -0.030  31.474  0.00  0.00     0.114 A 
ATOM      6  S   UNL d   1      56.686  -0.704  32.119  0.00  0.00     0.091 S 
ATOM      7  C   UNL d   1      57.175  -0.037  32.158  0.00  0.00     0.090 A 
ATOM      8  C   UNL d   1      56.857  -1.105  31.412  0.00  0.00     0.073 A 
ATOM      9  O   UNL d   1      56.124  -0.933  32.685  0.00  0.00    -0.247 OA
ENDROOT
BRANCH   1  10
ATOM     10  N   UNL d   1      57.907  -1.231  29.721  0.00  0.00    -0.189 NA
ATOM     11  C   UNL d   1      58.141  -2.005  29.858  0.00  0.00     0.281 C 
ATOM     12  O   UNL d   1      58.399  -2.237  30.619  0.00  0.00    -0.265 OA
BRANCH  11  13
ATOM     13  C   UNL d   1      58.125  -2.564  29.250  0.00  0.00     0.063 C 
BRANCH  13  14
ATOM     14  C   UNL d   1      58.796  -3.015  29.101  0.00  0.00     0.005 A 
ATOM     15  C   UNL d   1      58.743  -3.671  28.607  0.00  0.00     0.003 A 
ATOM     16  C   UNL d   1      59.415  -4.125  28.455  0.00  0.00     0.030 A 
ATOM     17  C   UNL d   1      60.141  -3.923  28.800  0.00  0.00     0.140 A 
ATOM     18  C   UNL d   1      60.186  -3.267  29.293  0.00  0.00     0.030 A 
ATOM     19  F   UNL d   1      60.814  -4.377  28.650  0.00  0.00    -0.204 F 
ATOM     20  C   UNL d   1      59.516  -2.812  29.446  0.00  0.00     0.003 A 
ENDBRANCH  13  14
ENDBRANCH  11  13
ENDBRANCH   1  10
BRANCH   3  21
ATOM     21  C   UNL d   1      58.972   0.226  29.810  0.00  0.00     0.085 A 
ATOM     22  C   UNL d   1      59.766   0.281  30.029  0.00  0.00     0.031 A 
ATOM     23  C   UNL d   1      60.311   0.508  29.470  0.00  0.00     0.059 A 
ATOM     24 CL   UNL d   1      61.102   0.567  29.676  0.00  0.00    -0.082 Cl
ATOM     25  C   UNL d   1      60.078   0.682  28.698  0.00  0.00     0.011 A 
ATOM     26  C   UNL d   1      59.292   0.626  28.483  0.00  0.00     0.002 A 
ATOM     27  C   UNL d   1      58.732   0.396  29.044  0.00  0.00     0.019 A 
ENDBRANCH   3  21
TORSDOF 4
ENDMDL
