MODEL 1
REMARK VINA RESULT:       8.0      0.000      0.000
REMARK  5 active torsions:
REMARK  status: ('A' for Active; 'I' for Inactive)
REMARK    1  A    between atoms: C_9  and  N_2 
REMARK    2  A    between atoms: C_7  and  O_10 
REMARK    3  A    between atoms: C_11  and  C_9 
REMARK    4  A    between atoms: O_10  and  C_14 
REMARK    5  A    between atoms: C_14  and  C_11 
ROOT
ATOM      1  C   UNL d   1      46.538 -17.854  44.275  0.00  0.00     0.086 C 
ENDROOT
BRANCH   1   2
ATOM      2  N   UNL d   1      46.426 -18.545  43.843  0.00  0.00    -0.268 N 
ATOM      3  C   UNL d   1      46.248 -19.285  44.158  0.00  0.00     0.296 A 
ATOM      4  S   UNL d   1      46.185 -19.821  43.523  0.00  0.00    -0.025 SA
ATOM      5  O   UNL d   1      46.148 -19.472  44.954  0.00  0.00    -0.259 OA
ATOM      6  C   UNL d   1      46.326 -19.399  42.828  0.00  0.00     0.050 A 
ATOM      7  C   UNL d   1      46.337 -19.636  42.026  0.00  0.00     0.008 A 
ATOM      8  C   UNL d   1      46.474 -18.617  43.020  0.00  0.00     0.073 A 
ATOM      9  C   UNL d   1      46.498 -19.082  41.440  0.00  0.00     0.001 A 
ATOM     10  C   UNL d   1      46.647 -18.294  41.644  0.00  0.00     0.002 A 
ATOM     11  C   UNL d   1      46.635 -18.058  42.434  0.00  0.00     0.018 A 
ENDBRANCH   1   2
BRANCH   1  12
ATOM     12  C   UNL d   1      45.928 -17.294  44.332  0.00  0.00     0.046 C 
BRANCH  12  13
ATOM     13  C   UNL d   1      45.911 -16.755  44.955  0.00  0.00     0.124 C 
BRANCH  13  14
ATOM     14  O   UNL d   1      45.789 -15.960  44.807  0.00  0.00    -0.305 OA
BRANCH  14  15
ATOM     15  C   UNL d   1      45.668 -15.155  44.660  0.00  0.00     0.100 A 
ATOM     16  C   UNL d   1      44.909 -14.838  44.700  0.00  0.00     0.023 A 
ATOM     17  C   UNL d   1      44.271 -15.328  44.887  0.00  0.00     0.002 C 
ATOM     18  C   UNL d   1      44.791 -14.042  44.554  0.00  0.00     0.002 A 
ATOM     19  C   UNL d   1      45.431 -13.557  44.367  0.00  0.00     0.000 A 
ATOM     20  C   UNL d   1      46.191 -13.877  44.328  0.00  0.00     0.002 A 
ATOM     21  C   UNL d   1      46.303 -14.685  44.477  0.00  0.00     0.025 A 
ENDBRANCH  14  15
ENDBRANCH  13  14
ENDBRANCH  12  13
ENDBRANCH   1  12
TORSDOF 5
ENDMDL
