MODEL 1
REMARK VINA RESULT:      15.7      0.000      0.000
REMARK  4 active torsions:
REMARK  status: ('A' for Active; 'I' for Inactive)
REMARK    1  A    between atoms: C_7  and  C_4 
REMARK    2  A    between atoms: C_11  and  C_7 
REMARK    3  A    between atoms: C_9  and  O_16 
REMARK    4  A    between atoms: O_16  and  C_11 
ROOT
ATOM      1  C   UNL d   1     -56.064 -99.277 -44.024  0.00  0.00     0.124 C 
ENDROOT
BRANCH   1   2
ATOM      2  C   UNL d   1     -55.332 -99.544 -44.318  0.00  0.00     0.046 C 
BRANCH   2   3
ATOM      3  C   UNL d   1     -55.136-100.344 -44.268  0.00  0.00     0.092 A 
ATOM      4  N   UNL d   1     -55.224-100.895 -44.872  0.00  0.00    -0.219 NA
ATOM      5  C   UNL d   1     -54.960-101.622 -44.583  0.00  0.00     0.215 A 
ATOM      6  S   UNL d   1     -54.714-101.515 -43.809  0.00  0.00    -0.045 SA
ATOM      7  N   UNL d   1     -54.947-102.333 -45.001  0.00  0.00    -0.120 N 
ATOM      8  C   UNL d   1     -54.821-100.725 -43.609  0.00  0.00     0.058 A 
ENDBRANCH   2   3
ENDBRANCH   1   2
BRANCH   1   9
ATOM      9  O   UNL d   1     -56.514 -98.760 -44.474  0.00  0.00    -0.305 OA
BRANCH   9  10
ATOM     10  C   UNL d   1     -57.338 -98.762 -44.398  0.00  0.00     0.100 A 
ATOM     11  C   UNL d   1     -57.678 -98.756 -43.653  0.00  0.00     0.027 A 
ATOM     12  C   UNL d   1     -58.502 -98.758 -43.577  0.00  0.00     0.032 A 
ATOM     13  C   UNL d   1     -58.982 -98.767 -44.247  0.00  0.00     0.140 A 
ATOM     14  C   UNL d   1     -58.642 -98.773 -44.999  0.00  0.00     0.032 A 
ATOM     15  F   UNL d   1     -59.807 -98.769 -44.165  0.00  0.00    -0.204 F 
ATOM     16  C   UNL d   1     -57.824 -98.771 -45.076  0.00  0.00     0.027 A 
ENDBRANCH   9  10
ENDBRANCH   1   9
TORSDOF 4
ENDMDL
