MODEL 1
REMARK VINA RESULT:      -8.2      0.000      0.000
REMARK  7 active torsions:
REMARK  status: ('A' for Active; 'I' for Inactive)
REMARK    1  A    between atoms: C_6  and  N_1 
REMARK    2  A    between atoms: C_7  and  C_2 
REMARK    3  A    between atoms: C_11  and  C_6 
REMARK    4  A    between atoms: N_8  and  C_12 
REMARK    5  A    between atoms: C_9  and  N_8 
REMARK    6  A    between atoms: C_17  and  C_9 
REMARK    7  A    between atoms: C_12  and  C_11 
ROOT
ATOM      1  N   UNL d   1      53.571  33.101  53.984  0.00  0.00    -0.301 N 
ATOM      2  C   UNL d   1      54.177  33.850  54.906  0.00  0.00     0.061 A 
ATOM      3  C   UNL d   1      54.160  33.104  54.565  0.00  0.00     0.084 A 
ATOM      4  C   UNL d   1      53.226  33.856  53.972  0.00  0.00     0.064 A 
ATOM      5  C   UNL d   1      53.604  34.322  54.546  0.00  0.00     0.021 A 
ATOM      6  C   UNL d   1      52.618  34.180  53.514  0.00  0.00     0.018 A 
ATOM      7  C   UNL d   1      53.376  35.100  54.659  0.00  0.00     0.002 A 
ATOM      8  C   UNL d   1      52.771  35.422  54.204  0.00  0.00     0.000 A 
ATOM      9  C   UNL d   1      52.398  34.962  53.636  0.00  0.00     0.002 A 
ENDROOT
BRANCH   1  10
ATOM     10  C   UNL d   1      53.359  32.468  53.501  0.00  0.00     0.124 C 
BRANCH  10  11
ATOM     11  C   UNL d   1      53.824  31.787  53.487  0.00  0.00     0.232 C 
ATOM     12  O   UNL d   1      54.579  31.811  53.138  0.00  0.00    -0.283 OA
BRANCH  11  13
ATOM     13  C   UNL d   1      53.546  31.078  53.818  0.00  0.00     0.137 C 
BRANCH  13  14
ATOM     14  N   UNL d   1      53.329  30.450  53.334  0.00  0.00    -0.262 NA
BRANCH  14  15
ATOM     15  C   UNL d   1      53.075  29.740  53.664  0.00  0.00     0.143 C 
ATOM     16  C   UNL d   1      52.541  29.258  53.260  0.00  0.00     0.032 C 
ATOM     17  C   UNL d   1      52.681  29.781  52.937  0.00  0.00     0.032 C 
BRANCH  15  18
ATOM     18  C   UNL d   1      53.359  29.506  54.410  0.00  0.00     0.229 C 
ATOM     19  O   UNL d   1      53.287  28.718  54.648  0.00  0.00    -0.286 OA
ENDBRANCH  15  18
ENDBRANCH  14  15
ENDBRANCH  13  14
ENDBRANCH  11  13
ENDBRANCH  10  11
ENDBRANCH   1  10
BRANCH   2  20
ATOM     20  C   UNL d   1      54.717  34.011  55.507  0.00  0.00     0.236 C 
ATOM     21  O   UNL d   1      55.529  33.971  55.363  0.00  0.00    -0.283 OA
ENDBRANCH   2  20
TORSDOF 7
ENDMDL
MODEL 2
REMARK VINA RESULT:      -7.6      2.649      4.414
REMARK  7 active torsions:
REMARK  status: ('A' for Active; 'I' for Inactive)
REMARK    1  A    between atoms: C_6  and  N_1 
REMARK    2  A    between atoms: C_7  and  C_2 
REMARK    3  A    between atoms: C_11  and  C_6 
REMARK    4  A    between atoms: N_8  and  C_12 
REMARK    5  A    between atoms: C_9  and  N_8 
REMARK    6  A    between atoms: C_17  and  C_9 
REMARK    7  A    between atoms: C_12  and  C_11 
ROOT
ATOM      1  N   UNL d   1      52.397  33.334  53.419  0.00  0.00    -0.301 N 
ATOM      2  C   UNL d   1      53.071  32.187  53.323  0.00  0.00     0.061 A 
ATOM      3  C   UNL d   1      52.408  32.590  53.056  0.00  0.00     0.084 A 
ATOM      4  C   UNL d   1      53.063  33.382  53.912  0.00  0.00     0.064 A 
ATOM      5  C   UNL d   1      53.482  32.669  53.851  0.00  0.00     0.021 A 
ATOM      6  C   UNL d   1      53.342  33.983  54.407  0.00  0.00     0.018 A 
ATOM      7  C   UNL d   1      54.170  32.559  54.281  0.00  0.00     0.002 A 
ATOM      8  C   UNL d   1      54.448  33.156  54.773  0.00  0.00     0.000 A 
ATOM      9  C   UNL d   1      54.034  33.862  54.833  0.00  0.00     0.002 A 
ENDROOT
BRANCH   1  10
ATOM     10  C   UNL d   1      51.831  33.924  53.315  0.00  0.00     0.124 C 
BRANCH  10  11
ATOM     11  C   UNL d   1      51.041  33.720  53.195  0.00  0.00     0.232 C 
ATOM     12  O   UNL d   1      50.689  33.139  53.675  0.00  0.00    -0.283 OA
BRANCH  11  13
ATOM     13  C   UNL d   1      50.594  34.090  52.600  0.00  0.00     0.137 C 
BRANCH  13  14
ATOM     14  N   UNL d   1      49.904  34.495  52.789  0.00  0.00    -0.262 NA
BRANCH  14  15
ATOM     15  C   UNL d   1      49.396  34.748  52.194  0.00  0.00     0.143 C 
ATOM     16  C   UNL d   1      48.802  35.298  52.357  0.00  0.00     0.032 C 
ATOM     17  C   UNL d   1      49.144  35.159  52.868  0.00  0.00     0.032 C 
BRANCH  15  18
ATOM     18  C   UNL d   1      49.480  34.450  51.423  0.00  0.00     0.229 C 
ATOM     19  O   UNL d   1      48.868  34.545  50.876  0.00  0.00    -0.286 OA
ENDBRANCH  15  18
ENDBRANCH  14  15
ENDBRANCH  13  14
ENDBRANCH  11  13
ENDBRANCH  10  11
ENDBRANCH   1  10
BRANCH   2  20
ATOM     20  C   UNL d   1      53.222  31.425  53.049  0.00  0.00     0.236 C 
ATOM     21  O   UNL d   1      52.848  31.142  52.369  0.00  0.00    -0.283 OA
ENDBRANCH   2  20
TORSDOF 7
ENDMDL
MODEL 3
REMARK VINA RESULT:      -7.4      2.746      4.326
REMARK  7 active torsions:
REMARK  status: ('A' for Active; 'I' for Inactive)
REMARK    1  A    between atoms: C_6  and  N_1 
REMARK    2  A    between atoms: C_7  and  C_2 
REMARK    3  A    between atoms: C_11  and  C_6 
REMARK    4  A    between atoms: N_8  and  C_12 
REMARK    5  A    between atoms: C_9  and  N_8 
REMARK    6  A    between atoms: C_17  and  C_9 
REMARK    7  A    between atoms: C_12  and  C_11 
ROOT
ATOM      1  N   UNL d   1      52.263  33.355  53.482  0.00  0.00    -0.301 N 
ATOM      2  C   UNL d   1      53.264  33.706  54.291  0.00  0.00     0.061 A 
ATOM      3  C   UNL d   1      52.557  33.963  53.962  0.00  0.00     0.084 A 
ATOM      4  C   UNL d   1      52.800  32.723  53.521  0.00  0.00     0.064 A 
ATOM      5  C   UNL d   1      53.422  32.942  54.024  0.00  0.00     0.021 A 
ATOM      6  C   UNL d   1      52.802  31.977  53.164  0.00  0.00     0.018 A 
ATOM      7  C   UNL d   1      54.037  32.421  54.167  0.00  0.00     0.002 A 
ATOM      8  C   UNL d   1      54.040  31.680  53.813  0.00  0.00     0.000 A 
ATOM      9  C   UNL d   1      53.425  31.462  53.315  0.00  0.00     0.002 A 
ENDROOT
BRANCH   1  10
ATOM     10  C   UNL d   1      51.567  33.369  53.042  0.00  0.00     0.124 C 
BRANCH  10  11
ATOM     11  C   UNL d   1      51.322  34.068  52.680  0.00  0.00     0.232 C 
ATOM     12  O   UNL d   1      51.838  34.467  52.164  0.00  0.00    -0.283 OA
BRANCH  11  13
ATOM     13  C   UNL d   1      50.564  34.378  52.827  0.00  0.00     0.137 C 
BRANCH  13  14
ATOM     14  N   UNL d   1      50.023  34.461  52.213  0.00  0.00    -0.262 NA
BRANCH  14  15
ATOM     15  C   UNL d   1      49.308  34.847  52.341  0.00  0.00     0.143 C 
ATOM     16  C   UNL d   1      48.719  34.838  51.763  0.00  0.00     0.032 C 
ATOM     17  C   UNL d   1      49.232  34.519  51.584  0.00  0.00     0.032 C 
BRANCH  15  18
ATOM     18  C   UNL d   1      49.177  35.250  53.056  0.00  0.00     0.229 C 
ATOM     19  O   UNL d   1      48.464  35.649  53.178  0.00  0.00    -0.286 OA
ENDBRANCH  15  18
ENDBRANCH  14  15
ENDBRANCH  13  14
ENDBRANCH  11  13
ENDBRANCH  10  11
ENDBRANCH   1  10
BRANCH   2  20
ATOM     20  C   UNL d   1      53.681  34.205  54.797  0.00  0.00     0.236 C 
ATOM     21  O   UNL d   1      53.300  34.830  55.178  0.00  0.00    -0.283 OA
ENDBRANCH   2  20
TORSDOF 7
ENDMDL
MODEL 4
REMARK VINA RESULT:      -5.8      1.315      4.563
REMARK  7 active torsions:
REMARK  status: ('A' for Active; 'I' for Inactive)
REMARK    1  A    between atoms: C_6  and  N_1 
REMARK    2  A    between atoms: C_7  and  C_2 
REMARK    3  A    between atoms: C_11  and  C_6 
REMARK    4  A    between atoms: N_8  and  C_12 
REMARK    5  A    between atoms: C_9  and  N_8 
REMARK    6  A    between atoms: C_17  and  C_9 
REMARK    7  A    between atoms: C_12  and  C_11 
ROOT
ATOM      1  N   UNL d   1      53.454  31.154  54.105  0.00  0.00    -0.301 N 
ATOM      2  C   UNL d   1      53.245  30.224  53.172  0.00  0.00     0.061 A 
ATOM      3  C   UNL d   1      53.354  31.028  53.293  0.00  0.00     0.084 A 
ATOM      4  C   UNL d   1      53.404  30.415  54.481  0.00  0.00     0.064 A 
ATOM      5  C   UNL d   1      53.274  29.837  53.900  0.00  0.00     0.021 A 
ATOM      6  C   UNL d   1      53.460  30.195  55.276  0.00  0.00     0.018 A 
ATOM      7  C   UNL d   1      53.201  29.050  54.113  0.00  0.00     0.002 A 
ATOM      8  C   UNL d   1      53.257  28.830  54.903  0.00  0.00     0.000 A 
ATOM      9  C   UNL d   1      53.385  29.402  55.478  0.00  0.00     0.002 A 
ENDROOT
BRANCH   1  10
ATOM     10  C   UNL d   1      53.580  31.877  54.480  0.00  0.00     0.124 C 
BRANCH  10  11
ATOM     11  C   UNL d   1      53.784  32.541  54.035  0.00  0.00     0.232 C 
ATOM     12  O   UNL d   1      54.547  32.598  53.708  0.00  0.00    -0.283 OA
BRANCH  11  13
ATOM     13  C   UNL d   1      53.235  33.152  53.910  0.00  0.00     0.137 C 
BRANCH  13  14
ATOM     14  N   UNL d   1      53.385  33.910  54.193  0.00  0.00    -0.262 NA
BRANCH  14  15
ATOM     15  C   UNL d   1      52.885  34.532  53.997  0.00  0.00     0.143 C 
ATOM     16  C   UNL d   1      52.965  35.265  54.366  0.00  0.00     0.032 C 
ATOM     17  C   UNL d   1      53.387  34.847  54.575  0.00  0.00     0.032 C 
BRANCH  15  18
ATOM     18  C   UNL d   1      52.294  34.423  53.421  0.00  0.00     0.229 C 
ATOM     19  O   UNL d   1      51.728  35.012  53.298  0.00  0.00    -0.286 OA
ENDBRANCH  15  18
ENDBRANCH  14  15
ENDBRANCH  13  14
ENDBRANCH  11  13
ENDBRANCH  10  11
ENDBRANCH   1  10
BRANCH   2  20
ATOM     20  C   UNL d   1      53.131  29.939  52.407  0.00  0.00     0.236 C 
ATOM     21  O   UNL d   1      52.839  30.434  51.815  0.00  0.00    -0.283 OA
ENDBRANCH   2  20
TORSDOF 7
ENDMDL
