MODEL 1
REMARK VINA RESULT:      -4.0      0.000      0.000
REMARK  3 active torsions:
REMARK  status: ('A' for Active; 'I' for Inactive)
REMARK    1  A    between atoms: C_6  and  C_1 
REMARK    2  A    between atoms: O_19  and  C_9 
REMARK    3  A    between atoms: O_20  and  C_13 
ROOT
ATOM      1  C   UNL d   1     -41.671-122.455 -51.352  0.00  0.00     0.064 A 
ATOM      2  C   UNL d   1     -41.551-123.026 -51.944  0.00  0.00     0.007 A 
ATOM      3  C   UNL d   1     -41.693-121.648 -51.555  0.00  0.00     0.300 A 
ATOM      4  C   UNL d   1     -41.455-122.795 -52.731  0.00  0.00     0.026 A 
ATOM      5  O   UNL d   1     -41.596-121.406 -52.350  0.00  0.00    -0.273 OA
ATOM      6  C   UNL d   1     -41.477-121.987 -52.934  0.00  0.00     0.103 A 
ATOM      7  O   UNL d   1     -41.812-121.077 -50.967  0.00  0.00    -0.259 OA
ATOM      8  C   UNL d   1     -41.335-123.357 -53.325  0.00  0.00     0.044 A 
ATOM      9  C   UNL d   1     -41.382-121.755 -53.715  0.00  0.00     0.028 A 
ATOM     10  C   UNL d   1     -41.241-123.124 -54.097  0.00  0.00     0.196 A 
ATOM     11  C   UNL d   1     -41.529-123.817 -51.745  0.00  0.00     0.000 C 
ATOM     12  C   UNL d   1     -41.264-122.324 -54.298  0.00  0.00     0.044 A 
ATOM     13  O   UNL d   1     -41.123-123.693 -54.686  0.00  0.00    -0.287 OA
ENDROOT
BRANCH   1  14
ATOM     14  C   UNL d   1     -41.766-122.687 -50.568  0.00  0.00     0.007 A 
ATOM     15  C   UNL d   1     -42.514-122.664 -50.223  0.00  0.00     0.026 A 
ATOM     16  C   UNL d   1     -42.617-122.894 -49.444  0.00  0.00     0.116 A 
ATOM     17  C   UNL d   1     -41.970-123.149 -49.001  0.00  0.00     0.116 A 
ATOM     18  C   UNL d   1     -41.213-123.174 -49.345  0.00  0.00     0.026 A 
ATOM     19  C   UNL d   1     -41.123-122.939 -50.134  0.00  0.00     0.002 A 
BRANCH  16  20
ATOM     20  O   UNL d   1     -43.360-122.874 -49.090  0.00  0.00    -0.326 OA
ATOM     21  C   UNL d   1     -43.966-123.343 -49.396  0.00  0.00     0.181 C 
ENDBRANCH  16  20
BRANCH  17  22
ATOM     22  O   UNL d   1     -42.057-123.383 -48.216  0.00  0.00    -0.326 OA
ATOM     23  C   UNL d   1     -41.375-123.513 -47.758  0.00  0.00     0.181 C 
ENDBRANCH  17  22
ENDBRANCH   1  14
TORSDOF 3
ENDMDL
