MODEL 1
REMARK VINA RESULT:      -9.0      0.000      0.000
REMARK  2 active torsions:
REMARK  status: ('A' for Active; 'I' for Inactive)
REMARK    1  A    between atoms: S_2  and  N_1 
REMARK    2  A    between atoms: C_8  and  S_2 
ROOT
ATOM      1  S   UNL d   1      53.154  32.936  53.760  0.00  0.00     0.273 S 
ATOM      2  O   UNL d   1      52.387  32.872  54.046  0.00  0.00    -0.200 OA
ATOM      3  O   UNL d   1      53.925  33.008  53.475  0.00  0.00    -0.200 OA
ENDROOT
BRANCH   1   4
ATOM      4  N   UNL d   1      53.142  33.737  53.956  0.00  0.00    -0.207 N 
ATOM      5  C   UNL d   1      53.421  33.910  54.718  0.00  0.00     0.148 A 
ATOM      6  N   UNL d   1      53.481  34.654  55.084  0.00  0.00    -0.198 NA
ATOM      7  C   UNL d   1      53.286  35.384  54.793  0.00  0.00     0.066 A 
ATOM      8  C   UNL d   1      53.149  34.443  54.176  0.00  0.00     0.169 A 
ATOM      9  C   UNL d   1      52.977  35.577  54.058  0.00  0.00     0.066 A 
ATOM     10  N   UNL d   1      52.787  35.074  53.429  0.00  0.00    -0.198 NA
ATOM     11  C   UNL d   1      52.861  34.258  53.387  0.00  0.00     0.148 A 
ENDBRANCH   1   4
BRANCH   1  12
ATOM     12  C   UNL d   1      53.158  32.133  53.567  0.00  0.00     0.104 A 
ATOM     13  C   UNL d   1      52.609  31.837  53.027  0.00  0.00     0.013 A 
ATOM     14  C   UNL d   1      52.613  31.035  52.834  0.00  0.00     0.001 A 
ATOM     15  C   UNL d   1      53.165  30.529  53.181  0.00  0.00     0.000 A 
ATOM     16  C   UNL d   1      53.714  30.827  53.722  0.00  0.00     0.001 A 
ATOM     17  C   UNL d   1      53.162  29.728  52.983  0.00  0.00     0.000 C 
ATOM     18  C   UNL d   1      53.710  31.629  53.915  0.00  0.00     0.013 A 
ENDBRANCH   1  12
TORSDOF 2
ENDMDL
MODEL 2
REMARK VINA RESULT:      -8.8      1.695      2.844
REMARK  2 active torsions:
REMARK  status: ('A' for Active; 'I' for Inactive)
REMARK    1  A    between atoms: S_2  and  N_1 
REMARK    2  A    between atoms: C_8  and  S_2 
ROOT
ATOM      1  S   UNL d   1      52.617  33.832  53.552  0.00  0.00     0.273 S 
ATOM      2  O   UNL d   1      52.340  33.111  53.832  0.00  0.00    -0.200 OA
ATOM      3  O   UNL d   1      52.904  34.555  53.276  0.00  0.00    -0.200 OA
ENDROOT
BRANCH   1   4
ATOM      4  N   UNL d   1      53.321  33.700  53.963  0.00  0.00    -0.207 N 
ATOM      5  C   UNL d   1      53.416  34.167  54.642  0.00  0.00     0.148 A 
ATOM      6  N   UNL d   1      54.055  34.172  55.174  0.00  0.00    -0.198 NA
ATOM      7  C   UNL d   1      54.732  33.727  55.163  0.00  0.00     0.066 A 
ATOM      8  C   UNL d   1      53.936  33.616  54.364  0.00  0.00     0.169 A 
ATOM      9  C   UNL d   1      54.962  33.156  54.622  0.00  0.00     0.066 A 
ATOM     10  N   UNL d   1      54.560  32.891  53.949  0.00  0.00    -0.198 NA
ATOM     11  C   UNL d   1      53.832  33.134  53.660  0.00  0.00     0.148 A 
ENDBRANCH   1   4
BRANCH   1  12
ATOM     12  C   UNL d   1      51.911  33.956  53.145  0.00  0.00     0.104 A 
ATOM     13  C   UNL d   1      51.189  33.818  53.519  0.00  0.00     0.013 A 
ATOM     14  C   UNL d   1      50.483  33.942  53.111  0.00  0.00     0.001 A 
ATOM     15  C   UNL d   1      50.499  34.205  52.329  0.00  0.00     0.000 A 
ATOM     16  C   UNL d   1      51.222  34.343  51.954  0.00  0.00     0.001 A 
ATOM     17  C   UNL d   1      49.788  34.326  51.928  0.00  0.00     0.000 C 
ATOM     18  C   UNL d   1      51.928  34.219  52.362  0.00  0.00     0.013 A 
ENDBRANCH   1  12
TORSDOF 2
ENDMDL
MODEL 3
REMARK VINA RESULT:      -8.8      1.200      3.717
REMARK  2 active torsions:
REMARK  status: ('A' for Active; 'I' for Inactive)
REMARK    1  A    between atoms: S_2  and  N_1 
REMARK    2  A    between atoms: C_8  and  S_2 
ROOT
ATOM      1  S   UNL d   1      53.151  32.818  53.697  0.00  0.00     0.273 S 
ATOM      2  O   UNL d   1      52.434  32.696  54.077  0.00  0.00    -0.200 OA
ATOM      3  O   UNL d   1      53.873  32.931  53.313  0.00  0.00    -0.200 OA
ENDROOT
BRANCH   1   4
ATOM      4  N   UNL d   1      53.164  32.016  53.503  0.00  0.00    -0.207 N 
ATOM      5  C   UNL d   1      52.687  31.810  52.856  0.00  0.00     0.148 A 
ATOM      6  N   UNL d   1      52.576  31.057  52.521  0.00  0.00    -0.198 NA
ATOM      7  C   UNL d   1      52.901  30.348  52.740  0.00  0.00     0.066 A 
ATOM      8  C   UNL d   1      53.144  31.308  53.293  0.00  0.00     0.169 A 
ATOM      9  C   UNL d   1      53.426  30.190  53.350  0.00  0.00     0.066 A 
ATOM     10  N   UNL d   1      53.755  30.717  53.897  0.00  0.00    -0.198 NA
ATOM     11  C   UNL d   1      53.637  31.526  53.962  0.00  0.00     0.148 A 
ENDBRANCH   1   4
BRANCH   1  12
ATOM     12  C   UNL d   1      53.131  33.618  53.895  0.00  0.00     0.104 A 
ATOM     13  C   UNL d   1      53.415  33.869  54.628  0.00  0.00     0.013 A 
ATOM     14  C   UNL d   1      53.395  34.669  54.827  0.00  0.00     0.001 A 
ATOM     15  C   UNL d   1      53.090  35.219  54.292  0.00  0.00     0.000 A 
ATOM     16  C   UNL d   1      52.805  34.968  53.559  0.00  0.00     0.001 A 
ATOM     17  C   UNL d   1      53.073  36.018  54.498  0.00  0.00     0.000 C 
ATOM     18  C   UNL d   1      52.826  34.167  53.360  0.00  0.00     0.013 A 
ENDBRANCH   1  12
TORSDOF 2
ENDMDL
MODEL 4
REMARK VINA RESULT:      -8.5      1.845      2.927
REMARK  2 active torsions:
REMARK  status: ('A' for Active; 'I' for Inactive)
REMARK    1  A    between atoms: S_2  and  N_1 
REMARK    2  A    between atoms: C_8  and  S_2 
ROOT
ATOM      1  S   UNL d   1      52.395  33.931  53.500  0.00  0.00     0.273 S 
ATOM      2  O   UNL d   1      52.540  34.737  53.455  0.00  0.00    -0.200 OA
ATOM      3  O   UNL d   1      52.242  33.121  53.541  0.00  0.00    -0.200 OA
ENDROOT
BRANCH   1   4
ATOM      4  N   UNL d   1      51.718  34.045  53.042  0.00  0.00    -0.207 N 
ATOM      5  C   UNL d   1      51.012  34.085  53.475  0.00  0.00     0.148 A 
ATOM      6  N   UNL d   1      50.240  34.195  53.186  0.00  0.00    -0.198 NA
ATOM      7  C   UNL d   1      49.990  34.289  52.421  0.00  0.00     0.066 A 
ATOM      8  C   UNL d   1      51.086  34.146  52.673  0.00  0.00     0.169 A 
ATOM      9  C   UNL d   1      50.436  34.299  51.733  0.00  0.00     0.066 A 
ATOM     10  N   UNL d   1      51.254  34.217  51.647  0.00  0.00    -0.198 NA
ATOM     11  C   UNL d   1      51.821  34.104  52.230  0.00  0.00     0.148 A 
ENDBRANCH   1   4
BRANCH   1  12
ATOM     12  C   UNL d   1      53.073  33.825  53.958  0.00  0.00     0.104 A 
ATOM     13  C   UNL d   1      53.252  34.361  54.559  0.00  0.00     0.013 A 
ATOM     14  C   UNL d   1      53.931  34.256  55.017  0.00  0.00     0.001 A 
ATOM     15  C   UNL d   1      54.430  33.614  54.873  0.00  0.00     0.000 A 
ATOM     16  C   UNL d   1      54.250  33.078  54.271  0.00  0.00     0.001 A 
ATOM     17  C   UNL d   1      55.106  33.517  55.335  0.00  0.00     0.000 C 
ATOM     18  C   UNL d   1      53.572  33.184  53.814  0.00  0.00     0.013 A 
ENDBRANCH   1  12
TORSDOF 2
ENDMDL
