MODEL 1
REMARK VINA RESULT:      -7.6      0.000      0.000
REMARK  5 active torsions:
REMARK  status: ('A' for Active; 'I' for Inactive)
REMARK    1  A    between atoms: C_2  and  C_1 
REMARK       I    between atoms: N_3  and  C_2 
REMARK    2  A    between atoms: C_6  and  N_3 
REMARK    3  A    between atoms: O_15  and  C_5 
REMARK    4  A    between atoms: O_17  and  C_11 
REMARK    5  A    between atoms: O_18  and  C_14 
ROOT
ATOM      1  C   UNL d   1      50.325  34.287  52.924  0.00  0.00     0.281 C 
ATOM      2  N   UNL d   1      51.079  34.656  52.951  0.00  0.00    -0.206 NA
ATOM      3  O   UNL d   1      50.262  33.488  53.024  0.00  0.00    -0.265 OA
ENDROOT
BRANCH   1   4
ATOM      4  C   UNL d   1      49.644  34.749  52.792  0.00  0.00     0.080 A 
ATOM      5  C   UNL d   1      49.332  35.212  53.387  0.00  0.00     0.007 A 
ATOM      6  C   UNL d   1      48.657  35.678  53.281  0.00  0.00     0.000 A 
ATOM      7  C   UNL d   1      48.358  36.129  53.870  0.00  0.00     0.000 A 
ATOM      8  C   UNL d   1      48.278  35.673  52.526  0.00  0.00     0.002 A 
ATOM      9  C   UNL d   1      47.688  36.591  53.761  0.00  0.00     0.000 A 
ATOM     10  C   UNL d   1      47.309  36.586  53.005  0.00  0.00     0.000 A 
ATOM     11  C   UNL d   1      47.616  36.119  52.391  0.00  0.00     0.000 A 
ATOM     12  C   UNL d   1      48.590  35.202  51.909  0.00  0.00     0.024 A 
ATOM     13  C   UNL d   1      49.265  34.744  52.037  0.00  0.00     0.099 A 
BRANCH  13  14
ATOM     14  O   UNL d   1      49.572  34.277  51.423  0.00  0.00    -0.328 OA
ATOM     15  C   UNL d   1      49.186  34.261  50.672  0.00  0.00     0.181 C 
ENDBRANCH  13  14
ENDBRANCH   1   4
BRANCH   2  16
ATOM     16  C   UNL d   1      51.760  34.194  53.082  0.00  0.00     0.109 A 
ATOM     17  C   UNL d   1      51.795  33.456  52.754  0.00  0.00     0.045 A 
ATOM     18  C   UNL d   1      52.469  33.019  52.893  0.00  0.00     0.096 A 
ATOM     19  C   UNL d   1      53.093  33.303  53.344  0.00  0.00     0.026 A 
ATOM     20  C   UNL d   1      53.036  34.044  53.662  0.00  0.00     0.028 A 
ATOM     21  C   UNL d   1      52.388  34.502  53.546  0.00  0.00     0.112 A 
BRANCH  18  22
ATOM     22  O   UNL d   1      52.528  32.248  52.563  0.00  0.00    -0.328 OA
ATOM     23  C   UNL d   1      52.957  31.690  52.941  0.00  0.00     0.181 C 
ENDBRANCH  18  22
BRANCH  21  24
ATOM     24  O   UNL d   1      52.352  35.274  53.889  0.00  0.00    -0.327 OA
ATOM     25  C   UNL d   1      52.938  35.519  54.412  0.00  0.00     0.181 C 
ENDBRANCH  21  24
ENDBRANCH   2  16
TORSDOF 5
ENDMDL
MODEL 2
REMARK VINA RESULT:      -7.3      0.862      4.813
REMARK  5 active torsions:
REMARK  status: ('A' for Active; 'I' for Inactive)
REMARK    1  A    between atoms: C_2  and  C_1 
REMARK       I    between atoms: N_3  and  C_2 
REMARK    2  A    between atoms: C_6  and  N_3 
REMARK    3  A    between atoms: O_15  and  C_5 
REMARK    4  A    between atoms: O_17  and  C_11 
REMARK    5  A    between atoms: O_18  and  C_14 
ROOT
ATOM      1  C   UNL d   1      50.921  34.527  53.235  0.00  0.00     0.281 C 
ATOM      2  N   UNL d   1      50.269  34.299  52.757  0.00  0.00    -0.206 NA
ATOM      3  O   UNL d   1      50.892  35.217  53.655  0.00  0.00    -0.265 OA
ENDROOT
BRANCH   1   4
ATOM      4  C   UNL d   1      51.596  34.039  53.275  0.00  0.00     0.080 A 
ATOM      5  C   UNL d   1      51.547  33.244  53.099  0.00  0.00     0.007 A 
ATOM      6  C   UNL d   1      52.203  32.741  53.131  0.00  0.00     0.000 A 
ATOM      7  C   UNL d   1      52.147  31.963  52.957  0.00  0.00     0.000 A 
ATOM      8  C   UNL d   1      52.950  33.065  53.356  0.00  0.00     0.002 A 
ATOM      9  C   UNL d   1      52.800  31.465  52.990  0.00  0.00     0.000 A 
ATOM     10  C   UNL d   1      53.547  31.790  53.214  0.00  0.00     0.000 A 
ATOM     11  C   UNL d   1      53.609  32.598  53.396  0.00  0.00     0.000 A 
ATOM     12  C   UNL d   1      53.010  33.880  53.538  0.00  0.00     0.024 A 
ATOM     13  C   UNL d   1      52.343  34.364  53.500  0.00  0.00     0.099 A 
BRANCH  13  14
ATOM     14  O   UNL d   1      52.405  35.172  53.682  0.00  0.00    -0.328 OA
ATOM     15  C   UNL d   1      53.112  35.471  54.035  0.00  0.00     0.181 C 
ENDBRANCH  13  14
ENDBRANCH   1   4
BRANCH   2  16
ATOM     16  C   UNL d   1      49.595  34.786  52.717  0.00  0.00     0.109 A 
ATOM     17  C   UNL d   1      49.378  35.200  53.378  0.00  0.00     0.045 A 
ATOM     18  C   UNL d   1      48.716  35.671  53.320  0.00  0.00     0.096 A 
ATOM     19  C   UNL d   1      48.278  35.733  52.629  0.00  0.00     0.026 A 
ATOM     20  C   UNL d   1      48.513  35.310  51.982  0.00  0.00     0.028 A 
ATOM     21  C   UNL d   1      49.160  34.836  52.002  0.00  0.00     0.112 A 
BRANCH  18  22
ATOM     22  O   UNL d   1      48.471  36.111  53.993  0.00  0.00    -0.328 OA
ATOM     23  C   UNL d   1      47.738  36.428  54.011  0.00  0.00     0.181 C 
ENDBRANCH  18  22
BRANCH  21  24
ATOM     24  O   UNL d   1      49.386  34.404  51.312  0.00  0.00    -0.327 OA
ATOM     25  C   UNL d   1      48.870  34.352  50.672  0.00  0.00     0.181 C 
ENDBRANCH  21  24
ENDBRANCH   2  16
TORSDOF 5
ENDMDL
MODEL 3
REMARK VINA RESULT:      -7.2      1.482      5.250
REMARK  5 active torsions:
REMARK  status: ('A' for Active; 'I' for Inactive)
REMARK    1  A    between atoms: C_2  and  C_1 
REMARK       I    between atoms: N_3  and  C_2 
REMARK    2  A    between atoms: C_6  and  N_3 
REMARK    3  A    between atoms: O_15  and  C_5 
REMARK    4  A    between atoms: O_17  and  C_11 
REMARK    5  A    between atoms: O_18  and  C_14 
ROOT
ATOM      1  C   UNL d   1      52.428  32.500  52.950  0.00  0.00     0.281 C 
ATOM      2  N   UNL d   1      52.018  32.949  53.529  0.00  0.00    -0.206 NA
ATOM      3  O   UNL d   1      52.424  32.736  52.178  0.00  0.00    -0.265 OA
ENDROOT
BRANCH   1   4
ATOM      4  C   UNL d   1      52.839  31.810  53.176  0.00  0.00     0.080 A 
ATOM      5  C   UNL d   1      52.441  31.110  53.304  0.00  0.00     0.007 A 
ATOM      6  C   UNL d   1      52.826  30.413  53.529  0.00  0.00     0.000 A 
ATOM      7  C   UNL d   1      52.428  29.731  53.652  0.00  0.00     0.000 A 
ATOM      8  C   UNL d   1      53.665  30.431  53.629  0.00  0.00     0.002 A 
ATOM      9  C   UNL d   1      52.814  29.041  53.875  0.00  0.00     0.000 A 
ATOM     10  C   UNL d   1      53.653  29.059  53.975  0.00  0.00     0.000 A 
ATOM     11  C   UNL d   1      54.070  29.766  53.848  0.00  0.00     0.000 A 
ATOM     12  C   UNL d   1      54.083  31.145  53.500  0.00  0.00     0.024 A 
ATOM     13  C   UNL d   1      53.678  31.828  53.276  0.00  0.00     0.099 A 
BRANCH  13  14
ATOM     14  O   UNL d   1      54.095  32.535  53.149  0.00  0.00    -0.328 OA
ATOM     15  C   UNL d   1      54.926  32.566  53.300  0.00  0.00     0.181 C 
ENDBRANCH  13  14
ENDBRANCH   1   4
BRANCH   2  16
ATOM     16  C   UNL d   1      51.608  33.638  53.303  0.00  0.00     0.109 A 
ATOM     17  C   UNL d   1      51.039  33.578  52.731  0.00  0.00     0.045 A 
ATOM     18  C   UNL d   1      50.648  34.263  52.523  0.00  0.00     0.096 A 
ATOM     19  C   UNL d   1      50.814  34.987  52.870  0.00  0.00     0.026 A 
ATOM     20  C   UNL d   1      51.386  35.023  53.440  0.00  0.00     0.028 A 
ATOM     21  C   UNL d   1      51.791  34.370  53.670  0.00  0.00     0.112 A 
BRANCH  18  22
ATOM     22  O   UNL d   1      50.053  34.226  51.931  0.00  0.00    -0.328 OA
ATOM     23  C   UNL d   1      49.364  34.614  52.041  0.00  0.00     0.181 C 
ENDBRANCH  18  22
BRANCH  21  24
ATOM     24  O   UNL d   1      52.385  34.432  54.268  0.00  0.00    -0.327 OA
ATOM     25  C   UNL d   1      52.610  35.173  54.548  0.00  0.00     0.181 C 
ENDBRANCH  21  24
ENDBRANCH   2  16
TORSDOF 5
ENDMDL
MODEL 4
REMARK VINA RESULT:      -6.9      1.259      4.795
REMARK  5 active torsions:
REMARK  status: ('A' for Active; 'I' for Inactive)
REMARK    1  A    between atoms: C_2  and  C_1 
REMARK       I    between atoms: N_3  and  C_2 
REMARK    2  A    between atoms: C_6  and  N_3 
REMARK    3  A    between atoms: O_15  and  C_5 
REMARK    4  A    between atoms: O_17  and  C_11 
REMARK    5  A    between atoms: O_18  and  C_14 
ROOT
ATOM      1  C   UNL d   1      51.599  33.611  53.524  0.00  0.00     0.281 C 
ATOM      2  N   UNL d   1      51.477  34.280  53.031  0.00  0.00    -0.206 NA
ATOM      3  O   UNL d   1      50.970  33.164  53.763  0.00  0.00    -0.265 OA
ENDROOT
BRANCH   1   4
ATOM      4  C   UNL d   1      52.372  33.411  53.765  0.00  0.00     0.080 A 
ATOM      5  C   UNL d   1      52.806  33.917  54.235  0.00  0.00     0.007 A 
ATOM      6  C   UNL d   1      53.574  33.740  54.487  0.00  0.00     0.000 A 
ATOM      7  C   UNL d   1      53.994  34.241  54.948  0.00  0.00     0.000 A 
ATOM      8  C   UNL d   1      53.919  33.007  54.247  0.00  0.00     0.002 A 
ATOM      9  C   UNL d   1      54.756  34.063  55.196  0.00  0.00     0.000 A 
ATOM     10  C   UNL d   1      55.100  33.330  54.956  0.00  0.00     0.000 A 
ATOM     11  C   UNL d   1      54.668  32.806  54.477  0.00  0.00     0.000 A 
ATOM     12  C   UNL d   1      53.481  32.482  53.765  0.00  0.00     0.024 A 
ATOM     13  C   UNL d   1      52.716  32.678  53.525  0.00  0.00     0.099 A 
BRANCH  13  14
ATOM     14  O   UNL d   1      52.284  32.154  53.047  0.00  0.00    -0.328 OA
ATOM     15  C   UNL d   1      52.585  31.380  52.892  0.00  0.00     0.181 C 
ENDBRANCH  13  14
ENDBRANCH   1   4
BRANCH   2  16
ATOM     16  C   UNL d   1      50.705  34.480  52.790  0.00  0.00     0.109 A 
ATOM     17  C   UNL d   1      50.181  34.739  53.349  0.00  0.00     0.045 A 
ATOM     18  C   UNL d   1      49.430  34.930  53.094  0.00  0.00     0.096 A 
ATOM     19  C   UNL d   1      49.202  34.867  52.308  0.00  0.00     0.026 A 
ATOM     20  C   UNL d   1      49.743  34.605  51.768  0.00  0.00     0.028 A 
ATOM     21  C   UNL d   1      50.490  34.408  51.982  0.00  0.00     0.112 A 
BRANCH  18  22
ATOM     22  O   UNL d   1      48.868  35.202  53.656  0.00  0.00    -0.328 OA
ATOM     23  C   UNL d   1      48.381  35.806  53.466  0.00  0.00     0.181 C 
ENDBRANCH  18  22
BRANCH  21  24
ATOM     24  O   UNL d   1      51.038  34.137  51.398  0.00  0.00    -0.327 OA
ATOM     25  C   UNL d   1      51.091  34.524  50.673  0.00  0.00     0.181 C 
ENDBRANCH  21  24
ENDBRANCH   2  16
TORSDOF 5
ENDMDL
MODEL 5
REMARK VINA RESULT:      -6.6      9.732     10.762
REMARK  5 active torsions:
REMARK  status: ('A' for Active; 'I' for Inactive)
REMARK    1  A    between atoms: C_2  and  C_1 
REMARK       I    between atoms: N_3  and  C_2 
REMARK    2  A    between atoms: C_6  and  N_3 
REMARK    3  A    between atoms: O_15  and  C_5 
REMARK    4  A    between atoms: O_17  and  C_11 
REMARK    5  A    between atoms: O_18  and  C_14 
ROOT
ATOM      1  C   UNL d   1      44.973  29.947  59.643  0.00  0.00     0.281 C 
ATOM      2  N   UNL d   1      44.421  29.672  60.213  0.00  0.00    -0.206 NA
ATOM      3  O   UNL d   1      45.491  30.537  59.834  0.00  0.00    -0.265 OA
ENDROOT
BRANCH   1   4
ATOM      4  C   UNL d   1      44.985  29.608  58.882  0.00  0.00     0.080 A 
ATOM      5  C   UNL d   1      45.159  28.817  58.779  0.00  0.00     0.007 A 
ATOM      6  C   UNL d   1      45.176  28.459  58.033  0.00  0.00     0.000 A 
ATOM      7  C   UNL d   1      45.348  27.684  57.941  0.00  0.00     0.000 A 
ATOM      8  C   UNL d   1      45.006  28.933  57.354  0.00  0.00     0.002 A 
ATOM      9  C   UNL d   1      45.364  27.331  57.200  0.00  0.00     0.000 A 
ATOM     10  C   UNL d   1      45.194  27.805  56.521  0.00  0.00     0.000 A 
ATOM     11  C   UNL d   1      45.016  28.610  56.612  0.00  0.00     0.000 A 
ATOM     12  C   UNL d   1      44.827  29.744  57.449  0.00  0.00     0.024 A 
ATOM     13  C   UNL d   1      44.815  30.081  58.203  0.00  0.00     0.099 A 
BRANCH  13  14
ATOM     14  O   UNL d   1      44.636  30.887  58.294  0.00  0.00    -0.328 OA
ATOM     15  C   UNL d   1      44.531  31.375  57.612  0.00  0.00     0.181 C 
ENDBRANCH  13  14
ENDBRANCH   1   4
BRANCH   2  16
ATOM     16  C   UNL d   1      44.410  30.011  60.974  0.00  0.00     0.109 A 
ATOM     17  C   UNL d   1      44.368  30.815  61.038  0.00  0.00     0.045 A 
ATOM     18  C   UNL d   1      44.358  31.129  61.791  0.00  0.00     0.096 A 
ATOM     19  C   UNL d   1      44.388  30.660  62.463  0.00  0.00     0.026 A 
ATOM     20  C   UNL d   1      44.430  29.858  62.375  0.00  0.00     0.028 A 
ATOM     21  C   UNL d   1      44.442  29.515  61.650  0.00  0.00     0.112 A 
BRANCH  18  22
ATOM     22  O   UNL d   1      44.315  31.963  61.882  0.00  0.00    -0.328 OA
ATOM     23  C   UNL d   1      44.314  32.279  62.616  0.00  0.00     0.181 C 
ENDBRANCH  18  22
BRANCH  21  24
ATOM     24  O   UNL d   1      44.485  28.673  61.584  0.00  0.00    -0.327 OA
ATOM     25  C   UNL d   1      44.520  28.208  62.263  0.00  0.00     0.181 C 
ENDBRANCH  21  24
ENDBRANCH   2  16
TORSDOF 5
ENDMDL
MODEL 6
REMARK VINA RESULT:      -6.4      2.298      5.584
REMARK  5 active torsions:
REMARK  status: ('A' for Active; 'I' for Inactive)
REMARK    1  A    between atoms: C_2  and  C_1 
REMARK       I    between atoms: N_3  and  C_2 
REMARK    2  A    between atoms: C_6  and  N_3 
REMARK    3  A    between atoms: O_15  and  C_5 
REMARK    4  A    between atoms: O_17  and  C_11 
REMARK    5  A    between atoms: O_18  and  C_14 
ROOT
ATOM      1  C   UNL d   1      53.227  32.070  53.737  0.00  0.00     0.281 C 
ATOM      2  N   UNL d   1      52.533  32.500  53.931  0.00  0.00    -0.206 NA
ATOM      3  O   UNL d   1      53.871  32.455  53.437  0.00  0.00    -0.265 OA
ENDROOT
BRANCH   1   4
ATOM      4  C   UNL d   1      53.249  31.245  53.854  0.00  0.00     0.080 A 
ATOM      5  C   UNL d   1      53.304  30.931  54.606  0.00  0.00     0.007 A 
ATOM      6  C   UNL d   1      53.327  30.116  54.747  0.00  0.00     0.000 A 
ATOM      7  C   UNL d   1      53.382  29.818  55.486  0.00  0.00     0.000 A 
ATOM      8  C   UNL d   1      53.291  29.591  54.086  0.00  0.00     0.002 A 
ATOM      9  C   UNL d   1      53.404  29.008  55.624  0.00  0.00     0.000 A 
ATOM     10  C   UNL d   1      53.368  28.483  54.963  0.00  0.00     0.000 A 
ATOM     11  C   UNL d   1      53.311  28.789  54.193  0.00  0.00     0.000 A 
ATOM     12  C   UNL d   1      53.234  29.903  53.312  0.00  0.00     0.024 A 
ATOM     13  C   UNL d   1      53.212  30.720  53.193  0.00  0.00     0.099 A 
BRANCH  13  14
ATOM     14  O   UNL d   1      53.156  31.026  52.424  0.00  0.00    -0.328 OA
ATOM     15  C   UNL d   1      53.064  30.502  51.767  0.00  0.00     0.181 C 
ENDBRANCH  13  14
ENDBRANCH   1   4
BRANCH   2  16
ATOM     16  C   UNL d   1      52.512  33.325  53.813  0.00  0.00     0.109 A 
ATOM     17  C   UNL d   1      53.114  33.773  54.114  0.00  0.00     0.045 A 
ATOM     18  C   UNL d   1      53.077  34.578  53.989  0.00  0.00     0.096 A 
ATOM     19  C   UNL d   1      52.460  34.932  53.578  0.00  0.00     0.026 A 
ATOM     20  C   UNL d   1      51.869  34.463  53.287  0.00  0.00     0.028 A 
ATOM     21  C   UNL d   1      51.874  33.668  53.391  0.00  0.00     0.112 A 
BRANCH  18  22
ATOM     22  O   UNL d   1      53.691  35.065  54.292  0.00  0.00    -0.328 OA
ATOM     23  C   UNL d   1      53.507  35.756  54.647  0.00  0.00     0.181 C 
ENDBRANCH  18  22
BRANCH  21  24
ATOM     24  O   UNL d   1      51.244  33.200  53.077  0.00  0.00    -0.327 OA
ATOM     25  C   UNL d   1      50.539  33.559  52.847  0.00  0.00     0.181 C 
ENDBRANCH  21  24
ENDBRANCH   2  16
TORSDOF 5
ENDMDL
MODEL 7
REMARK VINA RESULT:      -6.1      1.103      2.066
REMARK  5 active torsions:
REMARK  status: ('A' for Active; 'I' for Inactive)
REMARK    1  A    between atoms: C_2  and  C_1 
REMARK       I    between atoms: N_3  and  C_2 
REMARK    2  A    between atoms: C_6  and  N_3 
REMARK    3  A    between atoms: O_15  and  C_5 
REMARK    4  A    between atoms: O_17  and  C_11 
REMARK    5  A    between atoms: O_18  and  C_14 
ROOT
ATOM      1  C   UNL d   1      51.664  34.221  53.092  0.00  0.00     0.281 C 
ATOM      2  N   UNL d   1      51.764  33.474  53.462  0.00  0.00    -0.206 NA
ATOM      3  O   UNL d   1      52.307  34.687  52.941  0.00  0.00    -0.265 OA
ENDROOT
BRANCH   1   4
ATOM      4  C   UNL d   1      50.900  34.479  52.880  0.00  0.00     0.080 A 
ATOM      5  C   UNL d   1      50.395  34.789  53.440  0.00  0.00     0.007 A 
ATOM      6  C   UNL d   1      49.632  35.051  53.255  0.00  0.00     0.000 A 
ATOM      7  C   UNL d   1      49.143  35.354  53.810  0.00  0.00     0.000 A 
ATOM      8  C   UNL d   1      49.370  34.994  52.454  0.00  0.00     0.002 A 
ATOM      9  C   UNL d   1      48.387  35.613  53.623  0.00  0.00     0.000 A 
ATOM     10  C   UNL d   1      48.124  35.556  52.821  0.00  0.00     0.000 A 
ATOM     11  C   UNL d   1      48.629  35.242  52.242  0.00  0.00     0.000 A 
ATOM     12  C   UNL d   1      49.881  34.677  51.872  0.00  0.00     0.024 A 
ATOM     13  C   UNL d   1      50.638  34.421  52.079  0.00  0.00     0.099 A 
BRANCH  13  14
ATOM     14  O   UNL d   1      51.143  34.107  51.500  0.00  0.00    -0.328 OA
ATOM     15  C   UNL d   1      50.974  34.232  50.681  0.00  0.00     0.181 C 
ENDBRANCH  13  14
ENDBRANCH   1   4
BRANCH   2  16
ATOM     16  C   UNL d   1      52.529  33.217  53.673  0.00  0.00     0.109 A 
ATOM     17  C   UNL d   1      53.008  33.724  54.081  0.00  0.00     0.045 A 
ATOM     18  C   UNL d   1      53.752  33.455  54.279  0.00  0.00     0.096 A 
ATOM     19  C   UNL d   1      54.015  32.704  54.080  0.00  0.00     0.026 A 
ATOM     20  C   UNL d   1      53.519  32.214  53.672  0.00  0.00     0.028 A 
ATOM     21  C   UNL d   1      52.780  32.445  53.461  0.00  0.00     0.112 A 
BRANCH  18  22
ATOM     22  O   UNL d   1      54.268  33.965  54.702  0.00  0.00    -0.328 OA
ATOM     23  C   UNL d   1      54.840  33.651  55.163  0.00  0.00     0.181 C 
ENDBRANCH  18  22
BRANCH  21  24
ATOM     24  O   UNL d   1      52.279  31.914  53.035  0.00  0.00    -0.327 OA
ATOM     25  C   UNL d   1      52.525  31.141  52.895  0.00  0.00     0.181 C 
ENDBRANCH  21  24
ENDBRANCH   2  16
TORSDOF 5
ENDMDL
MODEL 8
REMARK VINA RESULT:      -5.9      9.714     10.745
REMARK  5 active torsions:
REMARK  status: ('A' for Active; 'I' for Inactive)
REMARK    1  A    between atoms: C_2  and  C_1 
REMARK       I    between atoms: N_3  and  C_2 
REMARK    2  A    between atoms: C_6  and  N_3 
REMARK    3  A    between atoms: O_15  and  C_5 
REMARK    4  A    between atoms: O_17  and  C_11 
REMARK    5  A    between atoms: O_18  and  C_14 
ROOT
ATOM      1  C   UNL d   1      45.046  28.183  58.063  0.00  0.00     0.281 C 
ATOM      2  N   UNL d   1      44.504  28.762  57.786  0.00  0.00    -0.206 NA
ATOM      3  O   UNL d   1      45.703  28.410  58.475  0.00  0.00    -0.265 OA
ENDROOT
BRANCH   1   4
ATOM      4  C   UNL d   1      44.903  27.376  57.910  0.00  0.00     0.080 A 
ATOM      5  C   UNL d   1      44.984  27.072  57.158  0.00  0.00     0.007 A 
ATOM      6  C   UNL d   1      44.848  26.275  56.982  0.00  0.00     0.000 A 
ATOM      7  C   UNL d   1      44.930  25.986  56.242  0.00  0.00     0.000 A 
ATOM      8  C   UNL d   1      44.615  25.759  57.609  0.00  0.00     0.002 A 
ATOM      9  C   UNL d   1      44.794  25.194  56.071  0.00  0.00     0.000 A 
ATOM     10  C   UNL d   1      44.561  24.678  56.698  0.00  0.00     0.000 A 
ATOM     11  C   UNL d   1      44.475  24.975  57.468  0.00  0.00     0.000 A 
ATOM     12  C   UNL d   1      44.529  26.061  58.384  0.00  0.00     0.024 A 
ATOM     13  C   UNL d   1      44.670  26.860  58.537  0.00  0.00     0.099 A 
BRANCH  13  14
ATOM     14  O   UNL d   1      44.583  27.157  59.308  0.00  0.00    -0.328 OA
ATOM     15  C   UNL d   1      44.315  26.648  59.927  0.00  0.00     0.181 C 
ENDBRANCH  13  14
ENDBRANCH   1   4
BRANCH   2  16
ATOM     16  C   UNL d   1      44.647  29.569  57.938  0.00  0.00     0.109 A 
ATOM     17  C   UNL d   1      44.837  29.791  58.692  0.00  0.00     0.045 A 
ATOM     18  C   UNL d   1      44.973  30.584  58.822  0.00  0.00     0.096 A 
ATOM     19  C   UNL d   1      44.923  31.144  58.223  0.00  0.00     0.026 A 
ATOM     20  C   UNL d   1      44.732  30.898  57.478  0.00  0.00     0.028 A 
ATOM     21  C   UNL d   1      44.591  30.126  57.313  0.00  0.00     0.112 A 
BRANCH  18  22
ATOM     22  O   UNL d   1      45.172  30.840  59.597  0.00  0.00    -0.328 OA
ATOM     23  C   UNL d   1      44.590  31.031  60.110  0.00  0.00     0.181 C 
ENDBRANCH  18  22
BRANCH  21  24
ATOM     24  O   UNL d   1      44.393  29.893  56.525  0.00  0.00    -0.327 OA
ATOM     25  C   UNL d   1      44.329  30.461  55.933  0.00  0.00     0.181 C 
ENDBRANCH  21  24
ENDBRANCH   2  16
TORSDOF 5
ENDMDL
MODEL 9
REMARK VINA RESULT:      -5.6      3.048      4.913
REMARK  5 active torsions:
REMARK  status: ('A' for Active; 'I' for Inactive)
REMARK    1  A    between atoms: C_2  and  C_1 
REMARK       I    between atoms: N_3  and  C_2 
REMARK    2  A    between atoms: C_6  and  N_3 
REMARK    3  A    between atoms: O_15  and  C_5 
REMARK    4  A    between atoms: O_17  and  C_11 
REMARK    5  A    between atoms: O_18  and  C_14 
ROOT
ATOM      1  C   UNL d   1      53.510  31.995  54.320  0.00  0.00     0.281 C 
ATOM      2  N   UNL d   1      53.027  31.479  53.866  0.00  0.00    -0.206 NA
ATOM      3  O   UNL d   1      54.079  31.692  54.806  0.00  0.00    -0.265 OA
ENDROOT
BRANCH   1   4
ATOM      4  C   UNL d   1      53.399  32.819  54.265  0.00  0.00     0.080 A 
ATOM      5  C   UNL d   1      52.753  33.128  53.874  0.00  0.00     0.007 A 
ATOM      6  C   UNL d   1      52.621  33.943  53.807  0.00  0.00     0.000 A 
ATOM      7  C   UNL d   1      51.986  34.237  53.423  0.00  0.00     0.000 A 
ATOM      8  C   UNL d   1      53.179  34.471  54.158  0.00  0.00     0.002 A 
ATOM      9  C   UNL d   1      51.858  35.046  53.358  0.00  0.00     0.000 A 
ATOM     10  C   UNL d   1      52.416  35.575  53.708  0.00  0.00     0.000 A 
ATOM     11  C   UNL d   1      53.078  35.272  54.109  0.00  0.00     0.000 A 
ATOM     12  C   UNL d   1      53.845  34.164  54.560  0.00  0.00     0.024 A 
ATOM     13  C   UNL d   1      53.957  33.348  54.615  0.00  0.00     0.099 A 
BRANCH  13  14
ATOM     14  O   UNL d   1      54.619  33.045  55.016  0.00  0.00    -0.328 OA
ATOM     15  C   UNL d   1      55.202  33.574  55.324  0.00  0.00     0.181 C 
ENDBRANCH  13  14
ENDBRANCH   1   4
BRANCH   2  16
ATOM     16  C   UNL d   1      53.138  30.654  53.920  0.00  0.00     0.109 A 
ATOM     17  C   UNL d   1      53.192  30.320  54.655  0.00  0.00     0.045 A 
ATOM     18  C   UNL d   1      53.300  29.513  54.688  0.00  0.00     0.096 A 
ATOM     19  C   UNL d   1      53.355  29.047  54.015  0.00  0.00     0.026 A 
ATOM     20  C   UNL d   1      53.298  29.404  53.292  0.00  0.00     0.028 A 
ATOM     21  C   UNL d   1      53.191  30.195  53.221  0.00  0.00     0.112 A 
BRANCH  18  22
ATOM     22  O   UNL d   1      53.359  29.142  55.440  0.00  0.00    -0.328 OA
ATOM     23  C   UNL d   1      53.343  28.345  55.489  0.00  0.00     0.181 C 
ENDBRANCH  18  22
BRANCH  21  24
ATOM     24  O   UNL d   1      53.136  30.545  52.453  0.00  0.00    -0.327 OA
ATOM     25  C   UNL d   1      53.050  30.066  51.788  0.00  0.00     0.181 C 
ENDBRANCH  21  24
ENDBRANCH   2  16
TORSDOF 5
ENDMDL
