MODEL 1
REMARK VINA RESULT:      -5.8      0.000      0.000
REMARK  9 active torsions:
REMARK  status: ('A' for Active; 'I' for Inactive)
REMARK    1  A    between atoms: N_6  and  C_1 
REMARK    2  A    between atoms: N_2  and  C_10 
REMARK    3  A    between atoms: C_3  and  N_6 
REMARK    4  A    between atoms: N_4  and  C_3 
REMARK       I    between atoms: C_7  and  N_4 
REMARK    5  A    between atoms: C_12  and  C_7 
REMARK    6  A    between atoms: C_11  and  C_8 
REMARK    7  A    between atoms: C_15  and  C_11 
REMARK    8  A    between atoms: O_21  and  C_15 
REMARK    9  A    between atoms: C_25  and  O_21 
ROOT
ATOM      1  C   UNL d   1     -48.803  11.894  23.435  0.00  0.00     0.277 C 
ATOM      2  S   UNL d   1     -49.286  11.271  23.697  0.00  0.00    -0.023 SA
ENDROOT
BRANCH   1   3
ATOM      3  N   UNL d   1     -47.984  11.795  23.421  0.00  0.00    -0.347 NA
BRANCH   3   4
ATOM      4  C   UNL d   1     -47.165  11.700  23.398  0.00  0.00     0.248 A 
ATOM      5  N   UNL d   1     -46.600  12.295  23.237  0.00  0.00    -0.210 NA
ATOM      6  C   UNL d   1     -45.850  11.948  23.274  0.00  0.00     0.096 A 
ATOM      7  C   UNL d   1     -45.947  11.149  23.455  0.00  0.00     0.059 A 
ATOM      8  S   UNL d   1     -46.753  10.994  23.532  0.00  0.00    -0.033 SA
BRANCH   6   9
ATOM      9  C   UNL d   1     -45.132  12.338  23.149  0.00  0.00     0.088 C 
BRANCH   9  10
ATOM     10  C   UNL d   1     -44.961  12.665  22.414  0.00  0.00     0.302 C 
ATOM     11  O   UNL d   1     -45.394  13.316  22.147  0.00  0.00    -0.259 OA
BRANCH  10  12
ATOM     12  O   UNL d   1     -44.361  12.345  21.946  0.00  0.00    -0.271 OA
BRANCH  12  13
ATOM     13  C   UNL d   1     -43.923  12.831  21.446  0.00  0.00     0.126 C 
ATOM     14  C   UNL d   1     -43.146  12.631  21.251  0.00  0.00     0.029 C 
ENDBRANCH  12  13
ENDBRANCH  10  12
ENDBRANCH   9  10
ENDBRANCH   6   9
ENDBRANCH   3   4
ENDBRANCH   1   3
BRANCH   1  15
ATOM     15  N   UNL d   1     -49.146  12.603  23.192  0.00  0.00    -0.168 NA
ATOM     16  C   UNL d   1     -49.842  12.601  22.746  0.00  0.00     0.282 C 
ATOM     17  O   UNL d   1     -50.199  11.883  22.542  0.00  0.00    -0.265 OA
BRANCH  16  18
ATOM     18  C   UNL d   1     -50.186  13.311  22.503  0.00  0.00     0.060 A 
ATOM     19  C   UNL d   1     -49.996  14.020  22.887  0.00  0.00     0.028 A 
ATOM     20  C   UNL d   1     -50.339  14.726  22.644  0.00  0.00     0.127 A 
ATOM     21  C   UNL d   1     -50.873  14.735  22.017  0.00  0.00     0.024 A 
ATOM     22  C   UNL d   1     -51.063  14.029  21.633  0.00  0.00     0.002 A 
ATOM     23  C   UNL d   1     -50.719  13.311  21.875  0.00  0.00     0.005 A 
BRANCH  20  24
ATOM     24  N   UNL d   1     -50.141  15.427  23.037  0.00  0.00    -0.114 N 
ATOM     25  O   UNL d   1     -50.724  15.905  23.365  0.00  0.00    -0.532 OA
ATOM     26  O   UNL d   1     -49.348  15.645  23.098  0.00  0.00    -0.532 OA
ENDBRANCH  20  24
ENDBRANCH  16  18
ENDBRANCH   1  15
TORSDOF 9
ENDMDL
MODEL 2
REMARK VINA RESULT:      -5.7      2.099      2.993
REMARK  9 active torsions:
REMARK  status: ('A' for Active; 'I' for Inactive)
REMARK    1  A    between atoms: N_6  and  C_1 
REMARK    2  A    between atoms: N_2  and  C_10 
REMARK    3  A    between atoms: C_3  and  N_6 
REMARK    4  A    between atoms: N_4  and  C_3 
REMARK       I    between atoms: C_7  and  N_4 
REMARK    5  A    between atoms: C_12  and  C_7 
REMARK    6  A    between atoms: C_11  and  C_8 
REMARK    7  A    between atoms: C_15  and  C_11 
REMARK    8  A    between atoms: O_21  and  C_15 
REMARK    9  A    between atoms: C_25  and  O_21 
ROOT
ATOM      1  C   UNL d   1     -46.411  13.533  22.548  0.00  0.00     0.277 C 
ATOM      2  S   UNL d   1     -46.461  14.254  22.958  0.00  0.00    -0.023 SA
ENDROOT
BRANCH   1   3
ATOM      3  N   UNL d   1     -45.672  13.231  22.344  0.00  0.00    -0.347 NA
BRANCH   3   4
ATOM      4  C   UNL d   1     -44.931  12.936  22.133  0.00  0.00     0.248 A 
ATOM      5  N   UNL d   1     -44.403  13.269  21.577  0.00  0.00    -0.210 NA
ATOM      6  C   UNL d   1     -43.731  12.787  21.545  0.00  0.00     0.096 A 
ATOM      7  C   UNL d   1     -43.839  12.165  22.074  0.00  0.00     0.059 A 
ATOM      8  S   UNL d   1     -44.574  12.253  22.437  0.00  0.00    -0.033 SA
BRANCH   6   9
ATOM      9  C   UNL d   1     -43.069  12.913  21.066  0.00  0.00     0.088 C 
BRANCH   9  10
ATOM     10  C   UNL d   1     -42.384  13.240  21.384  0.00  0.00     0.302 C 
ATOM     11  O   UNL d   1     -41.965  12.824  21.962  0.00  0.00    -0.259 OA
BRANCH  10  12
ATOM     12  O   UNL d   1     -42.118  13.978  21.127  0.00  0.00    -0.271 OA
BRANCH  12  13
ATOM     13  C   UNL d   1     -41.322  14.091  20.948  0.00  0.00     0.126 C 
ATOM     14  C   UNL d   1     -41.054  14.831  20.700  0.00  0.00     0.029 C 
ENDBRANCH  12  13
ENDBRANCH  10  12
ENDBRANCH   9  10
ENDBRANCH   6   9
ENDBRANCH   3   4
ENDBRANCH   1   3
BRANCH   1  15
ATOM     15  N   UNL d   1     -47.102  13.128  22.349  0.00  0.00    -0.168 NA
ATOM     16  C   UNL d   1     -47.840  13.488  22.441  0.00  0.00     0.282 C 
ATOM     17  O   UNL d   1     -47.890  14.260  22.733  0.00  0.00    -0.265 OA
BRANCH  16  18
ATOM     18  C   UNL d   1     -48.531  13.082  22.242  0.00  0.00     0.060 A 
ATOM     19  C   UNL d   1     -48.918  12.616  22.807  0.00  0.00     0.028 A 
ATOM     20  C   UNL d   1     -49.606  12.213  22.608  0.00  0.00     0.127 A 
ATOM     21  C   UNL d   1     -49.916  12.268  21.847  0.00  0.00     0.024 A 
ATOM     22  C   UNL d   1     -49.531  12.733  21.283  0.00  0.00     0.002 A 
ATOM     23  C   UNL d   1     -48.834  13.143  21.479  0.00  0.00     0.005 A 
BRANCH  20  24
ATOM     24  N   UNL d   1     -49.983  11.751  23.182  0.00  0.00    -0.114 N 
ATOM     25  O   UNL d   1     -49.607  11.096  23.509  0.00  0.00    -0.532 OA
ATOM     26  O   UNL d   1     -50.744  11.952  23.426  0.00  0.00    -0.532 OA
ENDBRANCH  20  24
ENDBRANCH  16  18
ENDBRANCH   1  15
TORSDOF 9
ENDMDL
MODEL 3
REMARK VINA RESULT:      -5.5      1.137      1.630
REMARK  9 active torsions:
REMARK  status: ('A' for Active; 'I' for Inactive)
REMARK    1  A    between atoms: N_6  and  C_1 
REMARK    2  A    between atoms: N_2  and  C_10 
REMARK    3  A    between atoms: C_3  and  N_6 
REMARK    4  A    between atoms: N_4  and  C_3 
REMARK       I    between atoms: C_7  and  N_4 
REMARK    5  A    between atoms: C_12  and  C_7 
REMARK    6  A    between atoms: C_11  and  C_8 
REMARK    7  A    between atoms: C_15  and  C_11 
REMARK    8  A    between atoms: O_21  and  C_15 
REMARK    9  A    between atoms: C_25  and  O_21 
ROOT
ATOM      1  C   UNL d   1     -47.536  12.087  23.347  0.00  0.00     0.277 C 
ATOM      2  S   UNL d   1     -47.537  11.334  23.698  0.00  0.00    -0.023 SA
ENDROOT
BRANCH   1   3
ATOM      3  N   UNL d   1     -46.831  12.396  23.049  0.00  0.00    -0.347 NA
BRANCH   3   4
ATOM      4  C   UNL d   1     -46.122  12.697  22.756  0.00  0.00     0.248 A 
ATOM      5  N   UNL d   1     -45.388  12.296  22.720  0.00  0.00    -0.210 NA
ATOM      6  C   UNL d   1     -44.834  12.812  22.386  0.00  0.00     0.096 A 
ATOM      7  C   UNL d   1     -45.217  13.522  22.216  0.00  0.00     0.059 A 
ATOM      8  S   UNL d   1     -46.007  13.455  22.442  0.00  0.00    -0.033 SA
BRANCH   6   9
ATOM      9  C   UNL d   1     -44.038  12.639  22.248  0.00  0.00     0.088 C 
BRANCH   9  10
ATOM     10  C   UNL d   1     -43.687  12.849  21.533  0.00  0.00     0.302 C 
ATOM     11  O   UNL d   1     -43.980  12.534  20.827  0.00  0.00    -0.259 OA
BRANCH  10  12
ATOM     12  O   UNL d   1     -43.047  13.370  21.522  0.00  0.00    -0.271 OA
BRANCH  12  13
ATOM     13  C   UNL d   1     -42.416  13.238  21.010  0.00  0.00     0.126 C 
ATOM     14  C   UNL d   1     -41.835  13.817  20.912  0.00  0.00     0.029 C 
ENDBRANCH  12  13
ENDBRANCH  10  12
ENDBRANCH   9  10
ENDBRANCH   6   9
ENDBRANCH   3   4
ENDBRANCH   1   3
BRANCH   1  15
ATOM     15  N   UNL d   1     -48.238  12.518  23.300  0.00  0.00    -0.168 NA
ATOM     16  C   UNL d   1     -48.936  12.155  23.044  0.00  0.00     0.282 C 
ATOM     17  O   UNL d   1     -48.931  11.355  22.833  0.00  0.00    -0.265 OA
BRANCH  16  18
ATOM     18  C   UNL d   1     -49.638  12.585  22.997  0.00  0.00     0.060 A 
ATOM     19  C   UNL d   1     -49.626  13.381  22.766  0.00  0.00     0.028 A 
ATOM     20  C   UNL d   1     -50.326  13.808  22.720  0.00  0.00     0.127 A 
ATOM     21  C   UNL d   1     -51.045  13.450  22.902  0.00  0.00     0.024 A 
ATOM     22  C   UNL d   1     -51.059  12.657  23.133  0.00  0.00     0.002 A 
ATOM     23  C   UNL d   1     -50.352  12.220  23.181  0.00  0.00     0.005 A 
BRANCH  20  24
ATOM     24  N   UNL d   1     -50.299  14.602  22.487  0.00  0.00    -0.114 N 
ATOM     25  O   UNL d   1     -49.907  15.162  22.945  0.00  0.00    -0.532 OA
ATOM     26  O   UNL d   1     -50.672  14.830  21.788  0.00  0.00    -0.532 OA
ENDBRANCH  20  24
ENDBRANCH  16  18
ENDBRANCH   1  15
TORSDOF 9
ENDMDL
MODEL 4
REMARK VINA RESULT:      -5.4      1.856      5.592
REMARK  9 active torsions:
REMARK  status: ('A' for Active; 'I' for Inactive)
REMARK    1  A    between atoms: N_6  and  C_1 
REMARK    2  A    between atoms: N_2  and  C_10 
REMARK    3  A    between atoms: C_3  and  N_6 
REMARK    4  A    between atoms: N_4  and  C_3 
REMARK       I    between atoms: C_7  and  N_4 
REMARK    5  A    between atoms: C_12  and  C_7 
REMARK    6  A    between atoms: C_11  and  C_8 
REMARK    7  A    between atoms: C_15  and  C_11 
REMARK    8  A    between atoms: O_21  and  C_15 
REMARK    9  A    between atoms: C_25  and  O_21 
ROOT
ATOM      1  C   UNL d   1     -46.561  14.140  22.843  0.00  0.00     0.277 C 
ATOM      2  S   UNL d   1     -45.951  14.634  22.569  0.00  0.00    -0.023 SA
ENDROOT
BRANCH   1   3
ATOM      3  N   UNL d   1     -47.344  14.392  22.788  0.00  0.00    -0.347 NA
BRANCH   3   4
ATOM      4  C   UNL d   1     -48.128  14.639  22.725  0.00  0.00     0.248 A 
ATOM      5  N   UNL d   1     -48.809  14.172  22.862  0.00  0.00    -0.210 NA
ATOM      6  C   UNL d   1     -49.473  14.649  22.733  0.00  0.00     0.096 A 
ATOM      7  C   UNL d   1     -49.209  15.400  22.520  0.00  0.00     0.059 A 
ATOM      8  S   UNL d   1     -48.385  15.397  22.514  0.00  0.00    -0.033 SA
BRANCH   6   9
ATOM      9  C   UNL d   1     -50.260  14.408  22.807  0.00  0.00     0.088 C 
BRANCH   9  10
ATOM     10  C   UNL d   1     -50.467  13.623  22.675  0.00  0.00     0.302 C 
ATOM     11  O   UNL d   1     -50.709  13.387  21.921  0.00  0.00    -0.259 OA
BRANCH  10  12
ATOM     12  O   UNL d   1     -50.431  13.074  23.291  0.00  0.00    -0.271 OA
BRANCH  12  13
ATOM     13  C   UNL d   1     -50.707  12.307  23.178  0.00  0.00     0.126 C 
ATOM     14  C   UNL d   1     -50.417  11.690  23.644  0.00  0.00     0.029 C 
ENDBRANCH  12  13
ENDBRANCH  10  12
ENDBRANCH   9  10
ENDBRANCH   6   9
ENDBRANCH   3   4
ENDBRANCH   1   3
BRANCH   1  15
ATOM     15  N   UNL d   1     -46.376  13.403  23.166  0.00  0.00    -0.168 NA
ATOM     16  C   UNL d   1     -46.001  12.827  22.707  0.00  0.00     0.282 C 
ATOM     17  O   UNL d   1     -45.808  12.987  21.919  0.00  0.00    -0.265 OA
BRANCH  16  18
ATOM     18  C   UNL d   1     -45.816  12.090  23.030  0.00  0.00     0.060 A 
ATOM     19  C   UNL d   1     -45.035  11.813  23.017  0.00  0.00     0.028 A 
ATOM     20  C   UNL d   1     -44.853  11.079  23.339  0.00  0.00     0.127 A 
ATOM     21  C   UNL d   1     -45.442  10.614  23.677  0.00  0.00     0.024 A 
ATOM     22  C   UNL d   1     -46.220  10.890  23.691  0.00  0.00     0.002 A 
ATOM     23  C   UNL d   1     -46.411  11.632  23.367  0.00  0.00     0.005 A 
BRANCH  20  24
ATOM     24  N   UNL d   1     -44.069  10.814  23.319  0.00  0.00    -0.114 N 
ATOM     25  O   UNL d   1     -43.860  10.089  23.648  0.00  0.00    -0.532 OA
ATOM     26  O   UNL d   1     -43.492  11.285  22.964  0.00  0.00    -0.532 OA
ENDBRANCH  20  24
ENDBRANCH  16  18
ENDBRANCH   1  15
TORSDOF 9
ENDMDL
MODEL 5
REMARK VINA RESULT:      -4.8      4.713      8.567
REMARK  9 active torsions:
REMARK  status: ('A' for Active; 'I' for Inactive)
REMARK    1  A    between atoms: N_6  and  C_1 
REMARK    2  A    between atoms: N_2  and  C_10 
REMARK    3  A    between atoms: C_3  and  N_6 
REMARK    4  A    between atoms: N_4  and  C_3 
REMARK       I    between atoms: C_7  and  N_4 
REMARK    5  A    between atoms: C_12  and  C_7 
REMARK    6  A    between atoms: C_11  and  C_8 
REMARK    7  A    between atoms: C_15  and  C_11 
REMARK    8  A    between atoms: O_21  and  C_15 
REMARK    9  A    between atoms: C_25  and  O_21 
ROOT
ATOM      1  C   UNL d   1     -41.304  14.093  20.616  0.00  0.00     0.277 C 
ATOM      2  S   UNL d   1     -40.889  14.611  21.116  0.00  0.00    -0.023 SA
ENDROOT
BRANCH   1   3
ATOM      3  N   UNL d   1     -41.950  13.675  20.912  0.00  0.00    -0.347 NA
BRANCH   3   4
ATOM      4  C   UNL d   1     -42.602  13.262  21.203  0.00  0.00     0.248 A 
ATOM      5  N   UNL d   1     -43.406  13.476  21.115  0.00  0.00    -0.210 NA
ATOM      6  C   UNL d   1     -43.864  12.902  21.495  0.00  0.00     0.096 A 
ATOM      7  C   UNL d   1     -43.353  12.340  21.815  0.00  0.00     0.059 A 
ATOM      8  S   UNL d   1     -42.579  12.558  21.638  0.00  0.00    -0.033 SA
BRANCH   6   9
ATOM      9  C   UNL d   1     -44.689  12.898  21.543  0.00  0.00     0.088 C 
BRANCH   9  10
ATOM     10  C   UNL d   1     -45.062  12.993  22.270  0.00  0.00     0.302 C 
ATOM     11  O   UNL d   1     -45.015  12.391  22.835  0.00  0.00    -0.259 OA
BRANCH  10  12
ATOM     12  O   UNL d   1     -45.480  13.686  22.435  0.00  0.00    -0.271 OA
BRANCH  12  13
ATOM     13  C   UNL d   1     -46.217  13.647  22.800  0.00  0.00     0.126 C 
ATOM     14  C   UNL d   1     -46.700  14.315  22.831  0.00  0.00     0.029 C 
ENDBRANCH  12  13
ENDBRANCH  10  12
ENDBRANCH   9  10
ENDBRANCH   6   9
ENDBRANCH   3   4
ENDBRANCH   1   3
BRANCH   1  15
ATOM     15  N   UNL d   1     -41.066  14.003  19.831  0.00  0.00    -0.168 NA
ATOM     16  C   UNL d   1     -40.550  14.548  19.485  0.00  0.00     0.282 C 
ATOM     17  O   UNL d   1     -40.270  15.189  19.926  0.00  0.00    -0.265 OA
BRANCH  16  18
ATOM     18  C   UNL d   1     -40.313  14.458  18.700  0.00  0.00     0.060 A 
ATOM     19  C   UNL d   1     -39.686  13.951  18.509  0.00  0.00     0.028 A 
ATOM     20  C   UNL d   1     -39.450  13.862  17.727  0.00  0.00     0.127 A 
ATOM     21  C   UNL d   1     -39.833  14.275  17.127  0.00  0.00     0.024 A 
ATOM     22  C   UNL d   1     -40.458  14.781  17.315  0.00  0.00     0.002 A 
ATOM     23  C   UNL d   1     -40.701  14.875  18.106  0.00  0.00     0.005 A 
BRANCH  20  24
ATOM     24  N   UNL d   1     -38.822  13.352  17.551  0.00  0.00    -0.114 N 
ATOM     25  O   UNL d   1     -38.062  13.645  17.434  0.00  0.00    -0.532 OA
ATOM     26  O   UNL d   1     -38.965  12.542  17.492  0.00  0.00    -0.532 OA
ENDBRANCH  20  24
ENDBRANCH  16  18
ENDBRANCH   1  15
TORSDOF 9
ENDMDL
MODEL 6
REMARK VINA RESULT:      -4.6      3.091      6.966
REMARK  9 active torsions:
REMARK  status: ('A' for Active; 'I' for Inactive)
REMARK    1  A    between atoms: N_6  and  C_1 
REMARK    2  A    between atoms: N_2  and  C_10 
REMARK    3  A    between atoms: C_3  and  N_6 
REMARK    4  A    between atoms: N_4  and  C_3 
REMARK       I    between atoms: C_7  and  N_4 
REMARK    5  A    between atoms: C_12  and  C_7 
REMARK    6  A    between atoms: C_11  and  C_8 
REMARK    7  A    between atoms: C_15  and  C_11 
REMARK    8  A    between atoms: O_21  and  C_15 
REMARK    9  A    between atoms: C_25  and  O_21 
ROOT
ATOM      1  C   UNL d   1     -43.509  12.853  21.671  0.00  0.00     0.277 C 
ATOM      2  S   UNL d   1     -43.163  12.109  21.803  0.00  0.00    -0.023 SA
ENDROOT
BRANCH   1   3
ATOM      3  N   UNL d   1     -44.271  13.002  21.947  0.00  0.00    -0.347 NA
BRANCH   3   4
ATOM      4  C   UNL d   1     -45.036  13.141  22.222  0.00  0.00     0.248 A 
ATOM      5  N   UNL d   1     -45.386  12.811  22.906  0.00  0.00    -0.210 NA
ATOM      6  C   UNL d   1     -46.157  13.106  22.964  0.00  0.00     0.096 A 
ATOM      7  C   UNL d   1     -46.284  13.611  22.325  0.00  0.00     0.059 A 
ATOM      8  S   UNL d   1     -45.599  13.634  21.868  0.00  0.00    -0.033 SA
BRANCH   6   9
ATOM      9  C   UNL d   1     -46.700  12.923  23.560  0.00  0.00     0.088 C 
BRANCH   9  10
ATOM     10  C   UNL d   1     -47.141  12.230  23.518  0.00  0.00     0.302 C 
ATOM     11  O   UNL d   1     -46.762  11.500  23.602  0.00  0.00    -0.259 OA
BRANCH  10  12
ATOM     12  O   UNL d   1     -47.957  12.263  23.393  0.00  0.00    -0.271 OA
BRANCH  12  13
ATOM     13  C   UNL d   1     -48.445  11.675  23.697  0.00  0.00     0.126 C 
ATOM     14  C   UNL d   1     -49.234  11.628  23.458  0.00  0.00     0.029 C 
ENDBRANCH  12  13
ENDBRANCH  10  12
ENDBRANCH   9  10
ENDBRANCH   6   9
ENDBRANCH   3   4
ENDBRANCH   1   3
BRANCH   1  15
ATOM     15  N   UNL d   1     -43.086  13.434  21.265  0.00  0.00    -0.168 NA
ATOM     16  C   UNL d   1     -42.261  13.463  21.314  0.00  0.00     0.282 C 
ATOM     17  O   UNL d   1     -41.855  12.907  21.772  0.00  0.00    -0.265 OA
BRANCH  16  18
ATOM     18  C   UNL d   1     -41.838  14.044  20.908  0.00  0.00     0.060 A 
ATOM     19  C   UNL d   1     -41.434  13.855  20.210  0.00  0.00     0.028 A 
ATOM     20  C   UNL d   1     -41.014  14.435  19.807  0.00  0.00     0.127 A 
ATOM     21  C   UNL d   1     -40.989  15.207  20.093  0.00  0.00     0.024 A 
ATOM     22  C   UNL d   1     -41.391  15.396  20.790  0.00  0.00     0.002 A 
ATOM     23  C   UNL d   1     -41.818  14.813  21.201  0.00  0.00     0.005 A 
BRANCH  20  24
ATOM     24  N   UNL d   1     -40.615  14.233  19.111  0.00  0.00    -0.114 N 
ATOM     25  O   UNL d   1     -41.031  14.071  18.419  0.00  0.00    -0.532 OA
ATOM     26  O   UNL d   1     -39.791  14.195  19.113  0.00  0.00    -0.532 OA
ENDBRANCH  20  24
ENDBRANCH  16  18
ENDBRANCH   1  15
TORSDOF 9
ENDMDL
MODEL 7
REMARK VINA RESULT:      -4.5      2.919      4.368
REMARK  9 active torsions:
REMARK  status: ('A' for Active; 'I' for Inactive)
REMARK    1  A    between atoms: N_6  and  C_1 
REMARK    2  A    between atoms: N_2  and  C_10 
REMARK    3  A    between atoms: C_3  and  N_6 
REMARK    4  A    between atoms: N_4  and  C_3 
REMARK       I    between atoms: C_7  and  N_4 
REMARK    5  A    between atoms: C_12  and  C_7 
REMARK    6  A    between atoms: C_11  and  C_8 
REMARK    7  A    between atoms: C_15  and  C_11 
REMARK    8  A    between atoms: O_21  and  C_15 
REMARK    9  A    between atoms: C_25  and  O_21 
ROOT
ATOM      1  C   UNL d   1     -44.474  12.620  22.123  0.00  0.00     0.277 C 
ATOM      2  S   UNL d   1     -44.464  11.908  22.551  0.00  0.00    -0.023 SA
ENDROOT
BRANCH   1   3
ATOM      3  N   UNL d   1     -43.784  12.883  21.755  0.00  0.00    -0.347 NA
BRANCH   3   4
ATOM      4  C   UNL d   1     -43.099  13.154  21.383  0.00  0.00     0.248 A 
ATOM      5  N   UNL d   1     -42.510  13.642  21.721  0.00  0.00    -0.210 NA
ATOM      6  C   UNL d   1     -41.929  13.771  21.146  0.00  0.00     0.096 A 
ATOM      7  C   UNL d   1     -42.154  13.369  20.462  0.00  0.00     0.059 A 
ATOM      8  S   UNL d   1     -42.871  12.990  20.605  0.00  0.00    -0.033 SA
BRANCH   6   9
ATOM      9  C   UNL d   1     -41.245  14.224  21.246  0.00  0.00     0.088 C 
BRANCH   9  10
ATOM     10  C   UNL d   1     -41.171  14.951  20.867  0.00  0.00     0.302 C 
ATOM     11  O   UNL d   1     -41.694  15.563  21.054  0.00  0.00    -0.259 OA
BRANCH  10  12
ATOM     12  O   UNL d   1     -40.580  15.067  20.303  0.00  0.00    -0.271 OA
BRANCH  12  13
ATOM     13  C   UNL d   1     -40.117  15.747  20.324  0.00  0.00     0.126 C 
ATOM     14  C   UNL d   1     -39.544  15.876  19.743  0.00  0.00     0.029 C 
ENDBRANCH  12  13
ENDBRANCH  10  12
ENDBRANCH   9  10
ENDBRANCH   6   9
ENDBRANCH   3   4
ENDBRANCH   1   3
BRANCH   1  15
ATOM     15  N   UNL d   1     -45.173  13.055  22.069  0.00  0.00    -0.168 NA
ATOM     16  C   UNL d   1     -45.736  13.019  22.674  0.00  0.00     0.282 C 
ATOM     17  O   UNL d   1     -45.599  12.545  23.338  0.00  0.00    -0.265 OA
BRANCH  16  18
ATOM     18  C   UNL d   1     -46.435  13.454  22.621  0.00  0.00     0.060 A 
ATOM     19  C   UNL d   1     -47.127  13.098  22.336  0.00  0.00     0.028 A 
ATOM     20  C   UNL d   1     -47.823  13.533  22.284  0.00  0.00     0.127 A 
ATOM     21  C   UNL d   1     -47.839  14.323  22.513  0.00  0.00     0.024 A 
ATOM     22  C   UNL d   1     -47.149  14.679  22.797  0.00  0.00     0.002 A 
ATOM     23  C   UNL d   1     -46.442  14.244  22.852  0.00  0.00     0.005 A 
BRANCH  20  24
ATOM     24  N   UNL d   1     -48.507  13.165  21.998  0.00  0.00    -0.114 N 
ATOM     25  O   UNL d   1     -49.013  12.762  22.507  0.00  0.00    -0.532 OA
ATOM     26  O   UNL d   1     -48.680  13.206  21.193  0.00  0.00    -0.532 OA
ENDBRANCH  20  24
ENDBRANCH  16  18
ENDBRANCH   1  15
TORSDOF 9
ENDMDL
MODEL 8
REMARK VINA RESULT:      -4.2      1.822      2.634
REMARK  9 active torsions:
REMARK  status: ('A' for Active; 'I' for Inactive)
REMARK    1  A    between atoms: N_6  and  C_1 
REMARK    2  A    between atoms: N_2  and  C_10 
REMARK    3  A    between atoms: C_3  and  N_6 
REMARK    4  A    between atoms: N_4  and  C_3 
REMARK       I    between atoms: C_7  and  N_4 
REMARK    5  A    between atoms: C_12  and  C_7 
REMARK    6  A    between atoms: C_11  and  C_8 
REMARK    7  A    between atoms: C_15  and  C_11 
REMARK    8  A    between atoms: O_21  and  C_15 
REMARK    9  A    between atoms: C_25  and  O_21 
ROOT
ATOM      1  C   UNL d   1     -47.486  14.507  22.766  0.00  0.00     0.277 C 
ATOM      2  S   UNL d   1     -47.463  15.333  22.685  0.00  0.00    -0.023 SA
ENDROOT
BRANCH   1   3
ATOM      3  N   UNL d   1     -46.797  14.068  22.655  0.00  0.00    -0.347 NA
BRANCH   3   4
ATOM      4  C   UNL d   1     -46.102  13.636  22.549  0.00  0.00     0.248 A 
ATOM      5  N   UNL d   1     -46.039  12.805  22.478  0.00  0.00    -0.210 NA
ATOM      6  C   UNL d   1     -45.239  12.620  22.380  0.00  0.00     0.096 A 
ATOM      7  C   UNL d   1     -44.811  13.324  22.391  0.00  0.00     0.059 A 
ATOM      8  S   UNL d   1     -45.338  13.950  22.495  0.00  0.00    -0.033 SA
BRANCH   6   9
ATOM      9  C   UNL d   1     -44.929  11.859  22.289  0.00  0.00     0.088 C 
BRANCH   9  10
ATOM     10  C   UNL d   1     -44.176  11.682  22.572  0.00  0.00     0.302 C 
ATOM     11  O   UNL d   1     -43.515  12.023  22.213  0.00  0.00    -0.259 OA
BRANCH  10  12
ATOM     12  O   UNL d   1     -44.084  11.168  23.212  0.00  0.00    -0.271 OA
BRANCH  12  13
ATOM     13  C   UNL d   1     -43.729  10.434  23.102  0.00  0.00     0.126 C 
ATOM     14  C   UNL d   1     -43.770   9.861  23.696  0.00  0.00     0.029 C 
ENDBRANCH  12  13
ENDBRANCH  10  12
ENDBRANCH   9  10
ENDBRANCH   6   9
ENDBRANCH   3   4
ENDBRANCH   1   3
BRANCH   1  15
ATOM     15  N   UNL d   1     -48.198  14.134  22.956  0.00  0.00    -0.168 NA
ATOM     16  C   UNL d   1     -48.913  14.420  22.656  0.00  0.00     0.282 C 
ATOM     17  O   UNL d   1     -48.919  15.084  22.163  0.00  0.00    -0.265 OA
BRANCH  16  18
ATOM     18  C   UNL d   1     -49.625  14.047  22.846  0.00  0.00     0.060 A 
ATOM     19  C   UNL d   1     -49.680  13.220  22.832  0.00  0.00     0.028 A 
ATOM     20  C   UNL d   1     -50.389  12.851  23.021  0.00  0.00     0.127 A 
ATOM     21  C   UNL d   1     -51.049  13.297  23.226  0.00  0.00     0.024 A 
ATOM     22  C   UNL d   1     -50.996  14.121  23.241  0.00  0.00     0.002 A 
ATOM     23  C   UNL d   1     -50.281  14.501  23.050  0.00  0.00     0.005 A 
BRANCH  20  24
ATOM     24  N   UNL d   1     -50.430  12.024  23.003  0.00  0.00    -0.114 N 
ATOM     25  O   UNL d   1     -50.396  11.585  23.698  0.00  0.00    -0.532 OA
ATOM     26  O   UNL d   1     -50.506  11.640  22.277  0.00  0.00    -0.532 OA
ENDBRANCH  20  24
ENDBRANCH  16  18
ENDBRANCH   1  15
TORSDOF 9
ENDMDL
