MODEL 1
REMARK VINA RESULT:      72.5      0.000      0.000
REMARK  8 active torsions:
REMARK  status: ('A' for Active; 'I' for Inactive)
REMARK    1  A    between atoms: N_5  and  C_1 
REMARK    2  A    between atoms: N_7  and  C_1 
REMARK    3  A    between atoms: N_2  and  C_3 
REMARK    4  A    between atoms: C_3  and  C_4 
REMARK    5  A    between atoms: C_6  and  C_3 
REMARK    6  A    between atoms: C_4  and  N_5 
REMARK    7  A    between atoms: C_8  and  N_7 
REMARK    8  A    between atoms: C_25  and  N_10 
ROOT
ATOM      1  C   UNL d   1     -51.175  24.997  33.808  0.00  0.00     0.088 C 
ENDROOT
BRANCH   1   2
ATOM      2  N   UNL d   1     -51.929  24.666  33.717  0.00  0.00    -0.300 N 
ATOM      3  C   UNL d   1     -52.066  23.887  33.946  0.00  0.00     0.100 A 
ATOM      4  C   UNL d   1     -52.812  23.559  33.856  0.00  0.00     0.100 A 
ATOM      5  N   UNL d   1     -53.433  24.003  33.536  0.00  0.00    -0.300 N 
ATOM      6  C   UNL d   1     -53.293  24.787  33.306  0.00  0.00     0.100 A 
ATOM      7  C   UNL d   1     -52.543  25.125  33.394  0.00  0.00     0.100 A 
BRANCH   5   8
ATOM      8  C   UNL d   1     -54.179  23.671  33.447  0.00  0.00     0.080 C 
ATOM      9  C   UNL d   1     -54.489  23.197  34.051  0.00  0.00     0.021 C 
ENDBRANCH   5   8
ENDBRANCH   1   2
BRANCH   1  10
ATOM     10  C   UNL d   1     -51.091  25.767  34.084  0.00  0.00     0.100 C 
ATOM     11  C   UNL d   1     -50.945  26.374  33.557  0.00  0.00     0.022 C 
BRANCH  10  12
ATOM     12  N   UNL d   1     -51.156  25.917  34.889  0.00  0.00    -0.216 NA
BRANCH  12  13
ATOM     13  C   UNL d   1     -51.037  26.685  35.176  0.00  0.00     0.221 C 
ATOM     14  S   UNL d   1     -50.429  27.142  34.867  0.00  0.00    -0.037 SA
BRANCH  13  15
ATOM     15  N   UNL d   1     -51.526  26.982  35.765  0.00  0.00    -0.217 NA
BRANCH  15  16
ATOM     16  C   UNL d   1     -51.448  26.723  36.544  0.00  0.00     0.084 A 
ATOM     17  C   UNL d   1     -50.802  26.956  36.989  0.00  0.00     0.018 A 
ATOM     18  C   UNL d   1     -50.719  26.703  37.762  0.00  0.00     0.002 A 
ATOM     19  C   UNL d   1     -50.231  27.455  36.649  0.00  0.00     0.002 C 
ATOM     20  C   UNL d   1     -51.293  26.205  38.097  0.00  0.00     0.000 A 
ATOM     21  C   UNL d   1     -51.952  25.966  37.643  0.00  0.00     0.002 A 
ATOM     22  C   UNL d   1     -52.025  26.226  36.870  0.00  0.00     0.019 A 
ATOM     23  C   UNL d   1     -52.522  25.473  37.972  0.00  0.00     0.000 C 
ENDBRANCH  15  16
ENDBRANCH  13  15
ENDBRANCH  12  13
ENDBRANCH  10  12
ENDBRANCH   1  10
BRANCH   1  24
ATOM     24  C   UNL d   1     -50.510  24.551  33.622  0.00  0.00     0.047 A 
ATOM     25  S   UNL d   1     -50.487  23.737  33.476  0.00  0.00    -0.085 SA
ATOM     26  C   UNL d   1     -49.710  23.527  33.312  0.00  0.00     0.035 A 
ATOM     27  C   UNL d   1     -49.238  24.203  33.353  0.00  0.00     0.007 A 
ATOM     28  C   UNL d   1     -49.733  24.844  33.545  0.00  0.00     0.009 A 
ENDBRANCH   1  24
TORSDOF 8
ENDMDL
