MODEL 1
REMARK VINA RESULT:      -0.6      0.000      0.000
REMARK  4 active torsions:
REMARK  status: ('A' for Active; 'I' for Inactive)
REMARK    1  A    between atoms: C_10  and  C_3 
REMARK    2  A    between atoms: C_12  and  C_6 
REMARK    3  A    between atoms: O_15  and  C_10 
REMARK    4  A    between atoms: C_22  and  O_15 
ROOT
ATOM      1  C   UNL d   1      58.041  -0.668  30.753  0.00  0.00     0.057 A 
ATOM      2  C   UNL d   1      57.443  -1.190  30.977  0.00  0.00     0.085 A 
ATOM      3  C   UNL d   1      58.507  -1.615  29.795  0.00  0.00     0.081 A 
ATOM      4  N   UNL d   1      57.371  -1.922  30.617  0.00  0.00    -0.245 NA
ATOM      5  C   UNL d   1      57.972   0.015  31.209  0.00  0.00     0.197 A 
ATOM      6  C   UNL d   1      58.570  -0.884  30.163  0.00  0.00     0.013 A 
ATOM      7  C   UNL d   1      57.906  -2.139  30.020  0.00  0.00     0.086 A 
ATOM      8  C   UNL d   1      57.001  -0.828  31.576  0.00  0.00     0.021 A 
ATOM      9  C   UNL d   1      57.326  -0.086  31.719  0.00  0.00     0.041 A 
ATOM     10  O   UNL d   1      58.460   0.682  31.167  0.00  0.00    -0.286 OA
ATOM     11  C   UNL d   1      57.840  -2.874  29.653  0.00  0.00     0.021 C 
ATOM     12  C   UNL d   1      56.337  -1.079  32.014  0.00  0.00     0.002 A 
ATOM     13  C   UNL d   1      56.999   0.412  32.296  0.00  0.00     0.003 A 
ATOM     14  C   UNL d   1      56.338   0.157  32.728  0.00  0.00     0.000 A 
ATOM     15  C   UNL d   1      56.016  -0.584  32.584  0.00  0.00     0.000 A 
ENDROOT
BRANCH   6  16
ATOM     16  C   UNL d   1      59.169  -0.362  29.938  0.00  0.00     0.020 A 
ATOM     17  C   UNL d   1      59.866  -0.339  30.367  0.00  0.00     0.099 A 
ATOM     18  N   UNL d   1      60.467   0.182  30.146  0.00  0.00    -0.242 NA
ATOM     19  C   UNL d   1      60.366   0.682  29.490  0.00  0.00     0.099 A 
ATOM     20  C   UNL d   1      59.658   0.656  29.057  0.00  0.00     0.021 A 
ATOM     21  C   UNL d   1      59.059   0.134  29.281  0.00  0.00     0.003 A 
ENDBRANCH   6  16
BRANCH   3  22
ATOM     22  C   UNL d   1      59.038  -1.833  29.202  0.00  0.00     0.302 C 
ATOM     23  O   UNL d   1      58.980  -1.487  28.455  0.00  0.00    -0.259 OA
BRANCH  22  24
ATOM     24  O   UNL d   1      59.622  -2.393  29.354  0.00  0.00    -0.271 OA
BRANCH  24  25
ATOM     25  C   UNL d   1      59.920  -2.851  28.737  0.00  0.00     0.126 C 
ATOM     26  C   UNL d   1      60.552  -3.360  28.874  0.00  0.00     0.029 C 
ENDBRANCH  24  25
ENDBRANCH  22  24
ENDBRANCH   3  22
TORSDOF 4
ENDMDL
MODEL 2
REMARK VINA RESULT:       1.0      1.218      2.347
REMARK  4 active torsions:
REMARK  status: ('A' for Active; 'I' for Inactive)
REMARK    1  A    between atoms: C_10  and  C_3 
REMARK    2  A    between atoms: C_12  and  C_6 
REMARK    3  A    between atoms: O_15  and  C_10 
REMARK    4  A    between atoms: C_22  and  O_15 
ROOT
ATOM      1  C   UNL d   1      58.058  -0.649  30.950  0.00  0.00     0.057 A 
ATOM      2  C   UNL d   1      58.145  -0.097  31.556  0.00  0.00     0.085 A 
ATOM      3  C   UNL d   1      59.359  -0.325  30.467  0.00  0.00     0.081 A 
ATOM      4  N   UNL d   1      58.832   0.342  31.624  0.00  0.00    -0.245 NA
ATOM      5  C   UNL d   1      57.316  -1.000  31.025  0.00  0.00     0.197 A 
ATOM      6  C   UNL d   1      58.665  -0.760  30.408  0.00  0.00     0.013 A 
ATOM      7  C   UNL d   1      59.447   0.230  31.076  0.00  0.00     0.086 A 
ATOM      8  C   UNL d   1      57.453  -0.106  32.010  0.00  0.00     0.021 A 
ATOM      9  C   UNL d   1      56.941  -0.662  31.684  0.00  0.00     0.041 A 
ATOM     10  O   UNL d   1      56.999  -1.585  30.533  0.00  0.00    -0.286 OA
ATOM     11  C   UNL d   1      60.141   0.669  31.138  0.00  0.00     0.021 C 
ATOM     12  C   UNL d   1      57.218   0.323  32.685  0.00  0.00     0.002 A 
ATOM     13  C   UNL d   1      56.196  -0.797  32.022  0.00  0.00     0.003 A 
ATOM     14  C   UNL d   1      55.969  -0.366  32.693  0.00  0.00     0.000 A 
ATOM     15  C   UNL d   1      56.480   0.187  33.017  0.00  0.00     0.000 A 
ENDROOT
BRANCH   6  16
ATOM     16  C   UNL d   1      58.578  -1.312  29.801  0.00  0.00     0.020 A 
ATOM     17  C   UNL d   1      58.787  -2.093  29.932  0.00  0.00     0.099 A 
ATOM     18  N   UNL d   1      58.701  -2.648  29.328  0.00  0.00    -0.242 NA
ATOM     19  C   UNL d   1      58.403  -2.417  28.588  0.00  0.00     0.099 A 
ATOM     20  C   UNL d   1      58.191  -1.624  28.458  0.00  0.00     0.021 A 
ATOM     21  C   UNL d   1      58.279  -1.072  29.064  0.00  0.00     0.003 A 
ENDBRANCH   6  16
BRANCH   3  22
ATOM     22  C   UNL d   1      59.970  -0.435  29.924  0.00  0.00     0.302 C 
ATOM     23  O   UNL d   1      60.378  -1.152  29.908  0.00  0.00    -0.259 OA
BRANCH  22  24
ATOM     24  O   UNL d   1      60.173   0.167  29.400  0.00  0.00    -0.271 OA
BRANCH  24  25
ATOM     25  C   UNL d   1      60.947   0.227  29.125  0.00  0.00     0.126 C 
ATOM     26  C   UNL d   1      61.110   0.681  28.458  0.00  0.00     0.029 C 
ENDBRANCH  24  25
ENDBRANCH  22  24
ENDBRANCH   3  22
TORSDOF 4
ENDMDL
MODEL 3
REMARK VINA RESULT:       1.6      1.441      2.268
REMARK  4 active torsions:
REMARK  status: ('A' for Active; 'I' for Inactive)
REMARK    1  A    between atoms: C_10  and  C_3 
REMARK    2  A    between atoms: C_12  and  C_6 
REMARK    3  A    between atoms: O_15  and  C_10 
REMARK    4  A    between atoms: C_22  and  O_15 
ROOT
ATOM      1  C   UNL d   1      58.040   0.164  31.376  0.00  0.00     0.057 A 
ATOM      2  C   UNL d   1      58.256   0.400  32.136  0.00  0.00     0.085 A 
ATOM      3  C   UNL d   1      59.408   0.188  30.979  0.00  0.00     0.081 A 
ATOM      4  N   UNL d   1      59.042   0.531  32.324  0.00  0.00    -0.245 NA
ATOM      5  C   UNL d   1      57.220   0.077  31.357  0.00  0.00     0.197 A 
ATOM      6  C   UNL d   1      58.617   0.060  30.801  0.00  0.00     0.013 A 
ATOM      7  C   UNL d   1      59.626   0.425  31.743  0.00  0.00     0.086 A 
ATOM      8  C   UNL d   1      57.566   0.459  32.590  0.00  0.00     0.021 A 
ATOM      9  C   UNL d   1      56.928   0.260  32.111  0.00  0.00     0.041 A 
ATOM     10  O   UNL d   1      56.768  -0.152  30.703  0.00  0.00    -0.286 OA
ATOM     11  C   UNL d   1      60.419   0.556  31.924  0.00  0.00     0.021 C 
ATOM     12  C   UNL d   1      57.435   0.669  33.386  0.00  0.00     0.002 A 
ATOM     13  C   UNL d   1      56.156   0.268  32.414  0.00  0.00     0.003 A 
ATOM     14  C   UNL d   1      56.032   0.479  33.207  0.00  0.00     0.000 A 
ATOM     15  C   UNL d   1      56.670   0.677  33.683  0.00  0.00     0.000 A 
ENDROOT
BRANCH   6  16
ATOM     16  C   UNL d   1      58.400  -0.176  30.041  0.00  0.00     0.020 A 
ATOM     17  C   UNL d   1      58.307  -0.972  29.876  0.00  0.00     0.099 A 
ATOM     18  N   UNL d   1      58.091  -1.212  29.117  0.00  0.00    -0.242 NA
ATOM     19  C   UNL d   1      57.967  -0.647  28.520  0.00  0.00     0.099 A 
ATOM     20  C   UNL d   1      58.062   0.160  28.690  0.00  0.00     0.021 A 
ATOM     21  C   UNL d   1      58.278   0.396  29.450  0.00  0.00     0.003 A 
ENDBRANCH   6  16
BRANCH   3  22
ATOM     22  C   UNL d   1      59.989   0.084  30.403  0.00  0.00     0.302 C 
ATOM     23  O   UNL d   1      60.106   0.668  29.831  0.00  0.00    -0.259 OA
BRANCH  22  24
ATOM     24  O   UNL d   1      60.450  -0.598  30.397  0.00  0.00    -0.271 OA
BRANCH  24  25
ATOM     25  C   UNL d   1      61.064  -0.673  29.853  0.00  0.00     0.126 C 
ATOM     26  C   UNL d   1      61.133  -1.361  29.406  0.00  0.00     0.029 C 
ENDBRANCH  24  25
ENDBRANCH  22  24
ENDBRANCH   3  22
TORSDOF 4
ENDMDL
