MODEL 1
REMARK VINA RESULT:      17.3      0.000      0.000
REMARK  2 active torsions:
REMARK  status: ('A' for Active; 'I' for Inactive)
REMARK    1  A    between atoms: C_6  and  N_1 
REMARK    2  A    between atoms: C_7  and  C_6 
ROOT
ATOM      1  N   UNL d   1      58.696  49.702  50.407  0.00  0.00    -0.236 N 
ATOM      2  C   UNL d   1      58.489  49.704  49.622  0.00  0.00     0.267 A 
ATOM      3  C   UNL d   1      58.024  49.701  50.856  0.00  0.00     0.267 A 
ATOM      4  C   UNL d   1      57.673  49.705  49.578  0.00  0.00     0.061 A 
ATOM      5  C   UNL d   1      57.382  49.703  50.350  0.00  0.00     0.061 A 
ATOM      6  O   UNL d   1      59.010  49.706  48.964  0.00  0.00    -0.267 OA
ATOM      7  O   UNL d   1      57.980  49.698  51.698  0.00  0.00    -0.267 OA
ATOM      8  C   UNL d   1      56.567  49.703  50.476  0.00  0.00     0.005 A 
ATOM      9  C   UNL d   1      57.144  49.707  48.945  0.00  0.00     0.005 A 
ATOM     10  C   UNL d   1      56.325  49.707  49.071  0.00  0.00     0.000 A 
ATOM     11  C   UNL d   1      56.035  49.705  49.842  0.00  0.00     0.000 A 
ENDROOT
BRANCH   1  12
ATOM     12  C   UNL d   1      59.483  49.701  50.678  0.00  0.00     0.134 C 
ATOM     13  C   UNL d   1      59.670  49.706  51.467  0.00  0.00     0.026 C 
BRANCH  12  14
ATOM     14  C   UNL d   1      60.095  49.693  50.108  0.00  0.00     0.228 C 
ATOM     15  O   UNL d   1      59.903  49.678  49.295  0.00  0.00    -0.643 OA
ATOM     16  O   UNL d   1      60.890  49.700  50.346  0.00  0.00    -0.643 OA
ENDBRANCH  12  14
ENDBRANCH   1  12
TORSDOF 2
ENDMDL
