MODEL 1
REMARK VINA RESULT:      -7.2      0.000      0.000
REMARK  3 active torsions:
REMARK  status: ('A' for Active; 'I' for Inactive)
REMARK    1  A    between atoms: N_2  and  S_1 
REMARK    2  A    between atoms: C_5  and  S_1 
REMARK    3  A    between atoms: C_4  and  N_3 
ROOT
ATOM      1  N   UNL d   1     -47.629  12.682  22.901  0.00  0.00    -0.226 N 
ATOM      2  N   UNL d   1     -49.005  13.554  22.638  0.00  0.00    -0.301 N 
ATOM      3  C   UNL d   1     -48.289  12.564  23.374  0.00  0.00     0.111 A 
ATOM      4  C   UNL d   1     -47.651  13.243  22.286  0.00  0.00     0.111 A 
ATOM      5  C   UNL d   1     -48.977  13.000  23.242  0.00  0.00     0.100 A 
ATOM      6  C   UNL d   1     -48.339  13.679  22.154  0.00  0.00     0.100 A 
ENDROOT
BRANCH   1   7
ATOM      7  S   UNL d   1     -46.941  12.246  23.033  0.00  0.00     0.271 S 
ATOM      8  O   UNL d   1     -47.307  11.575  22.725  0.00  0.00    -0.200 OA
ATOM      9  O   UNL d   1     -46.574  12.919  23.341  0.00  0.00    -0.200 OA
BRANCH   7  10
ATOM     10  C   UNL d   1     -46.253  11.810  23.164  0.00  0.00     0.104 A 
ATOM     11  C   UNL d   1     -46.288  11.097  23.566  0.00  0.00     0.015 A 
ATOM     12  C   UNL d   1     -45.601  10.661  23.698  0.00  0.00     0.030 A 
ATOM     13  C   UNL d   1     -44.879  10.940  23.427  0.00  0.00     0.140 A 
ATOM     14  C   UNL d   1     -44.836  11.664  23.019  0.00  0.00     0.030 A 
ATOM     15  F   UNL d   1     -44.191  10.504  23.559  0.00  0.00    -0.204 F 
ATOM     16  C   UNL d   1     -45.523  12.099  22.887  0.00  0.00     0.015 A 
ENDBRANCH   7  10
ENDBRANCH   1   7
BRANCH   2  17
ATOM     17  C   UNL d   1     -49.690  13.987  22.507  0.00  0.00     0.064 A 
ATOM     18  C   UNL d   1     -50.298  13.672  22.055  0.00  0.00     0.016 A 
ATOM     19  C   UNL d   1     -50.986  14.108  21.924  0.00  0.00     0.001 A 
ATOM     20  C   UNL d   1     -50.221  12.915  21.731  0.00  0.00     0.002 C 
ATOM     21  C   UNL d   1     -51.064  14.858  22.244  0.00  0.00     0.000 A 
ATOM     22  C   UNL d   1     -50.453  15.185  22.702  0.00  0.00     0.001 A 
ATOM     23  C   UNL d   1     -49.765  14.749  22.834  0.00  0.00     0.016 A 
ATOM     24  C   UNL d   1     -49.156  15.065  23.286  0.00  0.00     0.002 C 
ENDBRANCH   2  17
TORSDOF 3
ENDMDL
MODEL 2
REMARK VINA RESULT:      -7.1      1.192      1.720
REMARK  3 active torsions:
REMARK  status: ('A' for Active; 'I' for Inactive)
REMARK    1  A    between atoms: N_2  and  S_1 
REMARK    2  A    between atoms: C_5  and  S_1 
REMARK    3  A    between atoms: C_4  and  N_3 
ROOT
ATOM      1  N   UNL d   1     -47.167  13.390  22.599  0.00  0.00    -0.226 N 
ATOM      2  N   UNL d   1     -48.723  13.876  22.850  0.00  0.00    -0.301 N 
ATOM      3  C   UNL d   1     -47.343  13.911  23.207  0.00  0.00     0.111 A 
ATOM      4  C   UNL d   1     -47.773  13.104  22.105  0.00  0.00     0.111 A 
ATOM      5  C   UNL d   1     -48.122  14.154  23.333  0.00  0.00     0.100 A 
ATOM      6  C   UNL d   1     -48.552  13.347  22.231  0.00  0.00     0.100 A 
ENDROOT
BRANCH   1   7
ATOM      7  S   UNL d   1     -46.388  13.146  22.473  0.00  0.00     0.271 S 
ATOM      8  O   UNL d   1     -46.220  13.275  23.270  0.00  0.00    -0.200 OA
ATOM      9  O   UNL d   1     -46.557  13.018  21.675  0.00  0.00    -0.200 OA
BRANCH   7  10
ATOM     10  C   UNL d   1     -45.610  12.903  22.348  0.00  0.00     0.104 A 
ATOM     11  C   UNL d   1     -45.120  13.331  21.849  0.00  0.00     0.015 A 
ATOM     12  C   UNL d   1     -44.343  13.088  21.724  0.00  0.00     0.030 A 
ATOM     13  C   UNL d   1     -44.055  12.417  22.097  0.00  0.00     0.140 A 
ATOM     14  C   UNL d   1     -44.547  11.979  22.605  0.00  0.00     0.030 A 
ATOM     15  F   UNL d   1     -43.277  12.174  21.972  0.00  0.00    -0.204 F 
ATOM     16  C   UNL d   1     -45.325  12.221  22.730  0.00  0.00     0.015 A 
ENDBRANCH   7  10
ENDBRANCH   1   7
BRANCH   2  17
ATOM     17  C   UNL d   1     -49.498  14.118  22.975  0.00  0.00     0.064 A 
ATOM     18  C   UNL d   1     -49.748  14.854  22.711  0.00  0.00     0.016 A 
ATOM     19  C   UNL d   1     -50.526  15.097  22.836  0.00  0.00     0.001 A 
ATOM     20  C   UNL d   1     -49.218  15.353  22.318  0.00  0.00     0.002 C 
ATOM     21  C   UNL d   1     -51.052  14.604  23.225  0.00  0.00     0.000 A 
ATOM     22  C   UNL d   1     -50.808  13.857  23.496  0.00  0.00     0.001 A 
ATOM     23  C   UNL d   1     -50.029  13.614  23.370  0.00  0.00     0.016 A 
ATOM     24  C   UNL d   1     -49.779  12.877  23.634  0.00  0.00     0.002 C 
ENDBRANCH   2  17
TORSDOF 3
ENDMDL
MODEL 3
REMARK VINA RESULT:      -5.9      2.187      4.966
REMARK  3 active torsions:
REMARK  status: ('A' for Active; 'I' for Inactive)
REMARK    1  A    between atoms: N_2  and  S_1 
REMARK    2  A    between atoms: C_5  and  S_1 
REMARK    3  A    between atoms: C_4  and  N_3 
ROOT
ATOM      1  N   UNL d   1     -47.715  13.507  22.950  0.00  0.00    -0.226 N 
ATOM      2  N   UNL d   1     -46.374  12.545  22.949  0.00  0.00    -0.301 N 
ATOM      3  C   UNL d   1     -47.577  12.992  22.326  0.00  0.00     0.111 A 
ATOM      4  C   UNL d   1     -47.178  13.546  23.585  0.00  0.00     0.111 A 
ATOM      5  C   UNL d   1     -46.906  12.511  22.326  0.00  0.00     0.100 A 
ATOM      6  C   UNL d   1     -46.508  13.065  23.584  0.00  0.00     0.100 A 
ENDROOT
BRANCH   1   7
ATOM      7  S   UNL d   1     -48.385  13.988  22.950  0.00  0.00     0.271 S 
ATOM      8  O   UNL d   1     -48.864  13.321  23.015  0.00  0.00    -0.200 OA
ATOM      9  O   UNL d   1     -47.905  14.657  22.885  0.00  0.00    -0.200 OA
BRANCH   7  10
ATOM     10  C   UNL d   1     -49.055  14.469  22.951  0.00  0.00     0.104 A 
ATOM     11  C   UNL d   1     -49.721  14.248  23.376  0.00  0.00     0.015 A 
ATOM     12  C   UNL d   1     -50.390  14.728  23.376  0.00  0.00     0.030 A 
ATOM     13  C   UNL d   1     -50.394  15.430  22.952  0.00  0.00     0.140 A 
ATOM     14  C   UNL d   1     -49.722  15.660  22.518  0.00  0.00     0.030 A 
ATOM     15  F   UNL d   1     -51.064  15.911  22.952  0.00  0.00    -0.204 F 
ATOM     16  C   UNL d   1     -49.053  15.180  22.518  0.00  0.00     0.015 A 
ENDBRANCH   7  10
ENDBRANCH   1   7
BRANCH   2  17
ATOM     17  C   UNL d   1     -45.707  12.067  22.948  0.00  0.00     0.064 A 
ATOM     18  C   UNL d   1     -45.020  12.317  22.577  0.00  0.00     0.016 A 
ATOM     19  C   UNL d   1     -44.349  11.836  22.576  0.00  0.00     0.001 A 
ATOM     20  C   UNL d   1     -44.999  13.054  22.202  0.00  0.00     0.002 C 
ATOM     21  C   UNL d   1     -44.368  11.106  22.947  0.00  0.00     0.000 A 
ATOM     22  C   UNL d   1     -45.060  10.844  23.326  0.00  0.00     0.001 A 
ATOM     23  C   UNL d   1     -45.731  11.325  23.326  0.00  0.00     0.016 A 
ATOM     24  C   UNL d   1     -46.419  11.074  23.698  0.00  0.00     0.002 C 
ENDBRANCH   2  17
TORSDOF 3
ENDMDL
MODEL 4
REMARK VINA RESULT:      -5.8      9.217     10.590
REMARK  3 active torsions:
REMARK  status: ('A' for Active; 'I' for Inactive)
REMARK    1  A    between atoms: N_2  and  S_1 
REMARK    2  A    between atoms: C_5  and  S_1 
REMARK    3  A    between atoms: C_4  and  N_3 
ROOT
ATOM      1  N   UNL d   1     -38.901  14.370  18.208  0.00  0.00    -0.226 N 
ATOM      2  N   UNL d   1     -39.281  14.662  19.787  0.00  0.00    -0.301 N 
ATOM      3  C   UNL d   1     -38.395  14.812  18.679  0.00  0.00     0.111 A 
ATOM      4  C   UNL d   1     -39.608  14.067  18.525  0.00  0.00     0.111 A 
ATOM      5  C   UNL d   1     -38.585  14.958  19.469  0.00  0.00     0.100 A 
ATOM      6  C   UNL d   1     -39.798  14.212  19.315  0.00  0.00     0.100 A 
ENDROOT
BRANCH   1   7
ATOM      7  S   UNL d   1     -38.711  14.224  17.418  0.00  0.00     0.271 S 
ATOM      8  O   UNL d   1     -39.237  13.590  17.409  0.00  0.00    -0.200 OA
ATOM      9  O   UNL d   1     -38.184  14.860  17.427  0.00  0.00    -0.200 OA
BRANCH   7  10
ATOM     10  C   UNL d   1     -38.521  14.079  16.629  0.00  0.00     0.104 A 
ATOM     11  C   UNL d   1     -38.710  14.629  16.051  0.00  0.00     0.015 A 
ATOM     12  C   UNL d   1     -38.521  14.484  15.262  0.00  0.00     0.030 A 
ATOM     13  C   UNL d   1     -38.142  13.788  15.051  0.00  0.00     0.140 A 
ATOM     14  C   UNL d   1     -37.947  13.225  15.633  0.00  0.00     0.030 A 
ATOM     15  F   UNL d   1     -37.952  13.642  14.262  0.00  0.00    -0.204 F 
ATOM     16  C   UNL d   1     -38.137  13.370  16.421  0.00  0.00     0.015 A 
ENDBRANCH   7  10
ENDBRANCH   1   7
BRANCH   2  17
ATOM     17  C   UNL d   1     -39.470  14.807  20.572  0.00  0.00     0.064 A 
ATOM     18  C   UNL d   1     -39.961  15.434  20.770  0.00  0.00     0.016 A 
ATOM     19  C   UNL d   1     -40.151  15.579  21.560  0.00  0.00     0.001 A 
ATOM     20  C   UNL d   1     -40.266  15.921  20.175  0.00  0.00     0.002 C 
ATOM     21  C   UNL d   1     -39.849  15.098  22.149  0.00  0.00     0.000 A 
ATOM     22  C   UNL d   1     -39.350  14.461  21.958  0.00  0.00     0.001 A 
ATOM     23  C   UNL d   1     -39.161  14.315  21.169  0.00  0.00     0.016 A 
ATOM     24  C   UNL d   1     -38.669  13.687  20.971  0.00  0.00     0.002 C 
ENDBRANCH   2  17
TORSDOF 3
ENDMDL
MODEL 5
REMARK VINA RESULT:      -5.7      9.225     10.880
REMARK  3 active torsions:
REMARK  status: ('A' for Active; 'I' for Inactive)
REMARK    1  A    between atoms: N_2  and  S_1 
REMARK    2  A    between atoms: C_5  and  S_1 
REMARK    3  A    between atoms: C_4  and  N_3 
ROOT
ATOM      1  N   UNL d   1     -38.849  14.685  19.018  0.00  0.00    -0.226 N 
ATOM      2  N   UNL d   1     -38.529  14.284  17.450  0.00  0.00    -0.301 N 
ATOM      3  C   UNL d   1     -38.106  14.824  18.699  0.00  0.00     0.111 A 
ATOM      4  C   UNL d   1     -39.445  14.340  18.550  0.00  0.00     0.111 A 
ATOM      5  C   UNL d   1     -37.946  14.623  17.915  0.00  0.00     0.100 A 
ATOM      6  C   UNL d   1     -39.285  14.140  17.766  0.00  0.00     0.100 A 
ENDROOT
BRANCH   1   7
ATOM      7  S   UNL d   1     -39.009  14.886  19.802  0.00  0.00     0.271 S 
ATOM      8  O   UNL d   1     -38.796  15.666  19.646  0.00  0.00    -0.200 OA
ATOM      9  O   UNL d   1     -39.222  14.103  19.959  0.00  0.00    -0.200 OA
BRANCH   7  10
ATOM     10  C   UNL d   1     -39.169  15.086  20.586  0.00  0.00     0.104 A 
ATOM     11  C   UNL d   1     -39.688  15.698  20.757  0.00  0.00     0.015 A 
ATOM     12  C   UNL d   1     -39.848  15.898  21.540  0.00  0.00     0.030 A 
ATOM     13  C   UNL d   1     -39.489  15.487  22.152  0.00  0.00     0.140 A 
ATOM     14  C   UNL d   1     -38.961  14.866  21.985  0.00  0.00     0.030 A 
ATOM     15  F   UNL d   1     -39.649  15.688  22.936  0.00  0.00    -0.204 F 
ATOM     16  C   UNL d   1     -38.801  14.665  21.202  0.00  0.00     0.015 A 
ENDBRANCH   7  10
ENDBRANCH   1   7
BRANCH   2  17
ATOM     17  C   UNL d   1     -38.370  14.084  16.669  0.00  0.00     0.064 A 
ATOM     18  C   UNL d   1     -38.477  14.636  16.072  0.00  0.00     0.016 A 
ATOM     19  C   UNL d   1     -38.317  14.435  15.288  0.00  0.00     0.001 A 
ATOM     20  C   UNL d   1     -38.746  15.396  16.257  0.00  0.00     0.002 C 
ATOM     21  C   UNL d   1     -38.051  13.683  15.103  0.00  0.00     0.000 A 
ATOM     22  C   UNL d   1     -37.940  13.118  15.702  0.00  0.00     0.001 A 
ATOM     23  C   UNL d   1     -38.099  13.318  16.486  0.00  0.00     0.016 A 
ATOM     24  C   UNL d   1     -37.992  12.765  17.084  0.00  0.00     0.002 C 
ENDBRANCH   2  17
TORSDOF 3
ENDMDL
MODEL 6
REMARK VINA RESULT:      -5.6      8.782      9.653
REMARK  3 active torsions:
REMARK  status: ('A' for Active; 'I' for Inactive)
REMARK    1  A    between atoms: N_2  and  S_1 
REMARK    2  A    between atoms: C_5  and  S_1 
REMARK    3  A    between atoms: C_4  and  N_3 
ROOT
ATOM      1  N   UNL d   1     -39.276  14.671  19.956  0.00  0.00    -0.226 N 
ATOM      2  N   UNL d   1     -39.755  15.172  18.459  0.00  0.00    -0.301 N 
ATOM      3  C   UNL d   1     -39.197  15.459  19.739  0.00  0.00     0.111 A 
ATOM      4  C   UNL d   1     -39.598  14.122  19.420  0.00  0.00     0.111 A 
ATOM      5  C   UNL d   1     -39.436  15.709  18.991  0.00  0.00     0.100 A 
ATOM      6  C   UNL d   1     -39.838  14.372  18.672  0.00  0.00     0.100 A 
ENDROOT
BRANCH   1   7
ATOM      7  S   UNL d   1     -39.036  14.421  20.705  0.00  0.00     0.271 S 
ATOM      8  O   UNL d   1     -38.248  14.495  20.477  0.00  0.00    -0.200 OA
ATOM      9  O   UNL d   1     -39.826  14.347  20.933  0.00  0.00    -0.200 OA
BRANCH   7  10
ATOM     10  C   UNL d   1     -38.797  14.170  21.453  0.00  0.00     0.104 A 
ATOM     11  C   UNL d   1     -39.086  14.543  22.124  0.00  0.00     0.015 A 
ATOM     12  C   UNL d   1     -38.847  14.292  22.872  0.00  0.00     0.030 A 
ATOM     13  C   UNL d   1     -38.318  13.670  22.949  0.00  0.00     0.140 A 
ATOM     14  C   UNL d   1     -38.021  13.288  22.272  0.00  0.00     0.030 A 
ATOM     15  F   UNL d   1     -38.079  13.420  23.698  0.00  0.00    -0.204 F 
ATOM     16  C   UNL d   1     -38.260  13.538  21.524  0.00  0.00     0.015 A 
ENDBRANCH   7  10
ENDBRANCH   1   7
BRANCH   2  17
ATOM     17  C   UNL d   1     -39.993  15.421  17.714  0.00  0.00     0.064 A 
ATOM     18  C   UNL d   1     -40.770  15.650  17.584  0.00  0.00     0.016 A 
ATOM     19  C   UNL d   1     -41.010  15.901  16.835  0.00  0.00     0.001 A 
ATOM     20  C   UNL d   1     -41.315  15.629  18.206  0.00  0.00     0.002 C 
ATOM     21  C   UNL d   1     -40.472  15.922  16.218  0.00  0.00     0.000 A 
ATOM     22  C   UNL d   1     -39.682  15.692  16.340  0.00  0.00     0.001 A 
ATOM     23  C   UNL d   1     -39.443  15.441  17.089  0.00  0.00     0.016 A 
ATOM     24  C   UNL d   1     -38.665  15.212  17.219  0.00  0.00     0.002 C 
ENDBRANCH   2  17
TORSDOF 3
ENDMDL
