MODEL 1
REMARK VINA RESULT:      -4.3      0.000      0.000
REMARK  3 active torsions:
REMARK  status: ('A' for Active; 'I' for Inactive)
REMARK       I    between atoms: C_2  and  N_1 
REMARK    1  A    between atoms: C_5  and  C_2 
REMARK    2  A    between atoms: S_8  and  C_3 
REMARK    3  A    between atoms: O_13  and  C_11 
ROOT
ATOM      1  N   UNL d   1     -41.483-122.396 -51.899  0.00  0.00    -0.251 N 
ATOM      2  C   UNL d   1     -41.677-123.052 -52.350  0.00  0.00     0.266 C 
ATOM      3  C   UNL d   1     -41.463-122.358 -51.075  0.00  0.00     0.178 A 
ATOM      4  N   UNL d   1     -41.243-121.599 -50.867  0.00  0.00    -0.219 NA
ATOM      5  O   UNL d   1     -41.877-123.763 -51.985  0.00  0.00    -0.267 OA
ATOM      6  C   UNL d   1     -41.273-121.652 -52.196  0.00  0.00     0.106 A 
ATOM      7  C   UNL d   1     -41.124-121.161 -51.550  0.00  0.00     0.120 A 
ENDROOT
BRANCH   2   8
ATOM      8  C   UNL d   1     -41.672-123.004 -53.174  0.00  0.00     0.059 A 
ATOM      9  C   UNL d   1     -42.217-122.515 -53.555  0.00  0.00     0.029 A 
ATOM     10  C   UNL d   1     -42.205-122.473 -54.365  0.00  0.00     0.094 A 
ATOM     11  C   UNL d   1     -41.654-122.915 -54.806  0.00  0.00     0.024 A 
ATOM     12  C   UNL d   1     -41.123-123.390 -54.433  0.00  0.00     0.002 A 
ATOM     13  C   UNL d   1     -41.127-123.440 -53.605  0.00  0.00     0.005 A 
BRANCH  10  14
ATOM     14  O   UNL d   1     -42.746-121.987 -54.754  0.00  0.00    -0.328 OA
ATOM     15  C   UNL d   1     -42.630-121.777 -55.539  0.00  0.00     0.181 C 
ENDBRANCH  10  14
ENDBRANCH   2   8
BRANCH   3  16
ATOM     16  S   UNL d   1     -41.636-122.976 -50.569  0.00  0.00    -0.076 SA
ATOM     17  C   UNL d   1     -41.655-122.856 -49.752  0.00  0.00     0.077 C 
ENDBRANCH   3  16
TORSDOF 3
ENDMDL
MODEL 2
REMARK VINA RESULT:      -4.1      1.408      2.298
REMARK  3 active torsions:
REMARK  status: ('A' for Active; 'I' for Inactive)
REMARK       I    between atoms: C_2  and  N_1 
REMARK    1  A    between atoms: C_5  and  C_2 
REMARK    2  A    between atoms: S_8  and  C_3 
REMARK    3  A    between atoms: O_13  and  C_11 
ROOT
ATOM      1  N   UNL d   1     -42.256-122.930 -50.054  0.00  0.00    -0.251 N 
ATOM      2  C   UNL d   1     -41.629-123.199 -50.509  0.00  0.00     0.266 C 
ATOM      3  C   UNL d   1     -42.453-123.187 -49.295  0.00  0.00     0.178 A 
ATOM      4  N   UNL d   1     -43.114-122.771 -49.057  0.00  0.00    -0.219 NA
ATOM      5  O   UNL d   1     -41.123-123.780 -50.218  0.00  0.00    -0.267 OA
ATOM      6  C   UNL d   1     -42.802-122.351 -50.280  0.00  0.00     0.106 A 
ATOM      7  C   UNL d   1     -43.334-122.256 -49.656  0.00  0.00     0.120 A 
ENDROOT
BRANCH   2   8
ATOM      8  C   UNL d   1     -41.501-122.886 -51.263  0.00  0.00     0.059 A 
ATOM      9  C   UNL d   1     -41.629-123.360 -51.925  0.00  0.00     0.029 A 
ATOM     10  C   UNL d   1     -41.502-123.046 -52.662  0.00  0.00     0.094 A 
ATOM     11  C   UNL d   1     -41.247-122.258 -52.750  0.00  0.00     0.024 A 
ATOM     12  C   UNL d   1     -41.123-121.797 -52.103  0.00  0.00     0.002 A 
ATOM     13  C   UNL d   1     -41.250-122.109 -51.345  0.00  0.00     0.005 A 
BRANCH  10  14
ATOM     14  O   UNL d   1     -41.627-123.513 -53.329  0.00  0.00    -0.328 OA
ATOM     15  C   UNL d   1     -41.656-123.174 -54.078  0.00  0.00     0.181 C 
ENDBRANCH  10  14
ENDBRANCH   2   8
BRANCH   3  16
ATOM     16  S   UNL d   1     -42.051-123.757 -48.869  0.00  0.00    -0.076 SA
ATOM     17  C   UNL d   1     -42.142-123.809 -48.050  0.00  0.00     0.077 C 
ENDBRANCH   3  16
TORSDOF 3
ENDMDL
MODEL 3
REMARK VINA RESULT:      -4.0      1.546      3.601
REMARK  3 active torsions:
REMARK  status: ('A' for Active; 'I' for Inactive)
REMARK       I    between atoms: C_2  and  N_1 
REMARK    1  A    between atoms: C_5  and  C_2 
REMARK    2  A    between atoms: S_8  and  C_3 
REMARK    3  A    between atoms: O_13  and  C_11 
ROOT
ATOM      1  N   UNL d   1     -41.694-122.699 -53.525  0.00  0.00    -0.251 N 
ATOM      2  C   UNL d   1     -41.955-122.119 -53.008  0.00  0.00     0.266 C 
ATOM      3  C   UNL d   1     -41.806-122.711 -54.342  0.00  0.00     0.178 A 
ATOM      4  N   UNL d   1     -41.454-123.389 -54.631  0.00  0.00    -0.219 NA
ATOM      5  O   UNL d   1     -42.374-121.469 -53.290  0.00  0.00    -0.267 OA
ATOM      6  C   UNL d   1     -41.269-123.378 -53.314  0.00  0.00     0.106 A 
ATOM      7  C   UNL d   1     -41.123-123.804 -54.005  0.00  0.00     0.120 A 
ENDROOT
BRANCH   2   8
ATOM      8  C   UNL d   1     -41.799-122.185 -52.200  0.00  0.00     0.059 A 
ATOM      9  C   UNL d   1     -42.170-122.778 -51.763  0.00  0.00     0.029 A 
ATOM     10  C   UNL d   1     -42.011-122.836 -50.969  0.00  0.00     0.094 A 
ATOM     11  C   UNL d   1     -41.483-122.307 -50.601  0.00  0.00     0.024 A 
ATOM     12  C   UNL d   1     -41.123-121.730 -51.029  0.00  0.00     0.002 A 
ATOM     13  C   UNL d   1     -41.278-121.662 -51.841  0.00  0.00     0.005 A 
BRANCH  10  14
ATOM     14  O   UNL d   1     -42.377-123.426 -50.524  0.00  0.00    -0.328 OA
ATOM     15  C   UNL d   1     -42.826-123.233 -49.863  0.00  0.00     0.181 C 
ENDBRANCH  10  14
ENDBRANCH   2   8
BRANCH   3  16
ATOM     16  S   UNL d   1     -42.201-122.140 -54.774  0.00  0.00    -0.076 SA
ATOM     17  C   UNL d   1     -42.165-122.139 -55.599  0.00  0.00     0.077 C 
ENDBRANCH   3  16
TORSDOF 3
ENDMDL
MODEL 4
REMARK VINA RESULT:      -3.5      1.090      1.318
REMARK  3 active torsions:
REMARK  status: ('A' for Active; 'I' for Inactive)
REMARK       I    between atoms: C_2  and  N_1 
REMARK    1  A    between atoms: C_5  and  C_2 
REMARK    2  A    between atoms: S_8  and  C_3 
REMARK    3  A    between atoms: O_13  and  C_11 
ROOT
ATOM      1  N   UNL d   1     -41.312-122.658 -52.295  0.00  0.00    -0.251 N 
ATOM      2  C   UNL d   1     -41.398-122.109 -52.898  0.00  0.00     0.266 C 
ATOM      3  C   UNL d   1     -41.220-122.491 -51.492  0.00  0.00     0.178 A 
ATOM      4  N   UNL d   1     -41.154-123.202 -51.097  0.00  0.00    -0.219 NA
ATOM      5  O   UNL d   1     -41.398-121.303 -52.730  0.00  0.00    -0.267 OA
ATOM      6  C   UNL d   1     -41.303-123.481 -52.389  0.00  0.00     0.106 A 
ATOM      7  C   UNL d   1     -41.204-123.814 -51.641  0.00  0.00     0.120 A 
ENDROOT
BRANCH   2   8
ATOM      8  C   UNL d   1     -41.485-122.364 -53.679  0.00  0.00     0.059 A 
ATOM      9  C   UNL d   1     -41.921-121.906 -54.208  0.00  0.00     0.029 A 
ATOM     10  C   UNL d   1     -42.002-122.162 -54.973  0.00  0.00     0.094 A 
ATOM     11  C   UNL d   1     -41.652-122.876 -55.222  0.00  0.00     0.024 A 
ATOM     12  C   UNL d   1     -41.228-123.322 -54.704  0.00  0.00     0.002 A 
ATOM     13  C   UNL d   1     -41.139-123.068 -53.919  0.00  0.00     0.005 A 
BRANCH  10  14
ATOM     14  O   UNL d   1     -42.436-121.711 -55.509  0.00  0.00    -0.328 OA
ATOM     15  C   UNL d   1     -42.824-122.068 -56.139  0.00  0.00     0.181 C 
ENDBRANCH  10  14
ENDBRANCH   2   8
BRANCH   3  16
ATOM     16  S   UNL d   1     -41.199-121.742 -51.164  0.00  0.00    -0.076 SA
ATOM     17  C   UNL d   1     -41.264-121.641 -50.347  0.00  0.00     0.077 C 
ENDBRANCH   3  16
TORSDOF 3
ENDMDL
