MODEL 1
REMARK VINA RESULT:      -2.6      0.000      0.000
REMARK  3 active torsions:
REMARK  status: ('A' for Active; 'I' for Inactive)
REMARK    1  A    between atoms: S_9  and  C_3 
REMARK    2  A    between atoms: C_12  and  S_9 
REMARK    3  A    between atoms: C_14  and  C_12 
ROOT
ATOM      1  C   UNL d   1      31.095  16.433 -24.510  0.00  0.00     0.155 A 
ATOM      2  C   UNL d   1      30.872  17.164 -24.187  0.00  0.00     0.107 A 
ATOM      3  C   UNL d   1      32.225  17.395 -23.791  0.00  0.00     0.182 A 
ATOM      4  N   UNL d   1      32.448  16.673 -24.109  0.00  0.00    -0.250 N 
ATOM      5  N   UNL d   1      31.442  17.648 -23.826  0.00  0.00    -0.220 NA
ATOM      6  C   UNL d   1      31.879  16.188 -24.471  0.00  0.00     0.285 A 
ATOM      7  N   UNL d   1      30.422  16.076 -24.828  0.00  0.00    -0.239 NA
ATOM      8  C   UNL d   1      30.063  17.264 -24.304  0.00  0.00     0.037 A 
ATOM      9  C   UNL d   1      29.779  16.587 -24.704  0.00  0.00     0.083 A 
ATOM     10  O   UNL d   1      32.110  15.456 -24.792  0.00  0.00    -0.265 OA
ATOM     11  C   UNL d   1      33.241  16.427 -24.070  0.00  0.00     0.104 C 
ATOM     12  C   UNL d   1      29.542  17.870 -24.106  0.00  0.00     0.003 A 
ATOM     13  C   UNL d   1      28.975  16.526 -24.900  0.00  0.00     0.019 A 
ATOM     14  C   UNL d   1      28.739  17.809 -24.302  0.00  0.00     0.000 A 
ATOM     15  C   UNL d   1      28.460  17.140 -24.697  0.00  0.00     0.002 A 
ENDROOT
BRANCH   3  16
ATOM     16  S   UNL d   1      32.794  17.877 -23.431  0.00  0.00    -0.050 SA
BRANCH  16  17
ATOM     17  C   UNL d   1      32.921  18.647 -23.702  0.00  0.00     0.032 C 
ATOM     18  C   UNL d   1      32.940  18.804 -24.511  0.00  0.00     0.007 C 
BRANCH  17  19
ATOM     19  C   UNL d   1      33.028  19.249 -23.148  0.00  0.00     0.006 A 
ATOM     20  C   UNL d   1      33.040  20.031 -23.398  0.00  0.00     0.001 A 
ATOM     21  C   UNL d   1      33.147  20.650 -22.852  0.00  0.00     0.000 A 
ATOM     22  C   UNL d   1      33.241  20.472 -22.056  0.00  0.00     0.000 A 
ATOM     23  C   UNL d   1      33.231  19.692 -21.796  0.00  0.00     0.000 A 
ATOM     24  C   UNL d   1      33.123  19.080 -22.347  0.00  0.00     0.001 A 
ENDBRANCH  17  19
ENDBRANCH  16  17
ENDBRANCH   3  16
TORSDOF 3
ENDMDL
MODEL 2
REMARK VINA RESULT:      -2.0      2.636      4.936
REMARK  3 active torsions:
REMARK  status: ('A' for Active; 'I' for Inactive)
REMARK    1  A    between atoms: S_9  and  C_3 
REMARK    2  A    between atoms: C_12  and  S_9 
REMARK    3  A    between atoms: C_14  and  C_12 
ROOT
ATOM      1  C   UNL d   1      33.209  21.335 -22.931  0.00  0.00     0.155 A 
ATOM      2  C   UNL d   1      33.198  20.690 -22.410  0.00  0.00     0.107 A 
ATOM      3  C   UNL d   1      33.213  19.796 -23.524  0.00  0.00     0.182 A 
ATOM      4  N   UNL d   1      33.225  20.432 -24.042  0.00  0.00    -0.250 N 
ATOM      5  N   UNL d   1      33.200  19.915 -22.709  0.00  0.00    -0.220 NA
ATOM      6  C   UNL d   1      33.223  21.207 -23.743  0.00  0.00     0.285 A 
ATOM      7  N   UNL d   1      33.204  22.028 -22.483  0.00  0.00    -0.239 NA
ATOM      8  C   UNL d   1      33.185  20.979 -21.638  0.00  0.00     0.037 A 
ATOM      9  C   UNL d   1      33.190  21.813 -21.681  0.00  0.00     0.083 A 
ATOM     10  O   UNL d   1      33.235  21.849 -24.273  0.00  0.00    -0.265 OA
ATOM     11  C   UNL d   1      33.239  20.301 -24.862  0.00  0.00     0.104 C 
ATOM     12  C   UNL d   1      33.171  20.606 -20.904  0.00  0.00     0.003 A 
ATOM     13  C   UNL d   1      33.179  22.265 -20.985  0.00  0.00     0.019 A 
ATOM     14  C   UNL d   1      33.161  21.058 -20.209  0.00  0.00     0.000 A 
ATOM     15  C   UNL d   1      33.165  21.882 -20.252  0.00  0.00     0.002 A 
ENDROOT
BRANCH   3  16
ATOM     16  S   UNL d   1      33.215  19.025 -23.824  0.00  0.00    -0.050 SA
BRANCH  16  17
ATOM     17  C   UNL d   1      32.599  18.504 -23.643  0.00  0.00     0.032 C 
ATOM     18  C   UNL d   1      31.871  18.797 -23.391  0.00  0.00     0.007 C 
BRANCH  17  19
ATOM     19  C   UNL d   1      32.730  17.693 -23.719  0.00  0.00     0.006 A 
ATOM     20  C   UNL d   1      33.100  17.284 -23.111  0.00  0.00     0.001 A 
ATOM     21  C   UNL d   1      33.240  16.466 -23.173  0.00  0.00     0.000 A 
ATOM     22  C   UNL d   1      33.002  16.068 -23.851  0.00  0.00     0.000 A 
ATOM     23  C   UNL d   1      32.631  16.469 -24.464  0.00  0.00     0.000 A 
ATOM     24  C   UNL d   1      32.495  17.285 -24.396  0.00  0.00     0.001 A 
ENDBRANCH  17  19
ENDBRANCH  16  17
ENDBRANCH   3  16
TORSDOF 3
ENDMDL
MODEL 3
REMARK VINA RESULT:      -1.4      2.867      4.076
REMARK  3 active torsions:
REMARK  status: ('A' for Active; 'I' for Inactive)
REMARK    1  A    between atoms: S_9  and  C_3 
REMARK    2  A    between atoms: C_12  and  S_9 
REMARK    3  A    between atoms: C_14  and  C_12 
ROOT
ATOM      1  C   UNL d   1      33.215  19.862 -24.043  0.00  0.00     0.155 A 
ATOM      2  C   UNL d   1      33.220  19.519 -23.288  0.00  0.00     0.107 A 
ATOM      3  C   UNL d   1      33.221  20.822 -22.702  0.00  0.00     0.182 A 
ATOM      4  N   UNL d   1      33.216  21.164 -23.448  0.00  0.00    -0.250 N 
ATOM      5  N   UNL d   1      33.223  20.003 -22.613  0.00  0.00    -0.220 NA
ATOM      6  C   UNL d   1      33.213  20.680 -24.123  0.00  0.00     0.285 A 
ATOM      7  N   UNL d   1      33.213  19.254 -24.602  0.00  0.00    -0.239 NA
ATOM      8  C   UNL d   1      33.221  18.700 -23.374  0.00  0.00     0.037 A 
ATOM      9  C   UNL d   1      33.216  18.531 -24.192  0.00  0.00     0.083 A 
ATOM     10  O   UNL d   1      33.208  21.031 -24.877  0.00  0.00    -0.265 OA
ATOM     11  C   UNL d   1      33.214  21.991 -23.528  0.00  0.00     0.104 C 
ATOM     12  C   UNL d   1      33.225  18.082 -22.829  0.00  0.00     0.003 A 
ATOM     13  C   UNL d   1      33.216  17.744 -24.455  0.00  0.00     0.019 A 
ATOM     14  C   UNL d   1      33.225  17.296 -23.091  0.00  0.00     0.000 A 
ATOM     15  C   UNL d   1      33.221  17.131 -23.900  0.00  0.00     0.002 A 
ENDROOT
BRANCH   3  16
ATOM     16  S   UNL d   1      33.224  21.306 -22.031  0.00  0.00    -0.050 SA
BRANCH  16  17
ATOM     17  C   UNL d   1      32.577  21.311 -21.516  0.00  0.00     0.032 C 
ATOM     18  C   UNL d   1      31.955  20.782 -21.629  0.00  0.00     0.007 C 
BRANCH  17  19
ATOM     19  C   UNL d   1      32.570  21.851 -20.893  0.00  0.00     0.006 A 
ATOM     20  C   UNL d   1      32.222  22.587 -21.001  0.00  0.00     0.001 A 
ATOM     21  C   UNL d   1      32.207  23.144 -20.382  0.00  0.00     0.000 A 
ATOM     22  C   UNL d   1      32.544  22.951 -19.659  0.00  0.00     0.000 A 
ATOM     23  C   UNL d   1      32.894  22.217 -19.542  0.00  0.00     0.000 A 
ATOM     24  C   UNL d   1      32.906  21.666 -20.164  0.00  0.00     0.001 A 
ENDBRANCH  17  19
ENDBRANCH  16  17
ENDBRANCH   3  16
TORSDOF 3
ENDMDL
MODEL 4
REMARK VINA RESULT:      -0.8      3.702      6.270
REMARK  3 active torsions:
REMARK  status: ('A' for Active; 'I' for Inactive)
REMARK    1  A    between atoms: S_9  and  C_3 
REMARK    2  A    between atoms: C_12  and  S_9 
REMARK    3  A    between atoms: C_14  and  C_12 
ROOT
ATOM      1  C   UNL d   1      32.550  22.952 -20.892  0.00  0.00     0.155 A 
ATOM      2  C   UNL d   1      32.901  22.295 -20.528  0.00  0.00     0.107 A 
ATOM      3  C   UNL d   1      33.011  21.654 -21.800  0.00  0.00     0.182 A 
ATOM      4  N   UNL d   1      32.664  22.303 -22.163  0.00  0.00    -0.250 N 
ATOM      5  N   UNL d   1      33.133  21.641 -20.985  0.00  0.00    -0.220 NA
ATOM      6  C   UNL d   1      32.432  22.956 -21.706  0.00  0.00     0.285 A 
ATOM      7  N   UNL d   1      32.379  23.510 -20.308  0.00  0.00    -0.239 NA
ATOM      8  C   UNL d   1      32.949  22.441 -19.718  0.00  0.00     0.037 A 
ATOM      9  C   UNL d   1      32.625  23.198 -19.578  0.00  0.00     0.083 A 
ATOM     10  O   UNL d   1      32.080  23.612 -22.079  0.00  0.00    -0.265 OA
ATOM     11  C   UNL d   1      32.545  22.306 -22.985  0.00  0.00     0.104 C 
ATOM     12  C   UNL d   1      33.241  21.997 -19.088  0.00  0.00     0.003 A 
ATOM     13  C   UNL d   1      32.597  23.502 -18.807  0.00  0.00     0.019 A 
ATOM     14  C   UNL d   1      33.212  22.301 -18.318  0.00  0.00     0.000 A 
ATOM     15  C   UNL d   1      32.892  23.050 -18.181  0.00  0.00     0.002 A 
ENDROOT
BRANCH   3  16
ATOM     16  S   UNL d   1      33.241  21.004 -22.258  0.00  0.00    -0.050 SA
BRANCH  16  17
ATOM     17  C   UNL d   1      33.063  20.235 -22.012  0.00  0.00     0.032 C 
ATOM     18  C   UNL d   1      32.900  20.082 -21.219  0.00  0.00     0.007 C 
BRANCH  17  19
ATOM     19  C   UNL d   1      33.053  19.632 -22.574  0.00  0.00     0.006 A 
ATOM     20  C   UNL d   1      32.926  18.857 -22.333  0.00  0.00     0.001 A 
ATOM     21  C   UNL d   1      32.913  18.237 -22.888  0.00  0.00     0.000 A 
ATOM     22  C   UNL d   1      33.028  18.406 -23.683  0.00  0.00     0.000 A 
ATOM     23  C   UNL d   1      33.155  19.178 -23.933  0.00  0.00     0.000 A 
ATOM     24  C   UNL d   1      33.167  19.792 -23.374  0.00  0.00     0.001 A 
ENDBRANCH  17  19
ENDBRANCH  16  17
ENDBRANCH   3  16
TORSDOF 3
ENDMDL
