MODEL 1
REMARK VINA RESULT:      10.7      0.000      0.000
REMARK  3 active torsions:
REMARK  status: ('A' for Active; 'I' for Inactive)
REMARK    1  A    between atoms: S_11  and  C_1 
REMARK    2  A    between atoms: C_7  and  C_13 
REMARK    3  A    between atoms: C_13  and  S_11 
ROOT
ATOM      1  C   UNL d   1      45.768 -15.985  44.518  0.00  0.00     0.141 A 
ATOM      2  N   UNL d   1      46.266 -15.414  44.193  0.00  0.00    -0.232 NA
ATOM      3  S   UNL d   1      45.126 -15.606  44.851  0.00  0.00    -0.060 SA
ATOM      4  C   UNL d   1      45.931 -14.674  44.326  0.00  0.00     0.088 A 
ATOM      5  C   UNL d   1      45.213 -14.791  44.740  0.00  0.00     0.049 A 
ATOM      6  C   UNL d   1      46.169 -13.909  44.133  0.00  0.00     0.020 A 
ATOM      7  C   UNL d   1      44.751 -14.147  44.952  0.00  0.00     0.008 A 
ATOM      8  C   UNL d   1      44.988 -13.378  44.759  0.00  0.00     0.001 A 
ATOM      9  C   UNL d   1      45.701 -13.258  44.348  0.00  0.00     0.002 A 
ENDROOT
BRANCH   1  10
ATOM     10  S   UNL d   1      45.901 -16.801  44.506  0.00  0.00    -0.057 SA
BRANCH  10  11
ATOM     11  C   UNL d   1      45.986 -17.191  43.784  0.00  0.00     0.084 C 
BRANCH  11  12
ATOM     12  C   UNL d   1      46.152 -17.993  43.770  0.00  0.00     0.212 A 
ATOM     13  O   UNL d   1      46.328 -18.443  43.103  0.00  0.00    -0.259 OA
ATOM     14  C   UNL d   1      46.457 -19.221  43.343  0.00  0.00     0.262 A 
ATOM     15  S   UNL d   1      46.647 -19.848  42.851  0.00  0.00    -0.029 SA
ATOM     16  N   UNL d   1      46.361 -19.254  44.159  0.00  0.00    -0.109 NA
ATOM     17  N   UNL d   1      46.172 -18.497  44.427  0.00  0.00    -0.119 NA
ENDBRANCH  11  12
ENDBRANCH  10  11
ENDBRANCH   1  10
TORSDOF 3
ENDMDL
MODEL 2
REMARK VINA RESULT:      10.7      1.426      4.528
REMARK  3 active torsions:
REMARK  status: ('A' for Active; 'I' for Inactive)
REMARK    1  A    between atoms: S_11  and  C_1 
REMARK    2  A    between atoms: C_7  and  C_13 
REMARK    3  A    between atoms: C_13  and  S_11 
ROOT
ATOM      1  C   UNL d   1      46.308 -17.642  43.910  0.00  0.00     0.141 A 
ATOM      2  N   UNL d   1      46.500 -17.863  43.140  0.00  0.00    -0.232 NA
ATOM      3  S   UNL d   1      46.174 -18.318  44.347  0.00  0.00    -0.060 SA
ATOM      4  C   UNL d   1      46.486 -18.686  43.098  0.00  0.00     0.088 A 
ATOM      5  C   UNL d   1      46.281 -18.975  43.856  0.00  0.00     0.049 A 
ATOM      6  C   UNL d   1      46.628 -19.218  42.484  0.00  0.00     0.020 A 
ATOM      7  C   UNL d   1      46.223 -19.783  43.985  0.00  0.00     0.008 A 
ATOM      8  C   UNL d   1      46.365 -20.320  43.370  0.00  0.00     0.001 A 
ATOM      9  C   UNL d   1      46.569 -20.035  42.615  0.00  0.00     0.002 A 
ENDROOT
BRANCH   1  10
ATOM     10  S   UNL d   1      46.260 -16.864  44.188  0.00  0.00    -0.057 SA
BRANCH  10  11
ATOM     11  C   UNL d   1      45.527 -16.488  44.228  0.00  0.00     0.084 C 
BRANCH  11  12
ATOM     12  C   UNL d   1      45.488 -15.685  44.379  0.00  0.00     0.212 A 
ATOM     13  O   UNL d   1      44.978 -15.145  44.021  0.00  0.00    -0.259 OA
ATOM     14  C   UNL d   1      45.128 -14.400  44.338  0.00  0.00     0.262 A 
ATOM     15  S   UNL d   1      44.741 -13.706  44.133  0.00  0.00    -0.029 SA
ATOM     16  N   UNL d   1      45.730 -14.475  44.893  0.00  0.00    -0.109 NA
ATOM     17  N   UNL d   1      45.955 -15.268  44.921  0.00  0.00    -0.119 NA
ENDBRANCH  11  12
ENDBRANCH  10  11
ENDBRANCH   1  10
TORSDOF 3
ENDMDL
