MODEL 1
REMARK VINA RESULT:      -7.5      0.000      0.000
REMARK  4 active torsions:
REMARK  status: ('A' for Active; 'I' for Inactive)
REMARK    1  A    between atoms: C_2  and  N_1 
REMARK       I    between atoms: C_3  and  N_1 
REMARK    2  A    between atoms: C_4  and  C_3 
REMARK    3  A    between atoms: C_6  and  C_4 
REMARK    4  A    between atoms: C_10  and  C_6 
ROOT
ATOM      1  N   UNL d   1     -47.307  13.318  22.915  0.00  0.00    -0.208 NA
ATOM      2  C   UNL d   1     -47.509  14.119  22.978  0.00  0.00     0.279 C 
ATOM      3  O   UNL d   1     -46.929  14.695  22.866  0.00  0.00    -0.265 OA
ENDROOT
BRANCH   1   4
ATOM      4  C   UNL d   1     -46.528  13.102  22.742  0.00  0.00     0.085 A 
ATOM      5  C   UNL d   1     -46.249  12.381  23.005  0.00  0.00     0.021 A 
ATOM      6  C   UNL d   1     -45.468  12.154  22.837  0.00  0.00     0.021 A 
ATOM      7  C   UNL d   1     -46.733  11.871  23.437  0.00  0.00     0.022 A 
ATOM      8  C   UNL d   1     -45.187  11.436  23.098  0.00  0.00     0.099 A 
ATOM      9  C   UNL d   1     -44.984  12.664  22.405  0.00  0.00     0.002 A 
ATOM     10  N   UNL d   1     -45.665  10.931  23.525  0.00  0.00    -0.242 NA
ATOM     11  C   UNL d   1     -46.444  11.147  23.698  0.00  0.00     0.099 A 
ATOM     12  C   UNL d   1     -45.273  13.393  22.142  0.00  0.00     0.002 A 
ATOM     13  C   UNL d   1     -46.049  13.607  22.315  0.00  0.00     0.019 A 
ENDBRANCH   1   4
BRANCH   2  14
ATOM     14  C   UNL d   1     -48.283  14.342  23.150  0.00  0.00     0.062 C 
BRANCH  14  15
ATOM     15  C   UNL d   1     -48.642  14.945  22.720  0.00  0.00     0.005 C 
BRANCH  15  16
ATOM     16  C   UNL d   1     -49.445  15.106  22.837  0.00  0.00     0.000 A 
ATOM     17  C   UNL d   1     -50.008  14.739  22.356  0.00  0.00     0.000 A 
ATOM     18  C   UNL d   1     -50.809  14.895  22.467  0.00  0.00     0.000 A 
ATOM     19  C   UNL d   1     -51.052  15.420  23.062  0.00  0.00     0.000 A 
ATOM     20  C   UNL d   1     -50.492  15.786  23.542  0.00  0.00     0.000 A 
ATOM     21  C   UNL d   1     -49.688  15.631  23.432  0.00  0.00     0.000 A 
ENDBRANCH  15  16
ENDBRANCH  14  15
ENDBRANCH   2  14
TORSDOF 4
ENDMDL
MODEL 2
REMARK VINA RESULT:      -6.9      1.214      4.719
REMARK  4 active torsions:
REMARK  status: ('A' for Active; 'I' for Inactive)
REMARK    1  A    between atoms: C_2  and  N_1 
REMARK       I    between atoms: C_3  and  N_1 
REMARK    2  A    between atoms: C_4  and  C_3 
REMARK    3  A    between atoms: C_6  and  C_4 
REMARK    4  A    between atoms: C_10  and  C_6 
ROOT
ATOM      1  N   UNL d   1     -48.446  13.715  22.826  0.00  0.00    -0.208 NA
ATOM      2  C   UNL d   1     -47.694  14.056  22.893  0.00  0.00     0.279 C 
ATOM      3  O   UNL d   1     -47.619  14.877  22.890  0.00  0.00    -0.265 OA
ENDROOT
BRANCH   1   4
ATOM      4  C   UNL d   1     -49.113  14.198  22.757  0.00  0.00     0.085 A 
ATOM      5  C   UNL d   1     -49.751  13.933  22.322  0.00  0.00     0.021 A 
ATOM      6  C   UNL d   1     -50.427  14.411  22.247  0.00  0.00     0.021 A 
ATOM      7  C   UNL d   1     -49.736  13.195  21.954  0.00  0.00     0.022 A 
ATOM      8  C   UNL d   1     -51.064  14.149  21.814  0.00  0.00     0.099 A 
ATOM      9  C   UNL d   1     -50.441  15.149  22.615  0.00  0.00     0.002 A 
ATOM     10  N   UNL d   1     -51.050  13.419  21.450  0.00  0.00    -0.242 NA
ATOM     11  C   UNL d   1     -50.382  12.936  21.518  0.00  0.00     0.099 A 
ATOM     12  C   UNL d   1     -49.792  15.411  23.054  0.00  0.00     0.002 A 
ATOM     13  C   UNL d   1     -49.128  14.929  23.122  0.00  0.00     0.019 A 
ENDBRANCH   1   4
BRANCH   2  14
ATOM     14  C   UNL d   1     -47.024  13.581  22.961  0.00  0.00     0.062 C 
BRANCH  14  15
ATOM     15  C   UNL d   1     -46.308  13.833  22.645  0.00  0.00     0.005 C 
BRANCH  15  16
ATOM     16  C   UNL d   1     -45.701  13.284  22.523  0.00  0.00     0.000 A 
ATOM     17  C   UNL d   1     -45.114  13.443  21.965  0.00  0.00     0.000 A 
ATOM     18  C   UNL d   1     -44.507  12.900  21.839  0.00  0.00     0.000 A 
ATOM     19  C   UNL d   1     -44.485  12.193  22.273  0.00  0.00     0.000 A 
ATOM     20  C   UNL d   1     -45.070  12.034  22.830  0.00  0.00     0.000 A 
ATOM     21  C   UNL d   1     -45.680  12.577  22.958  0.00  0.00     0.000 A 
ENDBRANCH  15  16
ENDBRANCH  14  15
ENDBRANCH   2  14
TORSDOF 4
ENDMDL
MODEL 3
REMARK VINA RESULT:      -6.8      1.486      4.954
REMARK  4 active torsions:
REMARK  status: ('A' for Active; 'I' for Inactive)
REMARK    1  A    between atoms: C_2  and  N_1 
REMARK       I    between atoms: C_3  and  N_1 
REMARK    2  A    between atoms: C_4  and  C_3 
REMARK    3  A    between atoms: C_6  and  C_4 
REMARK    4  A    between atoms: C_10  and  C_6 
ROOT
ATOM      1  N   UNL d   1     -48.784  13.799  22.728  0.00  0.00    -0.208 NA
ATOM      2  C   UNL d   1     -48.230  13.229  22.962  0.00  0.00     0.279 C 
ATOM      3  O   UNL d   1     -48.449  12.652  23.510  0.00  0.00    -0.265 OA
ENDROOT
BRANCH   1   4
ATOM      4  C   UNL d   1     -49.548  13.786  23.044  0.00  0.00     0.085 A 
ATOM      5  C   UNL d   1     -49.921  14.494  23.206  0.00  0.00     0.021 A 
ATOM      6  C   UNL d   1     -50.689  14.492  23.523  0.00  0.00     0.021 A 
ATOM      7  C   UNL d   1     -49.547  15.214  23.060  0.00  0.00     0.022 A 
ATOM      8  C   UNL d   1     -51.064  15.196  23.687  0.00  0.00     0.099 A 
ATOM      9  C   UNL d   1     -51.063  13.772  23.670  0.00  0.00     0.002 A 
ATOM     10  N   UNL d   1     -50.694  15.909  23.542  0.00  0.00    -0.242 NA
ATOM     11  C   UNL d   1     -49.929  15.922  23.226  0.00  0.00     0.099 A 
ATOM     12  C   UNL d   1     -50.680  13.059  23.503  0.00  0.00     0.002 A 
ATOM     13  C   UNL d   1     -49.919  13.073  23.189  0.00  0.00     0.019 A 
ENDBRANCH   1   4
BRANCH   2  14
ATOM     14  C   UNL d   1     -47.468  13.235  22.652  0.00  0.00     0.062 C 
BRANCH  14  15
ATOM     15  C   UNL d   1     -46.824  13.086  23.143  0.00  0.00     0.005 C 
BRANCH  15  16
ATOM     16  C   UNL d   1     -46.082  12.941  22.807  0.00  0.00     0.000 A 
ATOM     17  C   UNL d   1     -45.670  12.254  23.010  0.00  0.00     0.000 A 
ATOM     18  C   UNL d   1     -44.931  12.103  22.679  0.00  0.00     0.000 A 
ATOM     19  C   UNL d   1     -44.599  12.642  22.142  0.00  0.00     0.000 A 
ATOM     20  C   UNL d   1     -45.008  13.327  21.939  0.00  0.00     0.000 A 
ATOM     21  C   UNL d   1     -45.750  13.479  22.270  0.00  0.00     0.000 A 
ENDBRANCH  15  16
ENDBRANCH  14  15
ENDBRANCH   2  14
TORSDOF 4
ENDMDL
MODEL 4
REMARK VINA RESULT:      -6.8      1.439      2.139
REMARK  4 active torsions:
REMARK  status: ('A' for Active; 'I' for Inactive)
REMARK    1  A    between atoms: C_2  and  N_1 
REMARK       I    between atoms: C_3  and  N_1 
REMARK    2  A    between atoms: C_4  and  C_3 
REMARK    3  A    between atoms: C_6  and  C_4 
REMARK    4  A    between atoms: C_10  and  C_6 
ROOT
ATOM      1  N   UNL d   1     -47.536  12.535  23.356  0.00  0.00    -0.208 NA
ATOM      2  C   UNL d   1     -48.266  12.172  23.210  0.00  0.00     0.279 C 
ATOM      3  O   UNL d   1     -48.292  11.362  23.053  0.00  0.00    -0.265 OA
ENDROOT
BRANCH   1   4
ATOM      4  C   UNL d   1     -46.841  12.086  23.343  0.00  0.00     0.085 A 
ATOM      5  C   UNL d   1     -46.181  12.389  22.971  0.00  0.00     0.021 A 
ATOM      6  C   UNL d   1     -45.478  11.946  22.952  0.00  0.00     0.021 A 
ATOM      7  C   UNL d   1     -46.199  13.132  22.613  0.00  0.00     0.022 A 
ATOM      8  C   UNL d   1     -44.817  12.246  22.583  0.00  0.00     0.099 A 
ATOM      9  C   UNL d   1     -45.460  11.204  23.311  0.00  0.00     0.002 A 
ATOM     10  N   UNL d   1     -44.835  12.981  22.228  0.00  0.00    -0.242 NA
ATOM     11  C   UNL d   1     -45.530  13.430  22.241  0.00  0.00     0.099 A 
ATOM     12  C   UNL d   1     -46.133  10.903  23.685  0.00  0.00     0.002 A 
ATOM     13  C   UNL d   1     -46.823  11.351  23.698  0.00  0.00     0.019 A 
ENDBRANCH   1   4
BRANCH   2  14
ATOM     14  C   UNL d   1     -48.961  12.612  23.221  0.00  0.00     0.062 C 
BRANCH  14  15
ATOM     15  C   UNL d   1     -49.541  12.479  22.653  0.00  0.00     0.005 C 
BRANCH  15  16
ATOM     16  C   UNL d   1     -50.020  13.107  22.406  0.00  0.00     0.000 A 
ATOM     17  C   UNL d   1     -50.204  13.713  22.937  0.00  0.00     0.000 A 
ATOM     18  C   UNL d   1     -50.680  14.341  22.697  0.00  0.00     0.000 A 
ATOM     19  C   UNL d   1     -50.977  14.365  21.923  0.00  0.00     0.000 A 
ATOM     20  C   UNL d   1     -50.795  13.761  21.393  0.00  0.00     0.000 A 
ATOM     21  C   UNL d   1     -50.317  13.131  21.631  0.00  0.00     0.000 A 
ENDBRANCH  15  16
ENDBRANCH  14  15
ENDBRANCH   2  14
TORSDOF 4
ENDMDL
MODEL 5
REMARK VINA RESULT:      -6.6      1.186      4.743
REMARK  4 active torsions:
REMARK  status: ('A' for Active; 'I' for Inactive)
REMARK    1  A    between atoms: C_2  and  N_1 
REMARK       I    between atoms: C_3  and  N_1 
REMARK    2  A    between atoms: C_4  and  C_3 
REMARK    3  A    between atoms: C_6  and  C_4 
REMARK    4  A    between atoms: C_10  and  C_6 
ROOT
ATOM      1  N   UNL d   1     -48.167  13.338  22.493  0.00  0.00    -0.208 NA
ATOM      2  C   UNL d   1     -47.356  13.478  22.582  0.00  0.00     0.279 C 
ATOM      3  O   UNL d   1     -47.083  14.253  22.662  0.00  0.00    -0.265 OA
ENDROOT
BRANCH   1   4
ATOM      4  C   UNL d   1     -48.697  13.973  22.485  0.00  0.00     0.085 A 
ATOM      5  C   UNL d   1     -49.445  13.861  22.178  0.00  0.00     0.021 A 
ATOM      6  C   UNL d   1     -49.985  14.493  22.165  0.00  0.00     0.021 A 
ATOM      7  C   UNL d   1     -49.675  13.128  21.878  0.00  0.00     0.022 A 
ATOM      8  C   UNL d   1     -50.731  14.384  21.859  0.00  0.00     0.099 A 
ATOM      9  C   UNL d   1     -49.755  15.226  22.465  0.00  0.00     0.002 A 
ATOM     10  N   UNL d   1     -50.959  13.659  21.562  0.00  0.00    -0.242 NA
ATOM     11  C   UNL d   1     -50.429  13.024  21.570  0.00  0.00     0.099 A 
ATOM     12  C   UNL d   1     -48.995  15.332  22.775  0.00  0.00     0.002 A 
ATOM     13  C   UNL d   1     -48.469  14.700  22.782  0.00  0.00     0.019 A 
ENDBRANCH   1   4
BRANCH   2  14
ATOM     14  C   UNL d   1     -46.822  12.851  22.591  0.00  0.00     0.062 C 
BRANCH  14  15
ATOM     15  C   UNL d   1     -46.431  12.655  23.287  0.00  0.00     0.005 C 
BRANCH  15  16
ATOM     16  C   UNL d   1     -46.007  11.946  23.330  0.00  0.00     0.000 A 
ATOM     17  C   UNL d   1     -46.367  11.274  23.648  0.00  0.00     0.000 A 
ATOM     18  C   UNL d   1     -45.950  10.565  23.693  0.00  0.00     0.000 A 
ATOM     19  C   UNL d   1     -45.168  10.525  23.419  0.00  0.00     0.000 A 
ATOM     20  C   UNL d   1     -44.808  11.194  23.101  0.00  0.00     0.000 A 
ATOM     21  C   UNL d   1     -45.224  11.906  23.056  0.00  0.00     0.000 A 
ENDBRANCH  15  16
ENDBRANCH  14  15
ENDBRANCH   2  14
TORSDOF 4
ENDMDL
MODEL 6
REMARK VINA RESULT:      -5.9      8.441      9.520
REMARK  4 active torsions:
REMARK  status: ('A' for Active; 'I' for Inactive)
REMARK    1  A    between atoms: C_2  and  N_1 
REMARK       I    between atoms: C_3  and  N_1 
REMARK    2  A    between atoms: C_4  and  C_3 
REMARK    3  A    between atoms: C_6  and  C_4 
REMARK    4  A    between atoms: C_10  and  C_6 
ROOT
ATOM      1  N   UNL d   1     -39.819  14.227  19.094  0.00  0.00    -0.208 NA
ATOM      2  C   UNL d   1     -40.068  14.632  19.772  0.00  0.00     0.279 C 
ATOM      3  O   UNL d   1     -40.497  15.332  19.693  0.00  0.00    -0.265 OA
ENDROOT
BRANCH   1   4
ATOM      4  C   UNL d   1     -40.001  14.527  18.345  0.00  0.00     0.085 A 
ATOM      5  C   UNL d   1     -39.521  14.335  17.713  0.00  0.00     0.021 A 
ATOM      6  C   UNL d   1     -39.695  14.630  16.957  0.00  0.00     0.021 A 
ATOM      7  C   UNL d   1     -38.862  13.849  17.815  0.00  0.00     0.022 A 
ATOM      8  C   UNL d   1     -39.218  14.440  16.325  0.00  0.00     0.099 A 
ATOM      9  C   UNL d   1     -40.354  15.116  16.856  0.00  0.00     0.002 A 
ATOM     10  N   UNL d   1     -38.566  13.960  16.425  0.00  0.00    -0.242 NA
ATOM     11  C   UNL d   1     -38.383  13.660  17.174  0.00  0.00     0.099 A 
ATOM     12  C   UNL d   1     -40.837  15.307  17.499  0.00  0.00     0.002 A 
ATOM     13  C   UNL d   1     -40.654  15.008  18.244  0.00  0.00     0.019 A 
ENDBRANCH   1   4
BRANCH   2  14
ATOM     14  C   UNL d   1     -39.890  14.340  20.521  0.00  0.00     0.062 C 
BRANCH  14  15
ATOM     15  C   UNL d   1     -39.779  14.860  21.149  0.00  0.00     0.005 C 
BRANCH  15  16
ATOM     16  C   UNL d   1     -39.393  14.597  21.832  0.00  0.00     0.000 A 
ATOM     17  C   UNL d   1     -39.037  15.146  22.336  0.00  0.00     0.000 A 
ATOM     18  C   UNL d   1     -38.651  14.891  23.017  0.00  0.00     0.000 A 
ATOM     19  C   UNL d   1     -38.619  14.081  23.198  0.00  0.00     0.000 A 
ATOM     20  C   UNL d   1     -38.974  13.533  22.696  0.00  0.00     0.000 A 
ATOM     21  C   UNL d   1     -39.361  13.788  22.013  0.00  0.00     0.000 A 
ENDBRANCH  15  16
ENDBRANCH  14  15
ENDBRANCH   2  14
TORSDOF 4
ENDMDL
MODEL 7
REMARK VINA RESULT:      -5.9      8.749      9.736
REMARK  4 active torsions:
REMARK  status: ('A' for Active; 'I' for Inactive)
REMARK    1  A    between atoms: C_2  and  N_1 
REMARK       I    between atoms: C_3  and  N_1 
REMARK    2  A    between atoms: C_4  and  C_3 
REMARK    3  A    between atoms: C_6  and  C_4 
REMARK    4  A    between atoms: C_10  and  C_6 
ROOT
ATOM      1  N   UNL d   1     -39.685  14.275  19.385  0.00  0.00    -0.208 NA
ATOM      2  C   UNL d   1     -39.049  14.033  19.858  0.00  0.00     0.279 C 
ATOM      3  O   UNL d   1     -38.359  13.757  19.500  0.00  0.00    -0.265 OA
ENDROOT
BRANCH   1   4
ATOM      4  C   UNL d   1     -39.624  14.238  18.561  0.00  0.00     0.085 A 
ATOM      5  C   UNL d   1     -40.045  14.771  18.109  0.00  0.00     0.021 A 
ATOM      6  C   UNL d   1     -39.992  14.742  17.280  0.00  0.00     0.021 A 
ATOM      7  C   UNL d   1     -40.526  15.341  18.462  0.00  0.00     0.022 A 
ATOM      8  C   UNL d   1     -40.410  15.273  16.826  0.00  0.00     0.099 A 
ATOM      9  C   UNL d   1     -39.511  14.172  16.927  0.00  0.00     0.002 A 
ATOM     10  N   UNL d   1     -40.886  15.836  17.175  0.00  0.00    -0.242 NA
ATOM     11  C   UNL d   1     -40.947  15.874  17.999  0.00  0.00     0.099 A 
ATOM     12  C   UNL d   1     -39.087  13.635  17.391  0.00  0.00     0.002 A 
ATOM     13  C   UNL d   1     -39.148  13.673  18.211  0.00  0.00     0.019 A 
ENDBRANCH   1   4
BRANCH   2  14
ATOM     14  C   UNL d   1     -39.102  14.068  20.679  0.00  0.00     0.062 C 
BRANCH  14  15
ATOM     15  C   UNL d   1     -38.431  13.945  21.139  0.00  0.00     0.005 C 
BRANCH  15  16
ATOM     16  C   UNL d   1     -38.494  13.964  21.963  0.00  0.00     0.000 A 
ATOM     17  C   UNL d   1     -38.540  14.692  22.352  0.00  0.00     0.000 A 
ATOM     18  C   UNL d   1     -38.603  14.718  23.173  0.00  0.00     0.000 A 
ATOM     19  C   UNL d   1     -38.620  14.013  23.610  0.00  0.00     0.000 A 
ATOM     20  C   UNL d   1     -38.574  13.287  23.224  0.00  0.00     0.000 A 
ATOM     21  C   UNL d   1     -38.511  13.259  22.401  0.00  0.00     0.000 A 
ENDBRANCH  15  16
ENDBRANCH  14  15
ENDBRANCH   2  14
TORSDOF 4
ENDMDL
MODEL 8
REMARK VINA RESULT:      -5.6      8.488      8.922
REMARK  4 active torsions:
REMARK  status: ('A' for Active; 'I' for Inactive)
REMARK    1  A    between atoms: C_2  and  N_1 
REMARK       I    between atoms: C_3  and  N_1 
REMARK    2  A    between atoms: C_4  and  C_3 
REMARK    3  A    between atoms: C_6  and  C_4 
REMARK    4  A    between atoms: C_10  and  C_6 
ROOT
ATOM      1  N   UNL d   1     -39.014  15.013  20.899  0.00  0.00    -0.208 NA
ATOM      2  C   UNL d   1     -39.637  15.427  20.542  0.00  0.00     0.279 C 
ATOM      3  O   UNL d   1     -40.157  15.862  21.012  0.00  0.00    -0.265 OA
ENDROOT
BRANCH   1   4
ATOM      4  C   UNL d   1     -38.918  15.039  21.720  0.00  0.00     0.085 A 
ATOM      5  C   UNL d   1     -38.597  14.393  22.102  0.00  0.00     0.021 A 
ATOM      6  C   UNL d   1     -38.496  14.409  22.927  0.00  0.00     0.021 A 
ATOM      7  C   UNL d   1     -38.370  13.721  21.681  0.00  0.00     0.022 A 
ATOM      8  C   UNL d   1     -38.176  13.766  23.310  0.00  0.00     0.099 A 
ATOM      9  C   UNL d   1     -38.724  15.081  23.348  0.00  0.00     0.002 A 
ATOM     10  N   UNL d   1     -37.951  13.102  22.894  0.00  0.00    -0.242 NA
ATOM     11  C   UNL d   1     -38.047  13.075  22.073  0.00  0.00     0.099 A 
ATOM     12  C   UNL d   1     -39.048  15.732  22.954  0.00  0.00     0.002 A 
ATOM     13  C   UNL d   1     -39.143  15.705  22.137  0.00  0.00     0.019 A 
ENDBRANCH   1   4
BRANCH   2  14
ATOM     14  C   UNL d   1     -39.739  15.405  19.726  0.00  0.00     0.062 C 
BRANCH  14  15
ATOM     15  C   UNL d   1     -40.493  15.315  19.408  0.00  0.00     0.005 C 
BRANCH  15  16
ATOM     16  C   UNL d   1     -40.586  15.267  18.588  0.00  0.00     0.000 A 
ATOM     17  C   UNL d   1     -40.409  14.560  18.198  0.00  0.00     0.000 A 
ATOM     18  C   UNL d   1     -40.499  14.506  17.381  0.00  0.00     0.000 A 
ATOM     19  C   UNL d   1     -40.768  15.161  16.949  0.00  0.00     0.000 A 
ATOM     20  C   UNL d   1     -40.945  15.866  17.336  0.00  0.00     0.000 A 
ATOM     21  C   UNL d   1     -40.855  15.922  18.155  0.00  0.00     0.000 A 
ENDBRANCH  15  16
ENDBRANCH  14  15
ENDBRANCH   2  14
TORSDOF 4
ENDMDL
MODEL 9
REMARK VINA RESULT:      -4.9      9.149     10.089
REMARK  4 active torsions:
REMARK  status: ('A' for Active; 'I' for Inactive)
REMARK    1  A    between atoms: C_2  and  N_1 
REMARK       I    between atoms: C_3  and  N_1 
REMARK    2  A    between atoms: C_4  and  C_3 
REMARK    3  A    between atoms: C_6  and  C_4 
REMARK    4  A    between atoms: C_10  and  C_6 
ROOT
ATOM      1  N   UNL d   1     -38.623  14.320  20.497  0.00  0.00    -0.208 NA
ATOM      2  C   UNL d   1     -38.441  13.797  19.881  0.00  0.00     0.279 C 
ATOM      3  O   UNL d   1     -38.171  13.039  20.058  0.00  0.00    -0.265 OA
ENDROOT
BRANCH   1   4
ATOM      4  C   UNL d   1     -38.533  14.079  21.283  0.00  0.00     0.085 A 
ATOM      5  C   UNL d   1     -38.688  14.612  21.881  0.00  0.00     0.021 A 
ATOM      6  C   UNL d   1     -38.600  14.380  22.674  0.00  0.00     0.021 A 
ATOM      7  C   UNL d   1     -38.930  15.382  21.711  0.00  0.00     0.022 A 
ATOM      8  C   UNL d   1     -38.753  14.909  23.273  0.00  0.00     0.099 A 
ATOM      9  C   UNL d   1     -38.357  13.610  22.844  0.00  0.00     0.002 A 
ATOM     10  N   UNL d   1     -38.994  15.671  23.105  0.00  0.00    -0.242 NA
ATOM     11  C   UNL d   1     -39.084  15.912  22.319  0.00  0.00     0.099 A 
ATOM     12  C   UNL d   1     -38.202  13.074  22.233  0.00  0.00     0.002 A 
ATOM     13  C   UNL d   1     -38.293  13.316  21.451  0.00  0.00     0.019 A 
ENDBRANCH   1   4
BRANCH   2  14
ATOM     14  C   UNL d   1     -38.529  14.031  19.096  0.00  0.00     0.062 C 
BRANCH  14  15
ATOM     15  C   UNL d   1     -38.682  13.468  18.515  0.00  0.00     0.005 C 
BRANCH  15  16
ATOM     16  C   UNL d   1     -38.707  13.700  17.721  0.00  0.00     0.000 A 
ATOM     17  C   UNL d   1     -38.244  13.301  17.166  0.00  0.00     0.000 A 
ATOM     18  C   UNL d   1     -38.264  13.526  16.374  0.00  0.00     0.000 A 
ATOM     19  C   UNL d   1     -38.750  14.155  16.133  0.00  0.00     0.000 A 
ATOM     20  C   UNL d   1     -39.212  14.553  16.686  0.00  0.00     0.000 A 
ATOM     21  C   UNL d   1     -39.193  14.328  17.481  0.00  0.00     0.000 A 
ENDBRANCH  15  16
ENDBRANCH  14  15
ENDBRANCH   2  14
TORSDOF 4
ENDMDL
