MODEL 1
REMARK VINA RESULT:      62.9      0.000      0.000
REMARK  4 active torsions:
REMARK  status: ('A' for Active; 'I' for Inactive)
REMARK    1  A    between atoms: N_7  and  C_4 
REMARK    2  A    between atoms: N_9  and  N_7 
REMARK       I    between atoms: C_8  and  N_9 
REMARK    3  A    between atoms: C_11  and  C_8 
REMARK    4  A    between atoms: C_13  and  C_14 
ROOT
ATOM      1  C   UNL d   1     -54.803-102.138 -40.229  0.00  0.00     0.297 C 
ATOM      2  N   UNL d   1     -54.904-102.076 -39.414  0.00  0.00    -0.104 NA
ATOM      3  O   UNL d   1     -54.719-102.880 -40.579  0.00  0.00    -0.264 OA
ENDROOT
BRANCH   1   4
ATOM      4  C   UNL d   1     -54.787-101.459 -40.694  0.00  0.00     0.059 A 
ATOM      5  C   UNL d   1     -54.769-101.521 -41.516  0.00  0.00     0.004 A 
ATOM      6  C   UNL d   1     -54.753-100.841 -41.981  0.00  0.00    -0.004 A 
ATOM      7  C   UNL d   1     -54.756-100.100 -41.623  0.00  0.00    -0.023 A 
ATOM      8  C   UNL d   1     -54.774-100.028 -40.793  0.00  0.00    -0.004 A 
ATOM      9  C   UNL d   1     -54.790-100.709 -40.337  0.00  0.00     0.004 A 
BRANCH   7  10
ATOM     10  C   UNL d   1     -54.739 -99.421 -42.101  0.00  0.00     0.019 C 
ATOM     11  C   UNL d   1     -54.755 -99.684 -42.871  0.00  0.00     0.004 C 
ATOM     12  C   UNL d   1     -54.715 -98.791 -41.546  0.00  0.00     0.004 C 
ATOM     13  C   UNL d   1     -54.724 -98.755 -42.577  0.00  0.00     0.004 C 
ENDBRANCH   7  10
ENDBRANCH   1   4
BRANCH   2  14
ATOM     14  N   UNL d   1     -54.920-102.754 -38.950  0.00  0.00    -0.127 NA
BRANCH  14  15
ATOM     15  C   UNL d   1     -55.286-102.741 -38.209  0.00  0.00     0.178 A 
ATOM     16  N   UNL d   1     -56.105-102.763 -38.150  0.00  0.00    -0.240 N 
ATOM     17  C   UNL d   1     -56.466-102.749 -37.417  0.00  0.00     0.343 A 
ATOM     18  C   UNL d   1     -56.564-102.799 -38.835  0.00  0.00     0.105 C 
ATOM     19  N   UNL d   1     -56.007-102.714 -36.733  0.00  0.00    -0.224 N 
ATOM     20  O   UNL d   1     -57.290-102.772 -37.360  0.00  0.00    -0.245 OA
ATOM     21  C   UNL d   1     -55.183-102.691 -36.774  0.00  0.00     0.271 A 
ATOM     22  C   UNL d   1     -56.372-102.700 -35.991  0.00  0.00     0.107 C 
ATOM     23  C   UNL d   1     -54.827-102.705 -37.524  0.00  0.00     0.101 A 
ATOM     24  O   UNL d   1     -54.728-102.655 -36.096  0.00  0.00    -0.266 OA
ENDBRANCH  14  15
ENDBRANCH   2  14
TORSDOF 4
ENDMDL
