MODEL 1
REMARK VINA RESULT:      -2.0      0.000      0.000
REMARK  6 active torsions:
REMARK  status: ('A' for Active; 'I' for Inactive)
REMARK    1  A    between atoms: C_7  and  C_1 
REMARK    2  A    between atoms: C_6  and  C_2 
REMARK       I    between atoms: N_9  and  C_6 
REMARK    3  A    between atoms: O_16  and  C_7 
REMARK       I    between atoms: C_8  and  N_10 
REMARK    4  A    between atoms: C_14  and  C_8 
REMARK    5  A    between atoms: N_10  and  N_9 
REMARK    6  A    between atoms: C_20  and  O_16 
ROOT
ATOM      1  C   UNL d   1      28.813  15.993 -23.460  0.00  0.00     0.083 A 
ATOM      2  C   UNL d   1      30.059  15.886 -23.908  0.00  0.00     0.141 A 
ATOM      3  C   UNL d   1      29.298  16.126 -24.113  0.00  0.00     0.029 A 
ATOM      4  N   UNL d   1      30.046  15.609 -23.142  0.00  0.00    -0.240 NA
ATOM      5  C   UNL d   1      29.274  15.671 -22.852  0.00  0.00     0.087 A 
ATOM      6  C   UNL d   1      29.058  16.442 -24.838  0.00  0.00     0.002 C 
ATOM      7  C   UNL d   1      29.018  15.456 -22.109  0.00  0.00     0.021 C 
ENDROOT
BRANCH   2   8
ATOM      8  C   UNL d   1      30.725  15.923 -24.404  0.00  0.00     0.314 C 
ATOM      9  N   UNL d   1      31.350  16.420 -24.217  0.00  0.00    -0.101 NA
ATOM     10  O   UNL d   1      30.756  15.459 -25.085  0.00  0.00    -0.262 OA
BRANCH   9  11
ATOM     11  N   UNL d   1      32.013  16.459 -24.709  0.00  0.00    -0.102 NA
ATOM     12  C   UNL d   1      32.582  17.044 -24.599  0.00  0.00     0.297 C 
ATOM     13  O   UNL d   1      33.241  17.073 -25.097  0.00  0.00    -0.264 OA
BRANCH  12  14
ATOM     14  C   UNL d   1      32.487  17.592 -23.995  0.00  0.00     0.059 A 
ATOM     15  C   UNL d   1      32.842  17.446 -23.262  0.00  0.00     0.005 A 
ATOM     16  C   UNL d   1      32.748  17.998 -22.646  0.00  0.00     0.000 A 
ATOM     17  C   UNL d   1      32.304  18.680 -22.779  0.00  0.00     0.000 A 
ATOM     18  C   UNL d   1      31.955  18.819 -23.508  0.00  0.00     0.000 A 
ATOM     19  C   UNL d   1      32.047  18.271 -24.120  0.00  0.00     0.005 A 
ENDBRANCH  12  14
ENDBRANCH   9  11
ENDBRANCH   2   8
BRANCH   1  20
ATOM     20  C   UNL d   1      28.002  16.153 -23.416  0.00  0.00     0.302 C 
ATOM     21  O   UNL d   1      27.728  16.925 -23.521  0.00  0.00    -0.259 OA
BRANCH  20  22
ATOM     22  O   UNL d   1      27.465  15.540 -23.267  0.00  0.00    -0.271 OA
BRANCH  22  23
ATOM     23  C   UNL d   1      26.748  15.529 -23.650  0.00  0.00     0.126 C 
ATOM     24  C   UNL d   1      26.046  15.459 -23.221  0.00  0.00     0.029 C 
ENDBRANCH  22  23
ENDBRANCH  20  22
ENDBRANCH   1  20
TORSDOF 6
ENDMDL
MODEL 2
REMARK VINA RESULT:      -1.9      4.111      6.300
REMARK  6 active torsions:
REMARK  status: ('A' for Active; 'I' for Inactive)
REMARK    1  A    between atoms: C_7  and  C_1 
REMARK    2  A    between atoms: C_6  and  C_2 
REMARK       I    between atoms: N_9  and  C_6 
REMARK    3  A    between atoms: O_16  and  C_7 
REMARK       I    between atoms: C_8  and  N_10 
REMARK    4  A    between atoms: C_14  and  C_8 
REMARK    5  A    between atoms: N_10  and  N_9 
REMARK    6  A    between atoms: C_20  and  O_16 
ROOT
ATOM      1  C   UNL d   1      32.605  21.737 -20.645  0.00  0.00     0.083 A 
ATOM      2  C   UNL d   1      32.976  21.299 -21.843  0.00  0.00     0.141 A 
ATOM      3  C   UNL d   1      32.583  21.908 -21.451  0.00  0.00     0.029 A 
ATOM      4  N   UNL d   1      33.238  20.761 -21.290  0.00  0.00    -0.240 NA
ATOM      5  C   UNL d   1      33.012  21.024 -20.539  0.00  0.00     0.087 A 
ATOM      6  C   UNL d   1      32.229  22.570 -21.796  0.00  0.00     0.002 C 
ATOM      7  C   UNL d   1      33.163  20.650 -19.831  0.00  0.00     0.021 C 
ENDROOT
BRANCH   2   8
ATOM      8  C   UNL d   1      33.084  21.248 -22.665  0.00  0.00     0.314 C 
ATOM      9  N   UNL d   1      33.089  20.516 -23.035  0.00  0.00    -0.101 NA
ATOM     10  O   UNL d   1      33.187  21.935 -23.109  0.00  0.00    -0.262 OA
BRANCH   9  11
ATOM     11  N   UNL d   1      33.196  20.462 -23.852  0.00  0.00    -0.102 NA
ATOM     12  C   UNL d   1      33.010  19.768 -24.254  0.00  0.00     0.297 C 
ATOM     13  O   UNL d   1      33.121  19.725 -25.072  0.00  0.00    -0.264 OA
BRANCH  12  14
ATOM     14  C   UNL d   1      32.715  19.125 -23.836  0.00  0.00     0.059 A 
ATOM     15  C   UNL d   1      33.241  18.647 -23.413  0.00  0.00     0.005 A 
ATOM     16  C   UNL d   1      32.947  17.995 -22.988  0.00  0.00     0.000 A 
ATOM     17  C   UNL d   1      32.137  17.838 -22.997  0.00  0.00     0.000 A 
ATOM     18  C   UNL d   1      31.621  18.316 -23.419  0.00  0.00     0.000 A 
ATOM     19  C   UNL d   1      31.912  18.964 -23.841  0.00  0.00     0.005 A 
ENDBRANCH  12  14
ENDBRANCH   9  11
ENDBRANCH   2   8
BRANCH   1  20
ATOM     20  C   UNL d   1      32.277  22.199 -20.040  0.00  0.00     0.302 C 
ATOM     21  O   UNL d   1      31.463  22.188 -19.911  0.00  0.00    -0.259 OA
BRANCH  20  22
ATOM     22  O   UNL d   1      32.766  22.671 -19.566  0.00  0.00    -0.271 OA
BRANCH  22  23
ATOM     23  C   UNL d   1      32.441  23.112 -18.965  0.00  0.00     0.126 C 
ATOM     24  C   UNL d   1      32.928  23.528 -18.444  0.00  0.00     0.029 C 
ENDBRANCH  22  23
ENDBRANCH  20  22
ENDBRANCH   1  20
TORSDOF 6
ENDMDL
MODEL 3
REMARK VINA RESULT:       0.4      2.479      5.164
REMARK  6 active torsions:
REMARK  status: ('A' for Active; 'I' for Inactive)
REMARK    1  A    between atoms: C_7  and  C_1 
REMARK    2  A    between atoms: C_6  and  C_2 
REMARK       I    between atoms: N_9  and  C_6 
REMARK    3  A    between atoms: O_16  and  C_7 
REMARK       I    between atoms: C_8  and  N_10 
REMARK    4  A    between atoms: C_14  and  C_8 
REMARK    5  A    between atoms: N_10  and  N_9 
REMARK    6  A    between atoms: C_20  and  O_16 
ROOT
ATOM      1  C   UNL d   1      32.884  20.313 -22.688  0.00  0.00     0.083 A 
ATOM      2  C   UNL d   1      32.854  19.010 -22.947  0.00  0.00     0.141 A 
ATOM      3  C   UNL d   1      32.772  19.570 -22.349  0.00  0.00     0.029 A 
ATOM      4  N   UNL d   1      33.013  19.398 -23.645  0.00  0.00    -0.240 NA
ATOM      5  C   UNL d   1      33.035  20.211 -23.496  0.00  0.00     0.087 A 
ATOM      6  C   UNL d   1      32.607  19.422 -21.552  0.00  0.00     0.002 C 
ATOM      7  C   UNL d   1      33.178  20.799 -24.042  0.00  0.00     0.021 C 
ENDROOT
BRANCH   2   8
ATOM      8  C   UNL d   1      32.783  18.188 -22.849  0.00  0.00     0.314 C 
ATOM      9  N   UNL d   1      32.261  17.761 -23.316  0.00  0.00    -0.101 NA
ATOM     10  O   UNL d   1      33.239  17.802 -22.281  0.00  0.00    -0.262 OA
BRANCH   9  11
ATOM     11  N   UNL d   1      32.189  16.944 -23.221  0.00  0.00    -0.102 NA
ATOM     12  C   UNL d   1      31.574  16.533 -23.583  0.00  0.00     0.297 C 
ATOM     13  O   UNL d   1      31.512  15.715 -23.480  0.00  0.00    -0.264 OA
BRANCH  12  14
ATOM     14  C   UNL d   1      31.029  16.941 -24.041  0.00  0.00     0.059 A 
ATOM     15  C   UNL d   1      31.305  17.455 -24.629  0.00  0.00     0.005 A 
ATOM     16  C   UNL d   1      30.758  17.871 -25.096  0.00  0.00     0.000 A 
ATOM     17  C   UNL d   1      29.950  17.764 -24.966  0.00  0.00     0.000 A 
ATOM     18  C   UNL d   1      29.683  17.253 -24.382  0.00  0.00     0.000 A 
ATOM     19  C   UNL d   1      30.227  16.839 -23.917  0.00  0.00     0.005 A 
ENDBRANCH  12  14
ENDBRANCH   9  11
ENDBRANCH   2   8
BRANCH   1  20
ATOM     20  C   UNL d   1      32.852  21.039 -22.291  0.00  0.00     0.302 C 
ATOM     21  O   UNL d   1      33.241  21.696 -22.604  0.00  0.00    -0.259 OA
BRANCH  20  22
ATOM     22  O   UNL d   1      32.430  21.107 -21.582  0.00  0.00    -0.271 OA
BRANCH  22  23
ATOM     23  C   UNL d   1      32.599  21.715 -21.068  0.00  0.00     0.126 C 
ATOM     24  C   UNL d   1      32.101  22.371 -21.021  0.00  0.00     0.029 C 
ENDBRANCH  22  23
ENDBRANCH  20  22
ENDBRANCH   1  20
TORSDOF 6
ENDMDL
