MODEL 1
REMARK VINA RESULT:      64.5      0.000      0.000
REMARK  4 active torsions:
REMARK  status: ('A' for Active; 'I' for Inactive)
REMARK    1  A    between atoms: C_12  and  N_1 
REMARK    2  A    between atoms: N_3  and  C_11 
REMARK    3  A    between atoms: C_11  and  C_15 
REMARK    4  A    between atoms: C_15  and  C_12 
ROOT
ATOM      1  N   UNL d   1      59.953  49.696  51.131  0.00  0.00    -0.303 N 
ATOM      2  C   UNL d   1      59.960  49.696  51.962  0.00  0.00     0.064 A 
ATOM      3  C   UNL d   1      59.178  49.698  52.224  0.00  0.00     0.018 A 
ATOM      4  C   UNL d   1      58.684  49.700  51.562  0.00  0.00     0.018 A 
ATOM      5  C   UNL d   1      59.165  49.698  50.883  0.00  0.00     0.064 A 
ATOM      6  C   UNL d   1      58.820  49.699  50.133  0.00  0.00     0.018 A 
ATOM      7  C   UNL d   1      57.861  49.702  51.483  0.00  0.00     0.002 A 
ATOM      8  C   UNL d   1      58.001  49.701  50.057  0.00  0.00     0.002 A 
ATOM      9  C   UNL d   1      57.525  49.703  50.729  0.00  0.00     0.000 A 
ATOM     10  C   UNL d   1      60.632  49.694  52.439  0.00  0.00     0.019 C 
ATOM     11  C   UNL d   1      58.935  49.699  53.011  0.00  0.00     0.002 C 
ATOM     12  C   UNL d   1      56.705  49.705  50.653  0.00  0.00     0.000 C 
ENDROOT
BRANCH   1  13
ATOM     13  C   UNL d   1      60.618  49.694  50.639  0.00  0.00     0.124 C 
BRANCH  13  14
ATOM     14  C   UNL d   1      60.870  48.984  50.296  0.00  0.00     0.232 C 
ATOM     15  O   UNL d   1      61.024  48.950  49.494  0.00  0.00    -0.283 OA
BRANCH  14  16
ATOM     16  C   UNL d   1      60.962  48.316  50.769  0.00  0.00     0.144 C 
BRANCH  16  17
ATOM     17  N   UNL d   1      61.251  47.616  50.452  0.00  0.00    -0.225 N 
ATOM     18  N   UNL d   1      62.026  47.494  50.185  0.00  0.00    -0.165 NA
ATOM     19  C   UNL d   1      62.081  46.715  49.910  0.00  0.00     0.103 A 
ATOM     20  C   UNL d   1      62.748  46.351  49.594  0.00  0.00     0.022 C 
ATOM     21  C   UNL d   1      61.339  46.356  50.007  0.00  0.00     0.040 A 
ATOM     22  C   UNL d   1      60.828  46.916  50.343  0.00  0.00     0.085 A 
ATOM     23  C   UNL d   1      60.037  46.796  50.534  0.00  0.00     0.021 C 
ENDBRANCH  16  17
ENDBRANCH  14  16
ENDBRANCH  13  14
ENDBRANCH   1  13
TORSDOF 4
ENDMDL
MODEL 2
REMARK VINA RESULT:      64.7      1.170      2.236
REMARK  4 active torsions:
REMARK  status: ('A' for Active; 'I' for Inactive)
REMARK    1  A    between atoms: C_12  and  N_1 
REMARK    2  A    between atoms: N_3  and  C_11 
REMARK    3  A    between atoms: C_11  and  C_15 
REMARK    4  A    between atoms: C_15  and  C_12 
ROOT
ATOM      1  N   UNL d   1      58.143  49.629  50.549  0.00  0.00    -0.303 N 
ATOM      2  C   UNL d   1      57.597  49.544  49.928  0.00  0.00     0.064 A 
ATOM      3  C   UNL d   1      56.842  49.497  50.257  0.00  0.00     0.018 A 
ATOM      4  C   UNL d   1      56.914  49.552  51.078  0.00  0.00     0.018 A 
ATOM      5  C   UNL d   1      57.722  49.634  51.260  0.00  0.00     0.064 A 
ATOM      6  C   UNL d   1      57.962  49.702  52.047  0.00  0.00     0.018 A 
ATOM      7  C   UNL d   1      56.355  49.539  51.686  0.00  0.00     0.002 A 
ATOM      8  C   UNL d   1      57.404  49.688  52.650  0.00  0.00     0.002 A 
ATOM      9  C   UNL d   1      56.604  49.607  52.470  0.00  0.00     0.000 A 
ATOM     10  C   UNL d   1      57.781  49.513  49.125  0.00  0.00     0.019 C 
ATOM     11  C   UNL d   1      56.139  49.410  49.835  0.00  0.00     0.002 C 
ATOM     12  C   UNL d   1      56.046  49.594  53.074  0.00  0.00     0.000 C 
ENDROOT
BRANCH   1  13
ATOM     13  C   UNL d   1      58.964  49.697  50.469  0.00  0.00     0.124 C 
BRANCH  13  14
ATOM     14  C   UNL d   1      59.451  49.078  50.724  0.00  0.00     0.232 C 
ATOM     15  O   UNL d   1      59.118  48.395  51.028  0.00  0.00    -0.283 OA
BRANCH  14  16
ATOM     16  C   UNL d   1      60.269  49.157  50.668  0.00  0.00     0.144 C 
BRANCH  16  17
ATOM     17  N   UNL d   1      60.755  48.495  50.685  0.00  0.00    -0.225 N 
ATOM     18  N   UNL d   1      61.205  48.215  50.048  0.00  0.00    -0.165 NA
ATOM     19  C   UNL d   1      61.611  47.539  50.303  0.00  0.00     0.103 A 
ATOM     20  C   UNL d   1      62.124  47.077  49.856  0.00  0.00     0.022 C 
ATOM     21  C   UNL d   1      61.410  47.403  51.096  0.00  0.00     0.040 A 
ATOM     22  C   UNL d   1      60.880  47.996  51.329  0.00  0.00     0.085 A 
ATOM     23  C   UNL d   1      60.538  48.075  52.073  0.00  0.00     0.021 C 
ENDBRANCH  16  17
ENDBRANCH  14  16
ENDBRANCH  13  14
ENDBRANCH   1  13
TORSDOF 4
ENDMDL
MODEL 3
REMARK VINA RESULT:      64.9      1.174      3.853
REMARK  4 active torsions:
REMARK  status: ('A' for Active; 'I' for Inactive)
REMARK    1  A    between atoms: C_12  and  N_1 
REMARK    2  A    between atoms: N_3  and  C_11 
REMARK    3  A    between atoms: C_11  and  C_15 
REMARK    4  A    between atoms: C_15  and  C_12 
ROOT
ATOM      1  N   UNL d   1      60.573  48.977  50.852  0.00  0.00    -0.303 N 
ATOM      2  C   UNL d   1      60.782  48.962  51.657  0.00  0.00     0.064 A 
ATOM      3  C   UNL d   1      61.180  48.255  51.804  0.00  0.00     0.018 A 
ATOM      4  C   UNL d   1      61.220  47.829  51.097  0.00  0.00     0.018 A 
ATOM      5  C   UNL d   1      60.844  48.278  50.506  0.00  0.00     0.064 A 
ATOM      6  C   UNL d   1      60.799  47.987  49.734  0.00  0.00     0.018 A 
ATOM      7  C   UNL d   1      61.548  47.094  50.910  0.00  0.00     0.002 A 
ATOM      8  C   UNL d   1      61.126  47.256  49.550  0.00  0.00     0.002 A 
ATOM      9  C   UNL d   1      61.499  46.812  50.135  0.00  0.00     0.000 A 
ATOM     10  C   UNL d   1      60.619  49.552  52.208  0.00  0.00     0.019 C 
ATOM     11  C   UNL d   1      61.483  48.017  52.532  0.00  0.00     0.002 C 
ATOM     12  C   UNL d   1      61.826  46.080  49.951  0.00  0.00     0.000 C 
ENDROOT
BRANCH   1  13
ATOM     13  C   UNL d   1      60.167  49.586  50.466  0.00  0.00     0.124 C 
BRANCH  13  14
ATOM     14  C   UNL d   1      59.398  49.452  50.191  0.00  0.00     0.232 C 
ATOM     15  O   UNL d   1      59.281  49.097  49.463  0.00  0.00    -0.283 OA
BRANCH  14  16
ATOM     16  C   UNL d   1      58.756  49.678  50.655  0.00  0.00     0.144 C 
BRANCH  16  17
ATOM     17  N   UNL d   1      57.988  49.588  50.378  0.00  0.00    -0.225 N 
ATOM     18  N   UNL d   1      57.767  49.549  49.581  0.00  0.00    -0.165 NA
ATOM     19  C   UNL d   1      56.944  49.457  49.549  0.00  0.00     0.103 A 
ATOM     20  C   UNL d   1      56.483  49.394  48.871  0.00  0.00     0.022 C 
ATOM     21  C   UNL d   1      56.659  49.439  50.328  0.00  0.00     0.040 A 
ATOM     22  C   UNL d   1      57.306  49.520  50.838  0.00  0.00     0.085 A 
ATOM     23  C   UNL d   1      57.277  49.532  51.660  0.00  0.00     0.021 C 
ENDBRANCH  16  17
ENDBRANCH  14  16
ENDBRANCH  13  14
ENDBRANCH   1  13
TORSDOF 4
ENDMDL
