MODEL 1
REMARK VINA RESULT:      74.4      0.000      0.000
REMARK  2 active torsions:
REMARK  status: ('A' for Active; 'I' for Inactive)
REMARK    1  A    between atoms: C_4  and  C_1 
REMARK    2  A    between atoms: C_8  and  C_2 
REMARK       I    between atoms: N_7  and  C_4 
ROOT
ATOM      1  C   UNL d   1      57.941  49.309  51.335  0.00  0.00     0.081 A 
ATOM      2  C   UNL d   1      57.152  49.230  51.168  0.00  0.00     0.104 A 
ATOM      3  C   UNL d   1      58.049  49.410  52.141  0.00  0.00     0.033 A 
ATOM      4  O   UNL d   1      56.735  49.283  51.894  0.00  0.00    -0.307 OA
ATOM      5  C   UNL d   1      57.294  49.394  52.491  0.00  0.00     0.100 A 
ATOM      6  C   UNL d   1      58.717  49.515  52.614  0.00  0.00     0.044 A 
ATOM      7  C   UNL d   1      57.218  49.483  53.308  0.00  0.00     0.028 A 
ATOM      8  C   UNL d   1      58.645  49.604  53.435  0.00  0.00     0.196 A 
ATOM      9  C   UNL d   1      57.889  49.588  53.785  0.00  0.00     0.044 A 
ATOM     10  O   UNL d   1      59.306  49.707  53.894  0.00  0.00    -0.287 OA
ENDROOT
BRANCH   1  11
ATOM     11  C   UNL d   1      58.561  49.290  50.770  0.00  0.00     0.267 C 
ATOM     12  N   UNL d   1      59.334  49.394  51.006  0.00  0.00    -0.268 N 
ATOM     13  C   UNL d   1      59.954  49.376  50.442  0.00  0.00     0.110 A 
ATOM     14  C   UNL d   1      59.525  49.521  51.808  0.00  0.00     0.110 A 
ATOM     15  C   UNL d   1      60.733  49.482  50.690  0.00  0.00     0.142 A 
ATOM     16  O   UNL d   1      60.918  49.607  51.478  0.00  0.00    -0.300 OA
ATOM     17  C   UNL d   1      60.305  49.627  52.044  0.00  0.00     0.142 A 
ATOM     18  O   UNL d   1      58.376  49.165  49.981  0.00  0.00    -0.267 OA
ENDBRANCH   1  11
BRANCH   2  19
ATOM     19  C   UNL d   1      56.807  49.118  50.418  0.00  0.00     0.023 A 
ATOM     20  C   UNL d   1      56.886  49.694  49.856  0.00  0.00     0.002 A 
ATOM     21  C   UNL d   1      56.541  49.582  49.106  0.00  0.00     0.000 A 
ATOM     22  C   UNL d   1      56.125  48.895  48.936  0.00  0.00     0.000 A 
ATOM     23  C   UNL d   1      56.047  48.311  49.513  0.00  0.00     0.000 A 
ATOM     24  C   UNL d   1      56.391  48.423  50.259  0.00  0.00     0.002 A 
ENDBRANCH   2  19
TORSDOF 2
ENDMDL
