MODEL 1
REMARK VINA RESULT:      16.0      0.000      0.000
REMARK  3 active torsions:
REMARK  status: ('A' for Active; 'I' for Inactive)
REMARK    1  A    between atoms: C_7  and  N_1 
REMARK    2  A    between atoms: C_6  and  C_3 
REMARK    3  A    between atoms: O_16  and  C_13 
ROOT
ATOM      1  N   UNL d   1      14.091  12.774  -1.557  0.00  0.00    -0.273 N 
ATOM      2  C   UNL d   1      13.777  12.337  -0.931  0.00  0.00     0.265 A 
ATOM      3  C   UNL d   1      14.970  13.442  -0.649  0.00  0.00     0.087 A 
ATOM      4  C   UNL d   1      14.688  13.327  -1.415  0.00  0.00     0.089 A 
ATOM      5  C   UNL d   1      14.060  12.452  -0.164  0.00  0.00     0.069 A 
ATOM      6  O   UNL d   1      13.181  11.784  -1.072  0.00  0.00    -0.267 OA
ENDROOT
BRANCH   1   7
ATOM      7  C   UNL d   1      13.809  12.659  -2.323  0.00  0.00     0.067 A 
ATOM      8  C   UNL d   1      13.698  13.307  -2.819  0.00  0.00     0.020 A 
ATOM      9  C   UNL d   1      13.419  13.193  -3.576  0.00  0.00     0.026 A 
ATOM     10  C   UNL d   1      13.246  12.429  -3.852  0.00  0.00     0.094 A 
ATOM     11  C   UNL d   1      13.358  11.782  -3.351  0.00  0.00     0.026 A 
ATOM     12  C   UNL d   1      13.640  11.897  -2.586  0.00  0.00     0.020 A 
BRANCH  10  13
ATOM     13  O   UNL d   1      12.963  12.318  -4.619  0.00  0.00    -0.328 OA
ATOM     14  C   UNL d   1      13.346  11.798  -5.134  0.00  0.00     0.181 C 
ENDBRANCH  10  13
ENDBRANCH   1   7
BRANCH   3  15
ATOM     15  C   UNL d   1      15.597  13.975  -0.274  0.00  0.00     0.212 C 
ATOM     16  O   UNL d   1      16.400  13.626  -0.024  0.00  0.00    -0.644 OA
ATOM     17  O   UNL d   1      15.428  14.861  -0.145  0.00  0.00    -0.644 OA
ENDBRANCH   3  15
TORSDOF 3
ENDMDL
