MODEL 1
REMARK VINA RESULT:      -8.0      0.000      0.000
REMARK  4 active torsions:
REMARK  status: ('A' for Active; 'I' for Inactive)
REMARK    1  A    between atoms: C_5  and  N_1 
REMARK    2  A    between atoms: C_6  and  C_5 
REMARK       I    between atoms: N_9  and  C_6 
REMARK    3  A    between atoms: C_13  and  N_9 
REMARK    4  A    between atoms: O_19  and  C_14 
ROOT
ATOM      1  C   UNL d   1      53.149  32.280  53.165  0.00  0.00     0.297 C 
ATOM      2  N   UNL d   1      53.194  31.580  52.731  0.00  0.00    -0.207 NA
ATOM      3  O   UNL d   1      53.098  32.252  53.988  0.00  0.00    -0.264 OA
ENDROOT
BRANCH   1   4
ATOM      4  C   UNL d   1      53.156  33.005  52.780  0.00  0.00     0.148 C 
BRANCH   4   5
ATOM      5  N   UNL d   1      52.687  33.625  53.056  0.00  0.00    -0.235 N 
ATOM      6  C   UNL d   1      51.918  33.729  52.750  0.00  0.00     0.273 A 
ATOM      7  C   UNL d   1      51.449  34.349  53.026  0.00  0.00     0.086 A 
ATOM      8  O   UNL d   1      51.631  33.208  52.171  0.00  0.00    -0.266 OA
ATOM      9  C   UNL d   1      50.684  34.458  52.727  0.00  0.00     0.012 C 
ATOM     10  S   UNL d   1      51.747  34.865  53.608  0.00  0.00    -0.077 SA
ATOM     11  C   UNL d   1      52.502  34.757  53.902  0.00  0.00     0.097 A 
ATOM     12  C   UNL d   1      52.972  34.137  53.626  0.00  0.00     0.274 A 
ATOM     13  O   UNL d   1      53.746  34.026  53.929  0.00  0.00    -0.266 OA
ENDBRANCH   4   5
ENDBRANCH   1   4
BRANCH   2  14
ATOM     14  C   UNL d   1      53.187  30.853  53.120  0.00  0.00     0.085 A 
ATOM     15  C   UNL d   1      52.518  30.387  53.102  0.00  0.00     0.021 A 
ATOM     16  C   UNL d   1      52.502  29.671  53.481  0.00  0.00     0.026 A 
ATOM     17  C   UNL d   1      53.176  29.409  53.894  0.00  0.00     0.094 A 
ATOM     18  C   UNL d   1      53.846  29.874  53.912  0.00  0.00     0.026 A 
ATOM     19  C   UNL d   1      53.849  30.608  53.518  0.00  0.00     0.021 A 
BRANCH  17  20
ATOM     20  O   UNL d   1      53.160  28.669  54.286  0.00  0.00    -0.328 OA
ATOM     21  C   UNL d   1      53.378  28.608  55.079  0.00  0.00     0.181 C 
ENDBRANCH  17  20
ENDBRANCH   2  14
TORSDOF 4
ENDMDL
MODEL 2
REMARK VINA RESULT:      -7.3      1.755      4.530
REMARK  4 active torsions:
REMARK  status: ('A' for Active; 'I' for Inactive)
REMARK    1  A    between atoms: C_5  and  N_1 
REMARK    2  A    between atoms: C_6  and  C_5 
REMARK       I    between atoms: N_9  and  C_6 
REMARK    3  A    between atoms: C_13  and  N_9 
REMARK    4  A    between atoms: O_19  and  C_14 
ROOT
ATOM      1  C   UNL d   1      52.044  33.492  52.782  0.00  0.00     0.297 C 
ATOM      2  N   UNL d   1      51.766  34.180  52.423  0.00  0.00    -0.207 NA
ATOM      3  O   UNL d   1      51.522  32.999  53.188  0.00  0.00    -0.264 OA
ENDROOT
BRANCH   1   4
ATOM      4  C   UNL d   1      52.840  33.296  52.737  0.00  0.00     0.148 C 
BRANCH   4   5
ATOM      5  N   UNL d   1      53.175  32.792  53.297  0.00  0.00    -0.235 N 
ATOM      6  C   UNL d   1      53.560  33.113  53.964  0.00  0.00     0.273 A 
ATOM      7  C   UNL d   1      53.895  32.610  54.524  0.00  0.00     0.086 A 
ATOM      8  O   UNL d   1      53.602  33.937  54.058  0.00  0.00    -0.266 OA
ATOM      9  C   UNL d   1      54.278  32.921  55.189  0.00  0.00     0.012 C 
ATOM     10  S   UNL d   1      53.846  31.784  54.419  0.00  0.00    -0.077 SA
ATOM     11  C   UNL d   1      53.468  31.477  53.763  0.00  0.00     0.097 A 
ATOM     12  C   UNL d   1      53.132  31.981  53.202  0.00  0.00     0.274 A 
ATOM     13  O   UNL d   1      52.744  31.666  52.529  0.00  0.00    -0.266 OA
ENDBRANCH   4   5
ENDBRANCH   1   4
BRANCH   2  14
ATOM     14  C   UNL d   1      50.965  34.375  52.470  0.00  0.00     0.085 A 
ATOM     15  C   UNL d   1      50.475  34.243  51.831  0.00  0.00     0.021 A 
ATOM     16  C   UNL d   1      49.688  34.431  51.868  0.00  0.00     0.026 A 
ATOM     17  C   UNL d   1      49.376  34.762  52.566  0.00  0.00     0.094 A 
ATOM     18  C   UNL d   1      49.866  34.894  53.206  0.00  0.00     0.026 A 
ATOM     19  C   UNL d   1      50.673  34.696  53.154  0.00  0.00     0.021 A 
BRANCH  17  20
ATOM     20  O   UNL d   1      48.562  34.956  52.604  0.00  0.00    -0.328 OA
ATOM     21  C   UNL d   1      48.320  35.713  52.826  0.00  0.00     0.181 C 
ENDBRANCH  17  20
ENDBRANCH   2  14
TORSDOF 4
ENDMDL
MODEL 3
REMARK VINA RESULT:      -6.8      1.705      4.491
REMARK  4 active torsions:
REMARK  status: ('A' for Active; 'I' for Inactive)
REMARK    1  A    between atoms: C_5  and  N_1 
REMARK    2  A    between atoms: C_6  and  C_5 
REMARK       I    between atoms: N_9  and  C_6 
REMARK    3  A    between atoms: C_13  and  N_9 
REMARK    4  A    between atoms: O_19  and  C_14 
ROOT
ATOM      1  C   UNL d   1      53.499  32.334  53.563  0.00  0.00     0.297 C 
ATOM      2  N   UNL d   1      53.957  33.019  53.602  0.00  0.00    -0.207 NA
ATOM      3  O   UNL d   1      52.709  32.352  53.803  0.00  0.00    -0.264 OA
ENDROOT
BRANCH   1   4
ATOM      4  C   UNL d   1      53.827  31.635  53.285  0.00  0.00     0.148 C 
BRANCH   4   5
ATOM      5  N   UNL d   1      53.409  30.926  53.352  0.00  0.00    -0.235 N 
ATOM      6  C   UNL d   1      53.548  30.426  54.005  0.00  0.00     0.273 A 
ATOM      7  C   UNL d   1      53.130  29.717  54.072  0.00  0.00     0.086 A 
ATOM      8  O   UNL d   1      54.104  30.645  54.581  0.00  0.00    -0.266 OA
ATOM      9  C   UNL d   1      53.262  29.216  54.717  0.00  0.00     0.012 C 
ATOM     10  S   UNL d   1      52.574  29.508  53.488  0.00  0.00    -0.077 SA
ATOM     11  C   UNL d   1      52.445  30.005  52.851  0.00  0.00     0.097 A 
ATOM     12  C   UNL d   1      52.862  30.713  52.783  0.00  0.00     0.274 A 
ATOM     13  O   UNL d   1      52.728  31.221  52.130  0.00  0.00    -0.266 OA
ENDBRANCH   4   5
ENDBRANCH   1   4
BRANCH   2  14
ATOM     14  C   UNL d   1      53.625  33.721  53.882  0.00  0.00     0.085 A 
ATOM     15  C   UNL d   1      53.206  34.204  53.375  0.00  0.00     0.021 A 
ATOM     16  C   UNL d   1      52.877  34.895  53.641  0.00  0.00     0.026 A 
ATOM     17  C   UNL d   1      52.967  35.114  54.440  0.00  0.00     0.094 A 
ATOM     18  C   UNL d   1      53.386  34.631  54.947  0.00  0.00     0.026 A 
ATOM     19  C   UNL d   1      53.719  33.923  54.660  0.00  0.00     0.021 A 
BRANCH  17  20
ATOM     20  O   UNL d   1      52.627  35.828  54.714  0.00  0.00    -0.328 OA
ATOM     21  C   UNL d   1      53.101  36.479  54.892  0.00  0.00     0.181 C 
ENDBRANCH  17  20
ENDBRANCH   2  14
TORSDOF 4
ENDMDL
