MODEL 1
REMARK VINA RESULT:      41.4      0.000      0.000
REMARK  10 active torsions:
REMARK  status: ('A' for Active; 'I' for Inactive)
REMARK    1  A    between atoms: C_15  and  C_3 
REMARK       I    between atoms: C_8  and  N_7 
REMARK    2  A    between atoms: O_29  and  C_8 
REMARK       I    between atoms: N_9  and  C_11 
REMARK    3  A    between atoms: S_17  and  C_10 
REMARK    4  A    between atoms: C_11  and  C_23 
REMARK       I    between atoms: C_13  and  N_26 
REMARK    5  A    between atoms: C_16  and  C_13 
REMARK    6  A    between atoms: C_30  and  C_15 
REMARK    7  A    between atoms: C_23  and  S_17 
REMARK    8  A    between atoms: N_26  and  C_30 
REMARK    9  A    between atoms: C_35  and  O_29 
REMARK   10  A    between atoms: O_34  and  C_31 
ROOT
ATOM      1  N   UNL d   1      46.616 -18.681  42.932  0.00  0.00    -0.191 N 
ATOM      2  C   UNL d   1      46.603 -19.491  43.119  0.00  0.00     0.187 A 
ATOM      3  C   UNL d   1      46.630 -18.254  43.639  0.00  0.00     0.188 A 
ATOM      4  N   UNL d   1      46.613 -18.442  42.142  0.00  0.00    -0.156 NA
ATOM      5  N   UNL d   1      46.610 -19.555  43.944  0.00  0.00    -0.127 NA
ATOM      6  N   UNL d   1      46.627 -18.797  44.266  0.00  0.00    -0.127 NA
ATOM      7  C   UNL d   1      46.596 -19.011  41.539  0.00  0.00     0.131 A 
ATOM      8  C   UNL d   1      46.587 -20.046  42.517  0.00  0.00     0.043 A 
ATOM      9  C   UNL d   1      46.584 -19.812  41.725  0.00  0.00     0.031 A 
ENDROOT
BRANCH   7  10
ATOM     10  S   UNL d   1      46.593 -18.765  40.744  0.00  0.00    -0.061 SA
BRANCH  10  11
ATOM     11  C   UNL d   1      46.227 -18.046  40.536  0.00  0.00     0.098 C 
BRANCH  11  12
ATOM     12  C   UNL d   1      45.536 -18.060  40.072  0.00  0.00     0.272 C 
ATOM     13  N   UNL d   1      45.479 -17.552  39.432  0.00  0.00    -0.269 N 
ATOM     14  C   UNL d   1      46.099 -17.047  39.263  0.00  0.00     0.102 A 
ATOM     15  C   UNL d   1      44.805 -17.553  38.964  0.00  0.00     0.102 A 
ATOM     16  C   UNL d   1      46.031 -16.534  38.609  0.00  0.00     0.104 A 
ATOM     17  N   UNL d   1      45.344 -16.546  38.146  0.00  0.00    -0.249 N 
ATOM     18  C   UNL d   1      44.738 -17.054  38.327  0.00  0.00     0.104 A 
ATOM     19  C   UNL d   1      45.288 -16.030  37.496  0.00  0.00     0.378 C 
ATOM     20  O   UNL d   1      44.601 -16.042  37.033  0.00  0.00    -0.237 OA
ATOM     21  O   UNL d   1      44.922 -18.574  40.255  0.00  0.00    -0.266 OA
BRANCH  19  22
ATOM     22  O   UNL d   1      45.905 -15.523  37.324  0.00  0.00    -0.257 OA
BRANCH  22  23
ATOM     23  C   UNL d   1      45.737 -14.738  37.150  0.00  0.00     0.128 C 
ATOM     24  C   UNL d   1      46.118 -14.368  36.522  0.00  0.00     0.029 C 
ENDBRANCH  22  23
ENDBRANCH  19  22
ENDBRANCH  11  12
ENDBRANCH  10  11
ENDBRANCH   7  10
BRANCH   3  25
ATOM     25  C   UNL d   1      46.646 -17.429  43.702  0.00  0.00     0.061 C 
BRANCH  25  26
ATOM     26  C   UNL d   1      46.165 -17.043  44.256  0.00  0.00     0.105 C 
BRANCH  26  27
ATOM     27  N   UNL d   1      46.184 -16.219  44.306  0.00  0.00    -0.206 NA
ATOM     28  C   UNL d   1      45.489 -15.801  44.496  0.00  0.00     0.279 C 
ATOM     29  O   UNL d   1      44.784 -16.222  44.632  0.00  0.00    -0.265 OA
BRANCH  28  30
ATOM     30  C   UNL d   1      45.505 -14.981  44.547  0.00  0.00     0.058 A 
ATOM     31  C   UNL d   1      46.154 -14.567  44.251  0.00  0.00     0.007 A 
ATOM     32  C   UNL d   1      46.175 -13.745  44.299  0.00  0.00     0.024 A 
ATOM     33  C   UNL d   1      45.543 -13.339  44.645  0.00  0.00     0.094 A 
ATOM     34  C   UNL d   1      44.893 -13.753  44.941  0.00  0.00     0.024 A 
ATOM     35  C   UNL d   1      44.877 -14.580  44.889  0.00  0.00     0.007 A 
BRANCH  33  36
ATOM     36  O   UNL d   1      45.562 -12.520  44.694  0.00  0.00    -0.328 OA
ATOM     37  C   UNL d   1      45.950 -12.080  44.123  0.00  0.00     0.181 C 
ENDBRANCH  33  36
ENDBRANCH  28  30
ENDBRANCH  26  27
ENDBRANCH  25  26
ENDBRANCH   3  25
TORSDOF 10
ENDMDL
