MODEL 1
REMARK VINA RESULT:      -6.8      0.000      0.000
REMARK  5 active torsions:
REMARK  status: ('A' for Active; 'I' for Inactive)
REMARK    1  A    between atoms: C_5  and  C_1 
REMARK    2  A    between atoms: C_12  and  C_5 
REMARK    3  A    between atoms: C_7  and  C_22 
REMARK       I    between atoms: N_21  and  C_12 
REMARK    4  A    between atoms: C_23  and  N_21 
REMARK    5  A    between atoms: C_22  and  C_23 
ROOT
ATOM      1  C   UNL d   1     -47.276  14.114  22.493  0.00  0.00     0.102 C 
ENDROOT
BRANCH   1   2
ATOM      2  C   UNL d   1     -46.504  14.037  22.211  0.00  0.00     0.026 C 
BRANCH   2   3
ATOM      3  C   UNL d   1     -46.043  13.376  22.437  0.00  0.00     0.059 A 
ATOM      4  C   UNL d   1     -45.222  13.411  22.388  0.00  0.00     0.279 A 
ATOM      5  N   UNL d   1     -44.766  12.762  22.609  0.00  0.00    -0.208 NA
ATOM      6  O   UNL d   1     -44.853  14.108  22.112  0.00  0.00    -0.265 OA
ATOM      7  C   UNL d   1     -45.125  12.078  22.880  0.00  0.00     0.085 A 
ATOM      8  C   UNL d   1     -45.955  12.042  22.930  0.00  0.00     0.018 A 
ATOM      9  C   UNL d   1     -44.675  11.429  23.102  0.00  0.00     0.019 A 
ATOM     10  C   UNL d   1     -46.414  12.691  22.708  0.00  0.00     0.006 A 
ATOM     11  C   UNL d   1     -46.322  11.358  23.200  0.00  0.00     0.002 A 
ATOM     12  C   UNL d   1     -45.863  10.708  23.422  0.00  0.00     0.000 A 
ATOM     13  C   UNL d   1     -45.037  10.745  23.372  0.00  0.00     0.002 A 
ATOM     14  C   UNL d   1     -46.232  10.012  23.697  0.00  0.00     0.000 C 
ATOM     15  C   UNL d   1     -44.578  10.096  23.594  0.00  0.00     0.000 C 
ENDBRANCH   2   3
ENDBRANCH   1   2
BRANCH   1  16
ATOM     16  N   UNL d   1     -47.578  14.861  22.645  0.00  0.00    -0.204 NA
ATOM     17  C   UNL d   1     -48.387  14.994  22.587  0.00  0.00     0.318 C 
ATOM     18  O   UNL d   1     -48.693  15.743  22.739  0.00  0.00    -0.262 OA
BRANCH  17  19
ATOM     19  C   UNL d   1     -48.898  14.372  22.374  0.00  0.00     0.254 C 
ATOM     20  O   UNL d   1     -48.742  13.931  21.693  0.00  0.00    -0.281 OA
BRANCH  19  21
ATOM     21  C   UNL d   1     -49.551  14.204  22.839  0.00  0.00     0.064 A 
ATOM     22  C   UNL d   1     -49.957  14.724  23.336  0.00  0.00     0.102 A 
ATOM     23  N   UNL d   1     -50.577  14.323  23.697  0.00  0.00    -0.244 NA
ATOM     24  C   UNL d   1     -50.561  13.543  23.426  0.00  0.00     0.082 A 
ATOM     25  C   UNL d   1     -49.929  13.469  22.897  0.00  0.00     0.022 A 
ATOM     26  C   UNL d   1     -51.038  12.892  23.591  0.00  0.00     0.019 A 
ATOM     27  C   UNL d   1     -49.777  12.746  22.536  0.00  0.00     0.002 A 
ATOM     28  C   UNL d   1     -50.260  12.089  22.704  0.00  0.00     0.000 A 
ATOM     29  C   UNL d   1     -50.886  12.169  23.230  0.00  0.00     0.002 A 
ENDBRANCH  19  21
ENDBRANCH  17  19
ENDBRANCH   1  16
TORSDOF 5
ENDMDL
MODEL 2
REMARK VINA RESULT:      -6.0      3.577      6.890
REMARK  5 active torsions:
REMARK  status: ('A' for Active; 'I' for Inactive)
REMARK    1  A    between atoms: C_5  and  C_1 
REMARK    2  A    between atoms: C_12  and  C_5 
REMARK    3  A    between atoms: C_7  and  C_22 
REMARK       I    between atoms: N_21  and  C_12 
REMARK    4  A    between atoms: C_23  and  N_21 
REMARK    5  A    between atoms: C_22  and  C_23 
ROOT
ATOM      1  C   UNL d   1     -42.985  13.052  21.371  0.00  0.00     0.102 C 
ENDROOT
BRANCH   1   2
ATOM      2  C   UNL d   1     -43.402  12.369  21.572  0.00  0.00     0.026 C 
BRANCH   2   3
ATOM      3  C   UNL d   1     -44.113  12.429  22.008  0.00  0.00     0.059 A 
ATOM      4  C   UNL d   1     -44.287  11.872  22.590  0.00  0.00     0.279 A 
ATOM      5  N   UNL d   1     -44.986  11.929  23.021  0.00  0.00    -0.208 NA
ATOM      6  O   UNL d   1     -43.751  11.250  22.741  0.00  0.00    -0.265 OA
ATOM      7  C   UNL d   1     -45.514  12.537  22.875  0.00  0.00     0.085 A 
ATOM      8  C   UNL d   1     -45.339  13.100  22.287  0.00  0.00     0.018 A 
ATOM      9  C   UNL d   1     -46.212  12.598  23.302  0.00  0.00     0.019 A 
ATOM     10  C   UNL d   1     -44.638  13.045  21.854  0.00  0.00     0.006 A 
ATOM     11  C   UNL d   1     -45.864  13.714  22.135  0.00  0.00     0.002 A 
ATOM     12  C   UNL d   1     -46.565  13.769  22.568  0.00  0.00     0.000 A 
ATOM     13  C   UNL d   1     -46.738  13.208  23.153  0.00  0.00     0.002 A 
ATOM     14  C   UNL d   1     -47.101  14.391  22.417  0.00  0.00     0.000 C 
ATOM     15  C   UNL d   1     -47.439  13.263  23.586  0.00  0.00     0.000 C 
ENDBRANCH   2   3
ENDBRANCH   1   2
BRANCH   1  16
ATOM     16  N   UNL d   1     -42.701  13.142  20.607  0.00  0.00    -0.204 NA
ATOM     17  C   UNL d   1     -41.991  13.538  20.480  0.00  0.00     0.318 C 
ATOM     18  O   UNL d   1     -41.703  13.629  19.714  0.00  0.00    -0.262 OA
BRANCH  17  19
ATOM     19  C   UNL d   1     -41.564  13.847  21.125  0.00  0.00     0.254 C 
ATOM     20  O   UNL d   1     -41.489  13.400  21.815  0.00  0.00    -0.281 OA
BRANCH  19  21
ATOM     21  C   UNL d   1     -41.222  14.589  21.069  0.00  0.00     0.064 A 
ATOM     22  C   UNL d   1     -41.594  15.294  20.848  0.00  0.00     0.102 A 
ATOM     23  N   UNL d   1     -41.045  15.905  20.867  0.00  0.00    -0.244 NA
ATOM     24  C   UNL d   1     -40.322  15.583  21.103  0.00  0.00     0.082 A 
ATOM     25  C   UNL d   1     -40.431  14.772  21.227  0.00  0.00     0.022 A 
ATOM     26  C   UNL d   1     -39.580  15.921  21.220  0.00  0.00     0.019 A 
ATOM     27  C   UNL d   1     -39.799  14.304  21.468  0.00  0.00     0.002 A 
ATOM     28  C   UNL d   1     -39.049  14.648  21.586  0.00  0.00     0.000 A 
ATOM     29  C   UNL d   1     -38.948  15.453  21.460  0.00  0.00     0.002 A 
ENDBRANCH  19  21
ENDBRANCH  17  19
ENDBRANCH   1  16
TORSDOF 5
ENDMDL
MODEL 3
REMARK VINA RESULT:      -5.8      1.758      2.737
REMARK  5 active torsions:
REMARK  status: ('A' for Active; 'I' for Inactive)
REMARK    1  A    between atoms: C_5  and  C_1 
REMARK    2  A    between atoms: C_12  and  C_5 
REMARK    3  A    between atoms: C_7  and  C_22 
REMARK       I    between atoms: N_21  and  C_12 
REMARK    4  A    between atoms: C_23  and  N_21 
REMARK    5  A    between atoms: C_22  and  C_23 
ROOT
ATOM      1  C   UNL d   1     -47.369  11.824  23.357  0.00  0.00     0.102 C 
ENDROOT
BRANCH   1   2
ATOM      2  C   UNL d   1     -46.667  11.546  23.692  0.00  0.00     0.026 C 
BRANCH   2   3
ATOM      3  C   UNL d   1     -45.940  11.672  23.297  0.00  0.00     0.059 A 
ATOM      4  C   UNL d   1     -45.364  11.083  23.300  0.00  0.00     0.279 A 
ATOM      5  N   UNL d   1     -44.648  11.205  22.913  0.00  0.00    -0.208 NA
ATOM      6  O   UNL d   1     -45.509  10.363  23.698  0.00  0.00    -0.265 OA
ATOM      7  C   UNL d   1     -44.503  11.910  22.523  0.00  0.00     0.085 A 
ATOM      8  C   UNL d   1     -45.084  12.504  22.519  0.00  0.00     0.018 A 
ATOM      9  C   UNL d   1     -43.790  12.035  22.135  0.00  0.00     0.019 A 
ATOM     10  C   UNL d   1     -45.804  12.385  22.907  0.00  0.00     0.006 A 
ATOM     11  C   UNL d   1     -44.946  13.214  22.129  0.00  0.00     0.002 A 
ATOM     12  C   UNL d   1     -44.227  13.334  21.742  0.00  0.00     0.000 A 
ATOM     13  C   UNL d   1     -43.648  12.741  21.745  0.00  0.00     0.002 A 
ATOM     14  C   UNL d   1     -44.082  14.054  21.344  0.00  0.00     0.000 C 
ATOM     15  C   UNL d   1     -42.929  12.861  21.358  0.00  0.00     0.000 C 
ENDBRANCH   2   3
ENDBRANCH   1   2
BRANCH   1  16
ATOM     16  N   UNL d   1     -47.999  11.309  23.255  0.00  0.00    -0.204 NA
ATOM     17  C   UNL d   1     -48.746  11.608  23.086  0.00  0.00     0.318 C 
ATOM     18  O   UNL d   1     -49.381  11.094  22.983  0.00  0.00    -0.262 OA
BRANCH  17  19
ATOM     19  C   UNL d   1     -48.863  12.430  23.020  0.00  0.00     0.254 C 
ATOM     20  O   UNL d   1     -48.564  12.932  23.604  0.00  0.00    -0.281 OA
BRANCH  19  21
ATOM     21  C   UNL d   1     -49.271  12.734  22.378  0.00  0.00     0.064 A 
ATOM     22  C   UNL d   1     -49.219  12.486  21.591  0.00  0.00     0.102 A 
ATOM     23  N   UNL d   1     -49.725  12.942  21.131  0.00  0.00    -0.244 NA
ATOM     24  C   UNL d   1     -50.098  13.481  21.632  0.00  0.00     0.082 A 
ATOM     25  C   UNL d   1     -49.819  13.354  22.401  0.00  0.00     0.022 A 
ATOM     26  C   UNL d   1     -50.655  14.072  21.490  0.00  0.00     0.019 A 
ATOM     27  C   UNL d   1     -50.098  13.815  23.022  0.00  0.00     0.002 A 
ATOM     28  C   UNL d   1     -50.661  14.411  22.876  0.00  0.00     0.000 A 
ATOM     29  C   UNL d   1     -50.934  14.533  22.111  0.00  0.00     0.002 A 
ENDBRANCH  19  21
ENDBRANCH  17  19
ENDBRANCH   1  16
TORSDOF 5
ENDMDL
MODEL 4
REMARK VINA RESULT:      -5.6      1.187      5.142
REMARK  5 active torsions:
REMARK  status: ('A' for Active; 'I' for Inactive)
REMARK    1  A    between atoms: C_5  and  C_1 
REMARK    2  A    between atoms: C_12  and  C_5 
REMARK    3  A    between atoms: C_7  and  C_22 
REMARK       I    between atoms: N_21  and  C_12 
REMARK    4  A    between atoms: C_23  and  N_21 
REMARK    5  A    between atoms: C_22  and  C_23 
ROOT
ATOM      1  C   UNL d   1     -46.175  13.600  22.677  0.00  0.00     0.102 C 
ENDROOT
BRANCH   1   2
ATOM      2  C   UNL d   1     -46.597  14.303  22.775  0.00  0.00     0.026 C 
BRANCH   2   3
ATOM      3  C   UNL d   1     -47.411  14.329  22.584  0.00  0.00     0.059 A 
ATOM      4  C   UNL d   1     -47.790  15.056  22.500  0.00  0.00     0.279 A 
ATOM      5  N   UNL d   1     -48.591  15.085  22.311  0.00  0.00    -0.208 NA
ATOM      6  O   UNL d   1     -47.359  15.763  22.606  0.00  0.00    -0.265 OA
ATOM      7  C   UNL d   1     -49.016  14.393  22.206  0.00  0.00     0.085 A 
ATOM      8  C   UNL d   1     -48.634  13.660  22.291  0.00  0.00     0.018 A 
ATOM      9  C   UNL d   1     -49.815  14.418  22.018  0.00  0.00     0.019 A 
ATOM     10  C   UNL d   1     -47.831  13.627  22.480  0.00  0.00     0.006 A 
ATOM     11  C   UNL d   1     -49.056  12.961  22.186  0.00  0.00     0.002 A 
ATOM     12  C   UNL d   1     -49.858  12.993  21.998  0.00  0.00     0.000 A 
ATOM     13  C   UNL d   1     -50.239  13.724  21.913  0.00  0.00     0.002 A 
ATOM     14  C   UNL d   1     -50.290  12.286  21.891  0.00  0.00     0.000 C 
ATOM     15  C   UNL d   1     -51.041  13.755  21.724  0.00  0.00     0.000 C 
ENDBRANCH   2   3
ENDBRANCH   1   2
BRANCH   1  16
ATOM     16  N   UNL d   1     -45.661  13.523  22.043  0.00  0.00    -0.204 NA
ATOM     17  C   UNL d   1     -45.080  12.941  22.059  0.00  0.00     0.318 C 
ATOM     18  O   UNL d   1     -44.561  12.861  21.424  0.00  0.00    -0.262 OA
BRANCH  17  19
ATOM     19  C   UNL d   1     -45.013  12.434  22.716  0.00  0.00     0.254 C 
ATOM     20  O   UNL d   1     -45.584  12.462  23.312  0.00  0.00    -0.281 OA
BRANCH  19  21
ATOM     21  C   UNL d   1     -44.384  11.911  22.765  0.00  0.00     0.064 A 
ATOM     22  C   UNL d   1     -43.608  12.040  22.513  0.00  0.00     0.102 A 
ATOM     23  N   UNL d   1     -43.159  11.369  22.670  0.00  0.00    -0.244 NA
ATOM     24  C   UNL d   1     -43.657  10.814  23.023  0.00  0.00     0.082 A 
ATOM     25  C   UNL d   1     -44.412  11.147  23.083  0.00  0.00     0.022 A 
ATOM     26  C   UNL d   1     -43.522  10.049  23.299  0.00  0.00     0.019 A 
ATOM     27  C   UNL d   1     -45.028  10.715  23.416  0.00  0.00     0.002 A 
ATOM     28  C   UNL d   1     -44.889   9.943  23.694  0.00  0.00     0.000 A 
ATOM     29  C   UNL d   1     -44.137   9.618  23.632  0.00  0.00     0.002 A 
ENDBRANCH  19  21
ENDBRANCH  17  19
ENDBRANCH   1  16
TORSDOF 5
ENDMDL
MODEL 5
REMARK VINA RESULT:      -5.3      2.452      3.814
REMARK  5 active torsions:
REMARK  status: ('A' for Active; 'I' for Inactive)
REMARK    1  A    between atoms: C_5  and  C_1 
REMARK    2  A    between atoms: C_12  and  C_5 
REMARK    3  A    between atoms: C_7  and  C_22 
REMARK       I    between atoms: N_21  and  C_12 
REMARK    4  A    between atoms: C_23  and  N_21 
REMARK    5  A    between atoms: C_22  and  C_23 
ROOT
ATOM      1  C   UNL d   1     -45.041  13.027  22.253  0.00  0.00     0.102 C 
ENDROOT
BRANCH   1   2
ATOM      2  C   UNL d   1     -44.552  12.551  21.788  0.00  0.00     0.026 C 
BRANCH   2   3
ATOM      3  C   UNL d   1     -43.751  12.764  21.675  0.00  0.00     0.059 A 
ATOM      4  C   UNL d   1     -43.153  12.226  21.856  0.00  0.00     0.279 A 
ATOM      5  N   UNL d   1     -42.364  12.433  21.745  0.00  0.00    -0.208 NA
ATOM      6  O   UNL d   1     -43.352  11.470  22.151  0.00  0.00    -0.265 OA
ATOM      7  C   UNL d   1     -42.167  13.173  21.456  0.00  0.00     0.085 A 
ATOM      8  C   UNL d   1     -42.770  13.716  21.274  0.00  0.00     0.018 A 
ATOM      9  C   UNL d   1     -41.381  13.383  21.345  0.00  0.00     0.019 A 
ATOM     10  C   UNL d   1     -43.563  13.512  21.384  0.00  0.00     0.006 A 
ATOM     11  C   UNL d   1     -42.579  14.461  20.983  0.00  0.00     0.002 A 
ATOM     12  C   UNL d   1     -41.787  14.666  20.873  0.00  0.00     0.000 A 
ATOM     13  C   UNL d   1     -41.187  14.125  21.055  0.00  0.00     0.002 A 
ATOM     14  C   UNL d   1     -41.589  15.422  20.578  0.00  0.00     0.000 C 
ATOM     15  C   UNL d   1     -40.395  14.330  20.945  0.00  0.00     0.000 C 
ENDBRANCH   2   3
ENDBRANCH   1   2
BRANCH   1  16
ATOM     16  N   UNL d   1     -45.449  12.694  22.881  0.00  0.00    -0.204 NA
ATOM     17  C   UNL d   1     -46.204  12.964  23.066  0.00  0.00     0.318 C 
ATOM     18  O   UNL d   1     -46.616  12.631  23.697  0.00  0.00    -0.262 OA
BRANCH  17  19
ATOM     19  C   UNL d   1     -46.552  13.572  22.617  0.00  0.00     0.254 C 
ATOM     20  O   UNL d   1     -46.137  14.276  22.494  0.00  0.00    -0.281 OA
BRANCH  19  21
ATOM     21  C   UNL d   1     -47.301  13.469  22.301  0.00  0.00     0.064 A 
ATOM     22  C   UNL d   1     -47.581  12.810  21.888  0.00  0.00     0.102 A 
ATOM     23  N   UNL d   1     -48.364  12.941  21.672  0.00  0.00    -0.244 NA
ATOM     24  C   UNL d   1     -48.577  13.688  21.951  0.00  0.00     0.082 A 
ATOM     25  C   UNL d   1     -47.923  14.014  22.339  0.00  0.00     0.022 A 
ATOM     26  C   UNL d   1     -49.281  14.114  21.903  0.00  0.00     0.019 A 
ATOM     27  C   UNL d   1     -47.974  14.762  22.676  0.00  0.00     0.002 A 
ATOM     28  C   UNL d   1     -48.686  15.191  22.627  0.00  0.00     0.000 A 
ATOM     29  C   UNL d   1     -49.332  14.862  22.241  0.00  0.00     0.002 A 
ENDBRANCH  19  21
ENDBRANCH  17  19
ENDBRANCH   1  16
TORSDOF 5
ENDMDL
MODEL 6
REMARK VINA RESULT:      -5.1      7.606      9.750
REMARK  5 active torsions:
REMARK  status: ('A' for Active; 'I' for Inactive)
REMARK    1  A    between atoms: C_5  and  C_1 
REMARK    2  A    between atoms: C_12  and  C_5 
REMARK    3  A    between atoms: C_7  and  C_22 
REMARK       I    between atoms: N_21  and  C_12 
REMARK    4  A    between atoms: C_23  and  N_21 
REMARK    5  A    between atoms: C_22  and  C_23 
ROOT
ATOM      1  C   UNL d   1     -40.908  14.516  19.407  0.00  0.00     0.102 C 
ENDROOT
BRANCH   1   2
ATOM      2  C   UNL d   1     -41.154  14.390  20.185  0.00  0.00     0.026 C 
BRANCH   2   3
ATOM      3  C   UNL d   1     -40.717  14.719  20.818  0.00  0.00     0.059 A 
ATOM      4  C   UNL d   1     -40.891  15.477  21.088  0.00  0.00     0.279 A 
ATOM      5  N   UNL d   1     -40.463  15.803  21.711  0.00  0.00    -0.208 NA
ATOM      6  O   UNL d   1     -41.505  15.914  20.727  0.00  0.00    -0.265 OA
ATOM      7  C   UNL d   1     -39.861  15.377  22.066  0.00  0.00     0.085 A 
ATOM      8  C   UNL d   1     -39.684  14.611  21.793  0.00  0.00     0.018 A 
ATOM      9  C   UNL d   1     -39.431  15.698  22.687  0.00  0.00     0.019 A 
ATOM     10  C   UNL d   1     -40.112  14.282  21.169  0.00  0.00     0.006 A 
ATOM     11  C   UNL d   1     -39.081  14.178  22.146  0.00  0.00     0.002 A 
ATOM     12  C   UNL d   1     -38.652  14.506  22.770  0.00  0.00     0.000 A 
ATOM     13  C   UNL d   1     -38.829  15.269  23.041  0.00  0.00     0.002 A 
ATOM     14  C   UNL d   1     -38.039  14.069  23.131  0.00  0.00     0.000 C 
ATOM     15  C   UNL d   1     -38.401  15.597  23.665  0.00  0.00     0.000 C 
ENDBRANCH   2   3
ENDBRANCH   1   2
BRANCH   1  16
ATOM     16  N   UNL d   1     -40.708  13.875  18.937  0.00  0.00    -0.204 NA
ATOM     17  C   UNL d   1     -40.298  13.997  18.235  0.00  0.00     0.318 C 
ATOM     18  O   UNL d   1     -40.096  13.354  17.761  0.00  0.00    -0.262 OA
BRANCH  17  19
ATOM     19  C   UNL d   1     -40.087  14.767  18.001  0.00  0.00     0.254 C 
ATOM     20  O   UNL d   1     -40.648  15.372  18.038  0.00  0.00    -0.281 OA
BRANCH  19  21
ATOM     21  C   UNL d   1     -39.326  14.920  17.738  0.00  0.00     0.064 A 
ATOM     22  C   UNL d   1     -38.620  14.762  18.137  0.00  0.00     0.102 A 
ATOM     23  N   UNL d   1     -37.987  15.004  17.670  0.00  0.00    -0.244 NA
ATOM     24  C   UNL d   1     -38.299  15.317  16.973  0.00  0.00     0.082 A 
ATOM     25  C   UNL d   1     -39.124  15.266  17.014  0.00  0.00     0.022 A 
ATOM     26  C   UNL d   1     -37.940  15.642  16.306  0.00  0.00     0.019 A 
ATOM     27  C   UNL d   1     -39.585  15.538  16.390  0.00  0.00     0.002 A 
ATOM     28  C   UNL d   1     -39.220  15.866  15.717  0.00  0.00     0.000 A 
ATOM     29  C   UNL d   1     -38.401  15.915  15.682  0.00  0.00     0.002 A 
ENDBRANCH  19  21
ENDBRANCH  17  19
ENDBRANCH   1  16
TORSDOF 5
ENDMDL
MODEL 7
REMARK VINA RESULT:      -5.1      1.668      5.490
REMARK  5 active torsions:
REMARK  status: ('A' for Active; 'I' for Inactive)
REMARK    1  A    between atoms: C_5  and  C_1 
REMARK    2  A    between atoms: C_12  and  C_5 
REMARK    3  A    between atoms: C_7  and  C_22 
REMARK       I    between atoms: N_21  and  C_12 
REMARK    4  A    between atoms: C_23  and  N_21 
REMARK    5  A    between atoms: C_22  and  C_23 
ROOT
ATOM      1  C   UNL d   1     -47.146  11.537  23.436  0.00  0.00     0.102 C 
ENDROOT
BRANCH   1   2
ATOM      2  C   UNL d   1     -47.965  11.434  23.439  0.00  0.00     0.026 C 
BRANCH   2   3
ATOM      3  C   UNL d   1     -48.467  12.090  23.312  0.00  0.00     0.059 A 
ATOM      4  C   UNL d   1     -49.281  12.011  23.411  0.00  0.00     0.279 A 
ATOM      5  N   UNL d   1     -49.777  12.656  23.287  0.00  0.00    -0.208 NA
ATOM      6  O   UNL d   1     -49.600  11.274  23.639  0.00  0.00    -0.265 OA
ATOM      7  C   UNL d   1     -49.467  13.380  23.064  0.00  0.00     0.085 A 
ATOM      8  C   UNL d   1     -48.645  13.460  22.963  0.00  0.00     0.018 A 
ATOM      9  C   UNL d   1     -49.958  14.025  22.939  0.00  0.00     0.019 A 
ATOM     10  C   UNL d   1     -48.145  12.815  23.087  0.00  0.00     0.006 A 
ATOM     11  C   UNL d   1     -48.327  14.185  22.740  0.00  0.00     0.002 A 
ATOM     12  C   UNL d   1     -48.826  14.830  22.615  0.00  0.00     0.000 A 
ATOM     13  C   UNL d   1     -49.645  14.749  22.716  0.00  0.00     0.002 A 
ATOM     14  C   UNL d   1     -48.507  15.567  22.388  0.00  0.00     0.000 C 
ATOM     15  C   UNL d   1     -50.144  15.394  22.592  0.00  0.00     0.000 C 
ENDBRANCH   2   3
ENDBRANCH   1   2
BRANCH   1  16
ATOM     16  N   UNL d   1     -46.659  10.913  23.650  0.00  0.00    -0.204 NA
ATOM     17  C   UNL d   1     -45.855  10.947  23.482  0.00  0.00     0.318 C 
ATOM     18  O   UNL d   1     -45.364  10.321  23.696  0.00  0.00    -0.262 OA
BRANCH  17  19
ATOM     19  C   UNL d   1     -45.536  11.612  23.098  0.00  0.00     0.254 C 
ATOM     20  O   UNL d   1     -46.010  12.276  22.971  0.00  0.00    -0.281 OA
BRANCH  19  21
ATOM     21  C   UNL d   1     -44.755  11.604  22.848  0.00  0.00     0.064 A 
ATOM     22  C   UNL d   1     -44.170  11.061  23.059  0.00  0.00     0.102 A 
ATOM     23  N   UNL d   1     -43.468  11.260  22.680  0.00  0.00    -0.244 NA
ATOM     24  C   UNL d   1     -43.613  11.935  22.227  0.00  0.00     0.082 A 
ATOM     25  C   UNL d   1     -44.406  12.148  22.329  0.00  0.00     0.022 A 
ATOM     26  C   UNL d   1     -43.128  12.383  21.735  0.00  0.00     0.019 A 
ATOM     27  C   UNL d   1     -44.710  12.805  21.941  0.00  0.00     0.002 A 
ATOM     28  C   UNL d   1     -44.217  13.257  21.444  0.00  0.00     0.000 A 
ATOM     29  C   UNL d   1     -43.431  13.041  21.346  0.00  0.00     0.002 A 
ENDBRANCH  19  21
ENDBRANCH  17  19
ENDBRANCH   1  16
TORSDOF 5
ENDMDL
MODEL 8
REMARK VINA RESULT:      -4.9      2.981      6.483
REMARK  5 active torsions:
REMARK  status: ('A' for Active; 'I' for Inactive)
REMARK    1  A    between atoms: C_5  and  C_1 
REMARK    2  A    between atoms: C_12  and  C_5 
REMARK    3  A    between atoms: C_7  and  C_22 
REMARK       I    between atoms: N_21  and  C_12 
REMARK    4  A    between atoms: C_23  and  N_21 
REMARK    5  A    between atoms: C_22  and  C_23 
ROOT
ATOM      1  C   UNL d   1     -43.919  12.964  21.745  0.00  0.00     0.102 C 
ENDROOT
BRANCH   1   2
ATOM      2  C   UNL d   1     -44.271  12.456  22.293  0.00  0.00     0.026 C 
BRANCH   2   3
ATOM      3  C   UNL d   1     -45.046  12.611  22.566  0.00  0.00     0.059 A 
ATOM      4  C   UNL d   1     -45.417  12.079  23.074  0.00  0.00     0.279 A 
ATOM      5  N   UNL d   1     -46.180  12.229  23.344  0.00  0.00    -0.208 NA
ATOM      6  O   UNL d   1     -45.016  11.387  23.314  0.00  0.00    -0.265 OA
ATOM      7  C   UNL d   1     -46.575  12.907  23.110  0.00  0.00     0.085 A 
ATOM      8  C   UNL d   1     -46.201  13.444  22.597  0.00  0.00     0.018 A 
ATOM      9  C   UNL d   1     -47.337  13.060  23.377  0.00  0.00     0.019 A 
ATOM     10  C   UNL d   1     -45.436  13.296  22.325  0.00  0.00     0.006 A 
ATOM     11  C   UNL d   1     -46.593  14.127  22.359  0.00  0.00     0.002 A 
ATOM     12  C   UNL d   1     -47.358  14.275  22.631  0.00  0.00     0.000 A 
ATOM     13  C   UNL d   1     -47.730  13.740  23.142  0.00  0.00     0.002 A 
ATOM     14  C   UNL d   1     -47.759  14.967  22.391  0.00  0.00     0.000 C 
ATOM     15  C   UNL d   1     -48.495  13.888  23.413  0.00  0.00     0.000 C 
ENDBRANCH   2   3
ENDBRANCH   1   2
BRANCH   1  16
ATOM     16  N   UNL d   1     -43.523  12.650  21.100  0.00  0.00    -0.204 NA
ATOM     17  C   UNL d   1     -42.848  13.024  20.815  0.00  0.00     0.318 C 
ATOM     18  O   UNL d   1     -42.448  12.711  20.167  0.00  0.00    -0.262 OA
BRANCH  17  19
ATOM     19  C   UNL d   1     -42.568  13.717  21.181  0.00  0.00     0.254 C 
ATOM     20  O   UNL d   1     -43.107  14.264  21.484  0.00  0.00    -0.281 OA
BRANCH  19  21
ATOM     21  C   UNL d   1     -41.761  13.851  21.238  0.00  0.00     0.064 A 
ATOM     22  C   UNL d   1     -41.182  13.311  21.472  0.00  0.00     0.102 A 
ATOM     23  N   UNL d   1     -40.446  13.678  21.450  0.00  0.00    -0.244 NA
ATOM     24  C   UNL d   1     -40.565  14.456  21.200  0.00  0.00     0.082 A 
ATOM     25  C   UNL d   1     -41.375  14.563  21.069  0.00  0.00     0.022 A 
ATOM     26  C   UNL d   1     -40.042  15.080  21.073  0.00  0.00     0.019 A 
ATOM     27  C   UNL d   1     -41.658  15.292  20.814  0.00  0.00     0.002 A 
ATOM     28  C   UNL d   1     -41.127  15.921  20.687  0.00  0.00     0.000 A 
ATOM     29  C   UNL d   1     -40.325  15.809  20.818  0.00  0.00     0.002 A 
ENDBRANCH  19  21
ENDBRANCH  17  19
ENDBRANCH   1  16
TORSDOF 5
ENDMDL
MODEL 9
REMARK VINA RESULT:      -4.6      4.075      6.108
REMARK  5 active torsions:
REMARK  status: ('A' for Active; 'I' for Inactive)
REMARK    1  A    between atoms: C_5  and  C_1 
REMARK    2  A    between atoms: C_12  and  C_5 
REMARK    3  A    between atoms: C_7  and  C_22 
REMARK       I    between atoms: N_21  and  C_12 
REMARK    4  A    between atoms: C_23  and  N_21 
REMARK    5  A    between atoms: C_22  and  C_23 
ROOT
ATOM      1  C   UNL d   1     -42.533  13.478  21.231  0.00  0.00     0.102 C 
ENDROOT
BRANCH   1   2
ATOM      2  C   UNL d   1     -41.914  14.002  21.383  0.00  0.00     0.026 C 
BRANCH   2   3
ATOM      3  C   UNL d   1     -41.546  14.406  20.749  0.00  0.00     0.059 A 
ATOM      4  C   UNL d   1     -41.531  15.229  20.739  0.00  0.00     0.279 A 
ATOM      5  N   UNL d   1     -41.169  15.628  20.116  0.00  0.00    -0.208 NA
ATOM      6  O   UNL d   1     -41.885  15.657  21.362  0.00  0.00    -0.265 OA
ATOM      7  C   UNL d   1     -40.821  15.211  19.504  0.00  0.00     0.085 A 
ATOM      8  C   UNL d   1     -40.836  14.379  19.514  0.00  0.00     0.018 A 
ATOM      9  C   UNL d   1     -40.459  15.605  18.881  0.00  0.00     0.019 A 
ATOM     10  C   UNL d   1     -41.198  13.976  20.137  0.00  0.00     0.006 A 
ATOM     11  C   UNL d   1     -40.489  13.954  18.902  0.00  0.00     0.002 A 
ATOM     12  C   UNL d   1     -40.126  14.356  18.279  0.00  0.00     0.000 A 
ATOM     13  C   UNL d   1     -40.112  15.184  18.270  0.00  0.00     0.002 A 
ATOM     14  C   UNL d   1     -39.772  13.928  17.655  0.00  0.00     0.000 C 
ATOM     15  C   UNL d   1     -39.750  15.587  17.647  0.00  0.00     0.000 C 
ENDBRANCH   2   3
ENDBRANCH   1   2
BRANCH   1  16
ATOM     16  N   UNL d   1     -42.509  12.722  21.549  0.00  0.00    -0.204 NA
ATOM     17  C   UNL d   1     -43.208  12.355  21.779  0.00  0.00     0.318 C 
ATOM     18  O   UNL d   1     -43.187  11.596  22.098  0.00  0.00    -0.262 OA
BRANCH  17  19
ATOM     19  C   UNL d   1     -43.936  12.748  21.690  0.00  0.00     0.254 C 
ATOM     20  O   UNL d   1     -44.034  13.290  21.074  0.00  0.00    -0.281 OA
BRANCH  19  21
ATOM     21  C   UNL d   1     -44.549  12.595  22.212  0.00  0.00     0.064 A 
ATOM     22  C   UNL d   1     -44.654  11.917  22.672  0.00  0.00     0.102 A 
ATOM     23  N   UNL d   1     -45.342  11.996  23.115  0.00  0.00    -0.244 NA
ATOM     24  C   UNL d   1     -45.672  12.730  22.932  0.00  0.00     0.082 A 
ATOM     25  C   UNL d   1     -45.184  13.100  22.375  0.00  0.00     0.022 A 
ATOM     26  C   UNL d   1     -46.353  13.110  23.198  0.00  0.00     0.019 A 
ATOM     27  C   UNL d   1     -45.378  13.846  22.088  0.00  0.00     0.002 A 
ATOM     28  C   UNL d   1     -46.067  14.228  22.359  0.00  0.00     0.000 A 
ATOM     29  C   UNL d   1     -46.547  13.856  22.911  0.00  0.00     0.002 A 
ENDBRANCH  19  21
ENDBRANCH  17  19
ENDBRANCH   1  16
TORSDOF 5
ENDMDL
