MODEL 1
REMARK VINA RESULT:      35.1      0.000      0.000
REMARK  2 active torsions:
REMARK  status: ('A' for Active; 'I' for Inactive)
REMARK       I    between atoms: C_6  and  N_1 
REMARK    1  A    between atoms: C_7  and  C_3 
REMARK    2  A    between atoms: C_8  and  C_4 
ROOT
ATOM      1  N   UNL d   1      13.423  12.760  -3.474  0.00  0.00    -0.195 N 
ATOM      2  N   UNL d   1      13.559  12.240  -2.865  0.00  0.00    -0.163 NA
ATOM      3  C   UNL d   1      13.858  12.679  -2.232  0.00  0.00     0.106 A 
ATOM      4  C   UNL d   1      13.635  13.516  -3.224  0.00  0.00     0.088 A 
ATOM      5  C   UNL d   1      13.902  13.459  -2.457  0.00  0.00     0.040 A 
ATOM      6  C   UNL d   1      13.114  12.568  -4.246  0.00  0.00     0.281 C 
ATOM      7  O   UNL d   1      13.008  13.137  -4.798  0.00  0.00    -0.265 OA
ATOM      8  C   UNL d   1      12.930  11.779  -4.406  0.00  0.00     0.068 C 
ENDROOT
BRANCH   3   9
ATOM      9  C   UNL d   1      14.074  12.376  -1.496  0.00  0.00     0.058 A 
ATOM     10  C   UNL d   1      14.871  12.297  -1.300  0.00  0.00     0.197 A 
ATOM     11  O   UNL d   1      15.424  12.524  -1.846  0.00  0.00    -0.286 OA
ATOM     12  C   UNL d   1      15.058  11.997  -0.571  0.00  0.00     0.042 A 
ATOM     13  C   UNL d   1      14.512  11.779  -0.047  0.00  0.00     0.003 A 
ATOM     14  C   UNL d   1      13.715  11.858  -0.243  0.00  0.00     0.000 A 
ATOM     15  C   UNL d   1      13.492  12.152  -0.956  0.00  0.00     0.005 A 
ENDBRANCH   3   9
BRANCH   4  16
ATOM     16  C   UNL d   1      13.582  14.208  -3.679  0.00  0.00     0.018 A 
ATOM     17  C   UNL d   1      13.995  14.886  -3.480  0.00  0.00     0.002 A 
ATOM     18  C   UNL d   1      14.470  14.855  -2.803  0.00  0.00     0.000 C 
ATOM     19  C   UNL d   1      13.951  15.558  -3.914  0.00  0.00     0.000 A 
ATOM     20  C   UNL d   1      13.476  15.588  -4.589  0.00  0.00     0.000 A 
ATOM     21  C   UNL d   1      13.041  14.921  -4.825  0.00  0.00     0.000 A 
ATOM     22  C   UNL d   1      13.109  14.244  -4.356  0.00  0.00     0.002 A 
ENDBRANCH   4  16
TORSDOF 2
ENDMDL
MODEL 2
REMARK VINA RESULT:      36.7      1.548      3.396
REMARK  2 active torsions:
REMARK  status: ('A' for Active; 'I' for Inactive)
REMARK       I    between atoms: C_6  and  N_1 
REMARK    1  A    between atoms: C_7  and  C_3 
REMARK    2  A    between atoms: C_8  and  C_4 
ROOT
ATOM      1  N   UNL d   1      14.585  12.871  -1.291  0.00  0.00    -0.195 N 
ATOM      2  N   UNL d   1      14.256  12.374  -1.843  0.00  0.00    -0.163 NA
ATOM      3  C   UNL d   1      14.080  12.831  -2.508  0.00  0.00     0.106 A 
ATOM      4  C   UNL d   1      14.614  13.631  -1.608  0.00  0.00     0.088 A 
ATOM      5  C   UNL d   1      14.301  13.599  -2.358  0.00  0.00     0.040 A 
ATOM      6  C   UNL d   1      14.858  12.654  -0.511  0.00  0.00     0.281 C 
ATOM      7  O   UNL d   1      15.172  13.202  -0.021  0.00  0.00    -0.265 OA
ATOM      8  C   UNL d   1      14.788  11.865  -0.280  0.00  0.00     0.068 C 
ENDROOT
BRANCH   3   9
ATOM      9  C   UNL d   1      13.738  12.554  -3.205  0.00  0.00     0.058 A 
ATOM     10  C   UNL d   1      13.087  12.047  -3.173  0.00  0.00     0.197 A 
ATOM     11  O   UNL d   1      12.802  11.835  -2.445  0.00  0.00    -0.286 OA
ATOM     12  C   UNL d   1      12.769  11.788  -3.872  0.00  0.00     0.042 A 
ATOM     13  C   UNL d   1      13.054  12.001  -4.574  0.00  0.00     0.003 A 
ATOM     14  C   UNL d   1      13.705  12.508  -4.606  0.00  0.00     0.000 A 
ATOM     15  C   UNL d   1      14.046  12.784  -3.935  0.00  0.00     0.005 A 
ENDBRANCH   3   9
BRANCH   4  16
ATOM     16  C   UNL d   1      14.911  14.304  -1.224  0.00  0.00     0.018 A 
ATOM     17  C   UNL d   1      14.724  15.060  -1.475  0.00  0.00     0.002 A 
ATOM     18  C   UNL d   1      14.224  15.128  -2.130  0.00  0.00     0.000 C 
ATOM     19  C   UNL d   1      15.005  15.715  -1.110  0.00  0.00     0.000 A 
ATOM     20  C   UNL d   1      15.505  15.646  -0.455  0.00  0.00     0.000 A 
ATOM     21  C   UNL d   1      15.719  14.896  -0.169  0.00  0.00     0.000 A 
ATOM     22  C   UNL d   1      15.411  14.240  -0.568  0.00  0.00     0.002 A 
ENDBRANCH   4  16
TORSDOF 2
ENDMDL
