MODEL 1
REMARK VINA RESULT:      62.0      0.000      0.000
REMARK  2 active torsions:
REMARK  status: ('A' for Active; 'I' for Inactive)
REMARK    1  A    between atoms: C_9  and  N_2 
REMARK    2  A    between atoms: C_7  and  C_4 
ROOT
ATOM      1  C   UNL d   1     -56.887 -99.149 -44.834  0.00  0.00     0.136 A 
ATOM      2  N   UNL d   1     -57.689 -99.186 -44.640  0.00  0.00    -0.282 N 
ATOM      3  C   UNL d   1     -56.319 -99.255 -44.241  0.00  0.00     0.152 A 
ATOM      4  C   UNL d   1     -57.921 -99.329 -43.853  0.00  0.00     0.158 A 
ATOM      5  N   UNL d   1     -57.347 -99.434 -43.266  0.00  0.00    -0.189 NA
ATOM      6  C   UNL d   1     -56.548 -99.397 -43.462  0.00  0.00     0.292 A 
ATOM      7  C   UNL d   1     -55.519 -99.217 -44.436  0.00  0.00     0.108 C 
ATOM      8  N   UNL d   1     -54.713 -99.180 -44.629  0.00  0.00    -0.191 NA
ATOM      9  S   UNL d   1     -56.649 -99.007 -45.612  0.00  0.00    -0.058 SA
ATOM     10  O   UNL d   1     -55.970 -99.502 -42.874  0.00  0.00    -0.264 OA
ENDROOT
BRANCH   2  11
ATOM     11  C   UNL d   1     -58.256 -99.081 -45.224  0.00  0.00     0.066 A 
ATOM     12  C   UNL d   1     -59.053 -99.194 -45.044  0.00  0.00     0.018 A 
ATOM     13  C   UNL d   1     -59.619 -99.088 -45.632  0.00  0.00     0.002 A 
ATOM     14  C   UNL d   1     -59.393 -98.871 -46.398  0.00  0.00     0.000 A 
ATOM     15  C   UNL d   1     -58.591 -98.759 -46.576  0.00  0.00     0.002 A 
ATOM     16  C   UNL d   1     -59.960 -98.766 -46.986  0.00  0.00     0.000 C 
ATOM     17  C   UNL d   1     -58.023 -98.865 -45.988  0.00  0.00     0.018 A 
ENDBRANCH   2  11
BRANCH   4  18
ATOM     18  C   UNL d   1     -58.720 -99.367 -43.658  0.00  0.00     0.064 A 
ATOM     19  S   UNL d   1     -59.162 -98.764 -43.317  0.00  0.00    -0.083 SA
ATOM     20  C   UNL d   1     -59.927 -99.041 -43.220  0.00  0.00     0.035 A 
ATOM     21  C   UNL d   1     -59.960 -99.814 -43.500  0.00  0.00     0.008 A 
ATOM     22  C   UNL d   1     -59.223-100.022 -43.770  0.00  0.00     0.010 A 
ENDBRANCH   4  18
TORSDOF 2
ENDMDL
