MODEL 1
REMARK VINA RESULT:       1.5      0.000      0.000
REMARK  7 active torsions:
REMARK  status: ('A' for Active; 'I' for Inactive)
REMARK       I    between atoms: N_2  and  C_13 
REMARK    1  A    between atoms: C_11  and  C_6 
REMARK    2  A    between atoms: C_14  and  C_7 
REMARK    3  A    between atoms: S_18  and  C_9 
REMARK    4  A    between atoms: C_13  and  C_19 
REMARK    5  A    between atoms: O_26  and  C_15 
REMARK    6  A    between atoms: C_19  and  S_18 
REMARK    7  A    between atoms: O_29  and  C_22 
ROOT
ATOM      1  N   UNL d   1      56.988  -1.017  31.427  0.00  0.00    -0.194 N 
ATOM      2  N   UNL d   1      56.368  -1.121  31.957  0.00  0.00    -0.162 NA
ATOM      3  C   UNL d   1      57.306  -0.267  31.558  0.00  0.00     0.090 A 
ATOM      4  C   UNL d   1      56.309  -0.429  32.413  0.00  0.00     0.109 A 
ATOM      5  C   UNL d   1      56.887   0.079  32.156  0.00  0.00     0.041 A 
ATOM      6  C   UNL d   1      57.234  -1.559  30.881  0.00  0.00     0.287 C 
ATOM      7  O   UNL d   1      56.860  -2.288  30.816  0.00  0.00    -0.265 OA
ENDROOT
BRANCH   6   8
ATOM      8  C   UNL d   1      57.867  -1.386  30.378  0.00  0.00     0.100 C 
BRANCH   8   9
ATOM      9  S   UNL d   1      57.885  -1.705  29.614  0.00  0.00    -0.054 SA
BRANCH   9  10
ATOM     10  C   UNL d   1      58.509  -2.201  29.379  0.00  0.00     0.163 A 
ATOM     11  S   UNL d   1      58.449  -3.026  29.213  0.00  0.00    -0.021 SA
ATOM     12  C   UNL d   1      59.208  -3.300  28.999  0.00  0.00     0.200 A 
ATOM     13  N   UNL d   1      59.230  -4.100  28.821  0.00  0.00    -0.182 NA
ATOM     14  N   UNL d   1      59.746  -2.655  29.030  0.00  0.00    -0.204 N 
ATOM     15  C   UNL d   1      59.948  -4.372  28.616  0.00  0.00     0.281 A 
ATOM     16  O   UNL d   1      59.563  -5.110  28.534  0.00  0.00    -0.265 OA
ATOM     17  C   UNL d   1      60.731  -4.029  28.532  0.00  0.00     0.064 A 
ATOM     18  C   UNL d   1      60.963  -3.205  28.664  0.00  0.00     0.026 A 
ATOM     19  C   UNL d   1      60.458  -2.579  28.902  0.00  0.00     0.103 A 
ATOM     20  N   UNL d   1      59.312  -1.973  29.266  0.00  0.00    -0.150 NA
ENDBRANCH   9  10
ENDBRANCH   8   9
ENDBRANCH   6   8
BRANCH   3  21
ATOM     21  C   UNL d   1      57.934   0.047  31.141  0.00  0.00     0.042 A 
ATOM     22  C   UNL d   1      58.633   0.205  31.548  0.00  0.00     0.118 A 
ATOM     23  C   UNL d   1      59.282   0.524  31.137  0.00  0.00     0.116 A 
ATOM     24  C   UNL d   1      59.219   0.680  30.329  0.00  0.00     0.026 A 
ATOM     25  C   UNL d   1      58.523   0.521  29.932  0.00  0.00     0.002 A 
ATOM     26  C   UNL d   1      57.877   0.202  30.345  0.00  0.00     0.004 A 
BRANCH  22  27
ATOM     27  O   UNL d   1      58.698   0.051  32.354  0.00  0.00    -0.326 OA
ATOM     28  C   UNL d   1      58.808   0.682  32.868  0.00  0.00     0.181 C 
ENDBRANCH  22  27
BRANCH  23  29
ATOM     29  O   UNL d   1      59.978   0.682  31.542  0.00  0.00    -0.326 OA
ATOM     30  C   UNL d   1      60.700   0.671  31.144  0.00  0.00     0.181 C 
ENDBRANCH  23  29
ENDBRANCH   3  21
BRANCH   4  31
ATOM     31  C   UNL d   1      55.764  -0.300  33.006  0.00  0.00     0.049 A 
ATOM     32  S   UNL d   1      55.283  -0.869  33.354  0.00  0.00    -0.085 SA
ATOM     33  C   UNL d   1      54.817  -0.492  33.929  0.00  0.00     0.035 A 
ATOM     34  C   UNL d   1      55.020   0.307  33.926  0.00  0.00     0.007 A 
ATOM     35  C   UNL d   1      55.604   0.410  33.353  0.00  0.00     0.009 A 
ENDBRANCH   4  31
TORSDOF 7
ENDMDL
