MODEL 1
REMARK VINA RESULT:      -5.0      0.000      0.000
REMARK  3 active torsions:
REMARK  status: ('A' for Active; 'I' for Inactive)
REMARK    1  A    between atoms: C_12  and  C_4 
REMARK    2  A    between atoms: S_8  and  C_12 
REMARK    3  A    between atoms: C_11  and  S_8 
ROOT
ATOM      1  N   UNL d   1     -41.489-122.570 -53.121  0.00  0.00    -0.289 N 
ATOM      2  C   UNL d   1     -41.255-123.383 -53.102  0.00  0.00     0.148 A 
ATOM      3  N   UNL d   1     -41.126-123.595 -52.298  0.00  0.00    -0.226 NA
ATOM      4  C   UNL d   1     -41.282-122.917 -51.859  0.00  0.00     0.107 A 
ATOM      5  C   UNL d   1     -41.494-122.314 -52.327  0.00  0.00     0.101 A 
ATOM      6  C   UNL d   1     -41.648-122.224 -53.838  0.00  0.00     0.066 A 
ATOM      7  C   UNL d   1     -41.191-123.817 -53.802  0.00  0.00     0.037 A 
ATOM      8  C   UNL d   1     -41.359-123.445 -54.524  0.00  0.00     0.005 A 
ATOM      9  C   UNL d   1     -41.582-122.666 -54.542  0.00  0.00     0.018 A 
ATOM     10  C   UNL d   1     -41.881-121.415 -53.856  0.00  0.00     0.019 C 
ENDROOT
BRANCH   4  11
ATOM     11  C   UNL d   1     -41.212-122.915 -51.019  0.00  0.00     0.056 C 
BRANCH  11  12
ATOM     12  S   UNL d   1     -41.908-122.975 -50.585  0.00  0.00    -0.083 SA
BRANCH  12  13
ATOM     13  C   UNL d   1     -41.868-123.058 -49.743  0.00  0.00     0.049 A 
ATOM     14  C   UNL d   1     -42.543-122.953 -49.289  0.00  0.00     0.109 A 
ATOM     15  N   UNL d   1     -43.294-122.757 -49.670  0.00  0.00    -0.148 N 
ATOM     16  C   UNL d   1     -42.505-123.034 -48.469  0.00  0.00     0.021 A 
ATOM     17  C   UNL d   1     -41.792-123.219 -48.114  0.00  0.00     0.002 A 
ATOM     18  C   UNL d   1     -41.146-123.321 -48.539  0.00  0.00     0.001 A 
ATOM     19  C   UNL d   1     -41.150-123.245 -49.383  0.00  0.00     0.008 A 
ENDBRANCH  12  13
ENDBRANCH  11  12
ENDBRANCH   4  11
TORSDOF 3
ENDMDL
MODEL 2
REMARK VINA RESULT:      -4.9      1.015      4.453
REMARK  3 active torsions:
REMARK  status: ('A' for Active; 'I' for Inactive)
REMARK    1  A    between atoms: C_12  and  C_4 
REMARK    2  A    between atoms: S_8  and  C_12 
REMARK    3  A    between atoms: C_11  and  S_8 
ROOT
ATOM      1  N   UNL d   1     -42.159-122.730 -50.395  0.00  0.00    -0.289 N 
ATOM      2  C   UNL d   1     -41.446-123.180 -50.464  0.00  0.00     0.148 A 
ATOM      3  N   UNL d   1     -41.123-123.033 -51.228  0.00  0.00    -0.226 NA
ATOM      4  C   UNL d   1     -41.639-122.508 -51.593  0.00  0.00     0.107 A 
ATOM      5  C   UNL d   1     -42.246-122.324 -51.119  0.00  0.00     0.101 A 
ATOM      6  C   UNL d   1     -42.584-122.773 -49.705  0.00  0.00     0.066 A 
ATOM      7  C   UNL d   1     -41.188-123.655 -49.841  0.00  0.00     0.037 A 
ATOM      8  C   UNL d   1     -41.636-123.685 -49.143  0.00  0.00     0.005 A 
ATOM      9  C   UNL d   1     -42.320-123.253 -49.077  0.00  0.00     0.018 A 
ATOM     10  C   UNL d   1     -43.293-122.325 -49.635  0.00  0.00     0.019 C 
ENDROOT
BRANCH   4  11
ATOM     11  C   UNL d   1     -41.496-122.229 -52.375  0.00  0.00     0.056 C 
BRANCH  11  12
ATOM     12  S   UNL d   1     -41.526-122.784 -52.982  0.00  0.00    -0.083 SA
BRANCH  12  13
ATOM     13  C   UNL d   1     -41.687-122.529 -53.773  0.00  0.00     0.049 A 
ATOM     14  C   UNL d   1     -41.492-123.013 -54.407  0.00  0.00     0.109 A 
ATOM     15  N   UNL d   1     -41.123-123.781 -54.266  0.00  0.00    -0.148 N 
ATOM     16  C   UNL d   1     -41.648-122.765 -55.177  0.00  0.00     0.021 A 
ATOM     17  C   UNL d   1     -41.998-122.036 -55.305  0.00  0.00     0.002 A 
ATOM     18  C   UNL d   1     -42.186-121.571 -54.707  0.00  0.00     0.001 A 
ATOM     19  C   UNL d   1     -42.039-121.795 -53.904  0.00  0.00     0.008 A 
ENDBRANCH  12  13
ENDBRANCH  11  12
ENDBRANCH   4  11
TORSDOF 3
ENDMDL
MODEL 3
REMARK VINA RESULT:      -4.1      0.956      4.466
REMARK  3 active torsions:
REMARK  status: ('A' for Active; 'I' for Inactive)
REMARK    1  A    between atoms: C_12  and  C_4 
REMARK    2  A    between atoms: S_8  and  C_12 
REMARK    3  A    between atoms: C_11  and  S_8 
ROOT
ATOM      1  N   UNL d   1     -42.402-123.607 -49.305  0.00  0.00    -0.289 N 
ATOM      2  C   UNL d   1     -41.608-123.434 -49.071  0.00  0.00     0.148 A 
ATOM      3  N   UNL d   1     -41.130-123.432 -49.764  0.00  0.00    -0.226 NA
ATOM      4  C   UNL d   1     -41.639-123.599 -50.388  0.00  0.00     0.107 A 
ATOM      5  C   UNL d   1     -42.381-123.703 -50.134  0.00  0.00     0.101 A 
ATOM      6  C   UNL d   1     -42.980-123.643 -48.736  0.00  0.00     0.066 A 
ATOM      7  C   UNL d   1     -41.424-123.305 -48.277  0.00  0.00     0.037 A 
ATOM      8  C   UNL d   1     -42.028-123.346 -47.710  0.00  0.00     0.005 A 
ATOM      9  C   UNL d   1     -42.790-123.512 -47.935  0.00  0.00     0.018 A 
ATOM     10  C   UNL d   1     -43.770-123.815 -48.970  0.00  0.00     0.019 C 
ENDROOT
BRANCH   4  11
ATOM     11  C   UNL d   1     -41.357-123.644 -51.181  0.00  0.00     0.056 C 
BRANCH  11  12
ATOM     12  S   UNL d   1     -41.455-122.976 -51.651  0.00  0.00    -0.083 SA
BRANCH  12  13
ATOM     13  C   UNL d   1     -41.364-123.040 -52.491  0.00  0.00     0.049 A 
ATOM     14  C   UNL d   1     -41.425-122.371 -52.962  0.00  0.00     0.109 A 
ATOM     15  N   UNL d   1     -41.580-121.601 -52.601  0.00  0.00    -0.148 N 
ATOM     16  C   UNL d   1     -41.337-122.433 -53.779  0.00  0.00     0.021 A 
ATOM     17  C   UNL d   1     -41.190-123.164 -54.116  0.00  0.00     0.002 A 
ATOM     18  C   UNL d   1     -41.131-123.805 -53.674  0.00  0.00     0.001 A 
ATOM     19  C   UNL d   1     -41.216-123.777 -52.832  0.00  0.00     0.008 A 
ENDBRANCH  12  13
ENDBRANCH  11  12
ENDBRANCH   4  11
TORSDOF 3
ENDMDL
