MODEL 1
REMARK VINA RESULT:      59.6      0.000      0.000
REMARK  3 active torsions:
REMARK  status: ('A' for Active; 'I' for Inactive)
REMARK    1  A    between atoms: C_16  and  N_3 
REMARK    2  A    between atoms: C_10  and  C_5 
REMARK    3  A    between atoms: C_26  and  C_16 
ROOT
ATOM      1  C   UNL d   1     -51.085  25.943  33.306  0.00  0.00     0.083 A 
ATOM      2  C   UNL d   1     -51.629  26.561  33.306  0.00  0.00     0.161 A 
ATOM      3  N   UNL d   1     -50.405  27.101  33.306  0.00  0.00    -0.268 N 
ATOM      4  C   UNL d   1     -51.213  27.280  33.306  0.00  0.00     0.288 A 
ATOM      5  C   UNL d   1     -50.325  26.273  33.306  0.00  0.00     0.072 A 
ATOM      6  C   UNL d   1     -51.342  25.160  33.306  0.00  0.00     0.201 A 
ATOM      7  O   UNL d   1     -52.443  26.393  33.306  0.00  0.00    -0.302 OA
ATOM      8  C   UNL d   1     -52.151  24.997  33.306  0.00  0.00     0.063 A 
ATOM      9  C   UNL d   1     -52.698  25.612  33.306  0.00  0.00     0.103 A 
ATOM     10  O   UNL d   1     -51.540  28.030  33.306  0.00  0.00    -0.264 OA
ATOM     11  O   UNL d   1     -50.799  24.541  33.306  0.00  0.00    -0.286 OA
ATOM     12  C   UNL d   1     -52.412  24.211  33.306  0.00  0.00     0.017 A 
ATOM     13  C   UNL d   1     -53.513  25.438  33.306  0.00  0.00     0.026 A 
ATOM     14  C   UNL d   1     -53.216  24.042  33.306  0.00  0.00     0.058 A 
ATOM     15  C   UNL d   1     -53.768  24.658  33.306  0.00  0.00     0.013 A 
ATOM     16 CL   UNL d   1     -53.472  23.265  33.306  0.00  0.00    -0.082 Cl
ENDROOT
BRANCH   5  17
ATOM     17  C   UNL d   1     -49.779  25.657  33.306  0.00  0.00     0.017 A 
ATOM     18  C   UNL d   1     -50.032  24.870  33.306  0.00  0.00     0.008 A 
ATOM     19  C   UNL d   1     -49.483  24.258  33.306  0.00  0.00     0.035 A 
ATOM     20 BR   UNL d   1     -49.741  23.477  33.306  0.00  0.00    -0.049 Br
ATOM     21  C   UNL d   1     -48.668  24.427  33.307  0.00  0.00     0.007 A 
ATOM     22  C   UNL d   1     -48.414  25.215  33.307  0.00  0.00     0.001 A 
ATOM     23  C   UNL d   1     -48.973  25.830  33.307  0.00  0.00     0.002 A 
ENDBRANCH   5  17
BRANCH   3  24
ATOM     24  C   UNL d   1     -49.787  27.644  33.306  0.00  0.00     0.129 C 
BRANCH  24  25
ATOM     25  C   UNL d   1     -49.298  27.708  33.965  0.00  0.00     0.253 C 
ATOM     26  O   UNL d   1     -49.406  28.323  34.500  0.00  0.00    -0.281 OA
ENDBRANCH  24  25
ENDBRANCH   3  24
TORSDOF 3
ENDMDL
