MODEL 1
REMARK VINA RESULT:      -1.8      0.000      0.000
REMARK  4 active torsions:
REMARK  status: ('A' for Active; 'I' for Inactive)
REMARK    1  A    between atoms: C_6  and  C_1 
REMARK    2  A    between atoms: C_7  and  C_2 
REMARK    3  A    between atoms: O_10  and  C_6 
REMARK    4  A    between atoms: C_13  and  O_10 
ROOT
ATOM      1  C   UNL d   1      31.471  17.734 -24.535  0.00  0.00     0.113 A 
ATOM      2  C   UNL d   1      31.351  16.902 -24.444  0.00  0.00     0.095 A 
ATOM      3  N   UNL d   1      30.540  16.741 -24.610  0.00  0.00    -0.219 NA
ATOM      4  S   UNL d   1      30.755  18.080 -24.752  0.00  0.00    -0.040 SA
ATOM      5  C   UNL d   1      30.202  17.460 -24.792  0.00  0.00     0.215 A 
ATOM      6  N   UNL d   1      29.410  17.589 -24.996  0.00  0.00    -0.120 N 
ENDROOT
BRANCH   2   7
ATOM      7  C   UNL d   1      31.980  16.421 -24.228  0.00  0.00     0.018 A 
ATOM      8  C   UNL d   1      32.060  16.189 -23.434  0.00  0.00     0.002 A 
ATOM      9  C   UNL d   1      32.703  15.700 -23.221  0.00  0.00     0.000 A 
ATOM     10  C   UNL d   1      33.241  15.453 -23.775  0.00  0.00     0.000 A 
ATOM     11  C   UNL d   1      33.155  15.691 -24.582  0.00  0.00     0.000 A 
ATOM     12  C   UNL d   1      32.518  16.175 -24.789  0.00  0.00     0.002 A 
ENDBRANCH   2   7
BRANCH   1  13
ATOM     13  C   UNL d   1      32.153  18.140 -24.434  0.00  0.00     0.308 C 
ATOM     14  O   UNL d   1      32.716  18.150 -25.024  0.00  0.00    -0.258 OA
BRANCH  13  15
ATOM     15  O   UNL d   1      32.286  18.535 -23.759  0.00  0.00    -0.271 OA
BRANCH  15  16
ATOM     16  C   UNL d   1      32.827  19.156 -23.714  0.00  0.00     0.126 C 
ATOM     17  C   UNL d   1      33.041  19.512 -23.014  0.00  0.00     0.029 C 
ENDBRANCH  15  16
ENDBRANCH  13  15
ENDBRANCH   1  13
TORSDOF 4
ENDMDL
MODEL 2
REMARK VINA RESULT:      -1.7      1.649      2.750
REMARK  4 active torsions:
REMARK  status: ('A' for Active; 'I' for Inactive)
REMARK    1  A    between atoms: C_6  and  C_1 
REMARK    2  A    between atoms: C_7  and  C_2 
REMARK    3  A    between atoms: O_10  and  C_6 
REMARK    4  A    between atoms: C_13  and  O_10 
ROOT
ATOM      1  C   UNL d   1      31.608  16.875 -24.501  0.00  0.00     0.113 A 
ATOM      2  C   UNL d   1      30.796  17.113 -24.526  0.00  0.00     0.095 A 
ATOM      3  N   UNL d   1      30.776  17.924 -24.756  0.00  0.00    -0.219 NA
ATOM      4  S   UNL d   1      32.076  17.520 -24.710  0.00  0.00    -0.040 SA
ATOM      5  C   UNL d   1      31.552  18.148 -24.860  0.00  0.00     0.215 A 
ATOM      6  N   UNL d   1      31.818  18.898 -25.088  0.00  0.00    -0.120 N 
ENDROOT
BRANCH   2   7
ATOM      7  C   UNL d   1      30.207  16.572 -24.341  0.00  0.00     0.018 A 
ATOM      8  C   UNL d   1      29.923  16.064 -24.933  0.00  0.00     0.002 A 
ATOM      9  C   UNL d   1      29.324  15.516 -24.738  0.00  0.00     0.000 A 
ATOM     10  C   UNL d   1      29.021  15.477 -23.987  0.00  0.00     0.000 A 
ATOM     11  C   UNL d   1      29.314  15.998 -23.388  0.00  0.00     0.000 A 
ATOM     12  C   UNL d   1      29.907  16.538 -23.584  0.00  0.00     0.002 A 
ENDBRANCH   2   7
BRANCH   1  13
ATOM     13  C   UNL d   1      31.896  16.153 -24.311  0.00  0.00     0.308 C 
ATOM     14  O   UNL d   1      31.875  15.546 -24.857  0.00  0.00    -0.258 OA
BRANCH  13  15
ATOM     15  O   UNL d   1      32.203  16.023 -23.593  0.00  0.00    -0.271 OA
BRANCH  15  16
ATOM     16  C   UNL d   1      32.836  15.507 -23.473  0.00  0.00     0.126 C 
ATOM     17  C   UNL d   1      33.241  15.453 -22.770  0.00  0.00     0.029 C 
ENDBRANCH  15  16
ENDBRANCH  13  15
ENDBRANCH   1  13
TORSDOF 4
ENDMDL
MODEL 3
REMARK VINA RESULT:      -1.5      1.902      2.754
REMARK  4 active torsions:
REMARK  status: ('A' for Active; 'I' for Inactive)
REMARK    1  A    between atoms: C_6  and  C_1 
REMARK    2  A    between atoms: C_7  and  C_2 
REMARK    3  A    between atoms: O_10  and  C_6 
REMARK    4  A    between atoms: C_13  and  O_10 
ROOT
ATOM      1  C   UNL d   1      29.757  16.924 -24.341  0.00  0.00     0.113 A 
ATOM      2  C   UNL d   1      30.431  17.383 -24.566  0.00  0.00     0.095 A 
ATOM      3  N   UNL d   1      30.149  18.111 -24.885  0.00  0.00    -0.219 NA
ATOM      4  S   UNL d   1      29.077  17.355 -24.517  0.00  0.00    -0.040 SA
ATOM      5  C   UNL d   1      29.337  18.072 -24.847  0.00  0.00     0.215 A 
ATOM      6  N   UNL d   1      28.808  18.659 -25.097  0.00  0.00    -0.120 N 
ENDROOT
BRANCH   2   7
ATOM      7  C   UNL d   1      31.186  17.082 -24.450  0.00  0.00     0.018 A 
ATOM      8  C   UNL d   1      31.601  16.768 -25.097  0.00  0.00     0.002 A 
ATOM      9  C   UNL d   1      32.369  16.463 -24.972  0.00  0.00     0.000 A 
ATOM     10  C   UNL d   1      32.707  16.471 -24.236  0.00  0.00     0.000 A 
ATOM     11  C   UNL d   1      32.280  16.792 -23.580  0.00  0.00     0.000 A 
ATOM     12  C   UNL d   1      31.521  17.093 -23.707  0.00  0.00     0.002 A 
ENDBRANCH   2   7
BRANCH   1  13
ATOM     13  C   UNL d   1      29.755  16.195 -24.013  0.00  0.00     0.308 C 
ATOM     14  O   UNL d   1      29.902  15.536 -24.473  0.00  0.00    -0.258 OA
BRANCH  13  15
ATOM     15  O   UNL d   1      29.609  16.106 -23.239  0.00  0.00    -0.271 OA
BRANCH  15  16
ATOM     16  C   UNL d   1      29.183  15.464 -22.943  0.00  0.00     0.126 C 
ATOM     17  C   UNL d   1      28.841  15.456 -22.205  0.00  0.00     0.029 C 
ENDBRANCH  15  16
ENDBRANCH  13  15
ENDBRANCH   1  13
TORSDOF 4
ENDMDL
MODEL 4
REMARK VINA RESULT:      -1.3      1.210      2.407
REMARK  4 active torsions:
REMARK  status: ('A' for Active; 'I' for Inactive)
REMARK    1  A    between atoms: C_6  and  C_1 
REMARK    2  A    between atoms: C_7  and  C_2 
REMARK    3  A    between atoms: O_10  and  C_6 
REMARK    4  A    between atoms: C_13  and  O_10 
ROOT
ATOM      1  C   UNL d   1      32.206  17.287 -24.414  0.00  0.00     0.113 A 
ATOM      2  C   UNL d   1      31.556  16.747 -24.458  0.00  0.00     0.095 A 
ATOM      3  N   UNL d   1      31.874  15.972 -24.547  0.00  0.00    -0.219 NA
ATOM      4  S   UNL d   1      32.907  16.858 -24.475  0.00  0.00    -0.040 SA
ATOM      5  C   UNL d   1      32.684  16.061 -24.555  0.00  0.00     0.215 A 
ATOM      6  N   UNL d   1      33.241  15.453 -24.632  0.00  0.00    -0.120 N 
ENDROOT
BRANCH   2   7
ATOM      7  C   UNL d   1      30.787  17.031 -24.411  0.00  0.00     0.018 A 
ATOM      8  C   UNL d   1      30.383  16.989 -23.687  0.00  0.00     0.002 A 
ATOM      9  C   UNL d   1      29.601  17.280 -23.646  0.00  0.00     0.000 A 
ATOM     10  C   UNL d   1      29.239  17.598 -24.298  0.00  0.00     0.000 A 
ATOM     11  C   UNL d   1      29.656  17.639 -25.033  0.00  0.00     0.000 A 
ATOM     12  C   UNL d   1      30.429  17.350 -25.070  0.00  0.00     0.002 A 
ENDBRANCH   2   7
BRANCH   1  13
ATOM     13  C   UNL d   1      32.172  18.081 -24.329  0.00  0.00     0.308 C 
ATOM     14  O   UNL d   1      32.022  18.558 -24.975  0.00  0.00    -0.258 OA
BRANCH  13  15
ATOM     15  O   UNL d   1      32.285  18.411 -23.617  0.00  0.00    -0.271 OA
BRANCH  15  16
ATOM     16  C   UNL d   1      32.602  19.168 -23.530  0.00  0.00     0.126 C 
ATOM     17  C   UNL d   1      32.666  19.545 -22.812  0.00  0.00     0.029 C 
ENDBRANCH  15  16
ENDBRANCH  13  15
ENDBRANCH   1  13
TORSDOF 4
ENDMDL
MODEL 5
REMARK VINA RESULT:      -1.2      5.419      6.947
REMARK  4 active torsions:
REMARK  status: ('A' for Active; 'I' for Inactive)
REMARK    1  A    between atoms: C_6  and  C_1 
REMARK    2  A    between atoms: C_7  and  C_2 
REMARK    3  A    between atoms: O_10  and  C_6 
REMARK    4  A    between atoms: C_13  and  O_10 
ROOT
ATOM      1  C   UNL d   1      32.453  22.408 -20.480  0.00  0.00     0.113 A 
ATOM      2  C   UNL d   1      32.510  23.209 -20.745  0.00  0.00     0.095 A 
ATOM      3  N   UNL d   1      32.552  23.702 -20.062  0.00  0.00    -0.219 NA
ATOM      4  S   UNL d   1      32.460  22.405 -19.656  0.00  0.00    -0.040 SA
ATOM      5  C   UNL d   1      32.521  23.200 -19.422  0.00  0.00     0.215 A 
ATOM      6  N   UNL d   1      32.545  23.424 -18.625  0.00  0.00    -0.120 N 
ENDROOT
BRANCH   2   7
ATOM      7  C   UNL d   1      32.514  23.372 -21.550  0.00  0.00     0.018 A 
ATOM      8  C   UNL d   1      33.236  23.368 -21.961  0.00  0.00     0.002 A 
ATOM      9  C   UNL d   1      33.234  23.535 -22.779  0.00  0.00     0.000 A 
ATOM     10  C   UNL d   1      32.543  23.698 -23.170  0.00  0.00     0.000 A 
ATOM     11  C   UNL d   1      31.810  23.701 -22.747  0.00  0.00     0.000 A 
ATOM     12  C   UNL d   1      31.817  23.536 -21.938  0.00  0.00     0.002 A 
ENDBRANCH   2   7
BRANCH   1  13
ATOM     13  C   UNL d   1      32.400  21.750 -20.931  0.00  0.00     0.308 C 
ATOM     14  O   UNL d   1      31.675  21.502 -21.212  0.00  0.00    -0.258 OA
BRANCH  13  15
ATOM     15  O   UNL d   1      33.051  21.335 -21.108  0.00  0.00    -0.271 OA
BRANCH  15  16
ATOM     16  C   UNL d   1      33.019  20.539 -21.327  0.00  0.00     0.126 C 
ATOM     17  C   UNL d   1      33.240  19.931 -20.835  0.00  0.00     0.029 C 
ENDBRANCH  15  16
ENDBRANCH  13  15
ENDBRANCH   1  13
TORSDOF 4
ENDMDL
MODEL 6
REMARK VINA RESULT:      -1.2      1.650      2.360
REMARK  4 active torsions:
REMARK  status: ('A' for Active; 'I' for Inactive)
REMARK    1  A    between atoms: C_6  and  C_1 
REMARK    2  A    between atoms: C_7  and  C_2 
REMARK    3  A    between atoms: O_10  and  C_6 
REMARK    4  A    between atoms: C_13  and  O_10 
ROOT
ATOM      1  C   UNL d   1      32.104  18.197 -23.756  0.00  0.00     0.113 A 
ATOM      2  C   UNL d   1      32.758  17.694 -23.567  0.00  0.00     0.095 A 
ATOM      3  N   UNL d   1      33.227  18.090 -22.989  0.00  0.00    -0.219 NA
ATOM      4  S   UNL d   1      32.167  18.885 -23.307  0.00  0.00    -0.040 SA
ATOM      5  C   UNL d   1      32.855  18.801 -22.848  0.00  0.00     0.215 A 
ATOM      6  N   UNL d   1      33.107  19.387 -22.320  0.00  0.00    -0.120 N 
ENDROOT
BRANCH   2   7
ATOM      7  C   UNL d   1      32.831  16.965 -23.939  0.00  0.00     0.018 A 
ATOM      8  C   UNL d   1      32.565  16.282 -23.549  0.00  0.00     0.002 A 
ATOM      9  C   UNL d   1      32.643  15.544 -23.933  0.00  0.00     0.000 A 
ATOM     10  C   UNL d   1      32.971  15.490 -24.671  0.00  0.00     0.000 A 
ATOM     11  C   UNL d   1      33.240  16.189 -25.064  0.00  0.00     0.000 A 
ATOM     12  C   UNL d   1      33.162  16.917 -24.682  0.00  0.00     0.002 A 
ENDBRANCH   2   7
BRANCH   1  13
ATOM     13  C   UNL d   1      31.515  18.052 -24.276  0.00  0.00     0.308 C 
ATOM     14  O   UNL d   1      31.603  18.251 -25.063  0.00  0.00    -0.258 OA
BRANCH  13  15
ATOM     15  O   UNL d   1      30.841  17.714 -24.031  0.00  0.00    -0.271 OA
BRANCH  15  16
ATOM     16  C   UNL d   1      30.153  17.727 -24.486  0.00  0.00     0.126 C 
ATOM     17  C   UNL d   1      29.421  17.523 -24.196  0.00  0.00     0.029 C 
ENDBRANCH  15  16
ENDBRANCH  13  15
ENDBRANCH   1  13
TORSDOF 4
ENDMDL
MODEL 7
REMARK VINA RESULT:       0.2      2.055      3.044
REMARK  4 active torsions:
REMARK  status: ('A' for Active; 'I' for Inactive)
REMARK    1  A    between atoms: C_6  and  C_1 
REMARK    2  A    between atoms: C_7  and  C_2 
REMARK    3  A    between atoms: O_10  and  C_6 
REMARK    4  A    between atoms: C_13  and  O_10 
ROOT
ATOM      1  C   UNL d   1      31.174  16.477 -23.999  0.00  0.00     0.113 A 
ATOM      2  C   UNL d   1      30.791  15.877 -23.540  0.00  0.00     0.095 A 
ATOM      3  N   UNL d   1      31.388  15.456 -23.121  0.00  0.00    -0.219 NA
ATOM      4  S   UNL d   1      31.986  16.428 -23.866  0.00  0.00    -0.040 SA
ATOM      5  C   UNL d   1      32.095  15.801 -23.330  0.00  0.00     0.215 A 
ATOM      6  N   UNL d   1      32.846  15.579 -23.060  0.00  0.00    -0.120 N 
ENDROOT
BRANCH   2   7
ATOM      7  C   UNL d   1      29.974  15.803 -23.570  0.00  0.00     0.018 A 
ATOM      8  C   UNL d   1      29.616  15.526 -24.266  0.00  0.00     0.002 A 
ATOM      9  C   UNL d   1      28.784  15.453 -24.289  0.00  0.00     0.000 A 
ATOM     10  C   UNL d   1      28.330  15.646 -23.647  0.00  0.00     0.000 A 
ATOM     11  C   UNL d   1      28.699  15.927 -22.940  0.00  0.00     0.000 A 
ATOM     12  C   UNL d   1      29.522  15.999 -22.920  0.00  0.00     0.002 A 
ENDBRANCH   2   7
BRANCH   1  13
ATOM     13  C   UNL d   1      30.830  17.011 -24.484  0.00  0.00     0.308 C 
ATOM     14  O   UNL d   1      30.349  16.761 -25.095  0.00  0.00    -0.258 OA
BRANCH  13  15
ATOM     15  O   UNL d   1      30.953  17.786 -24.375  0.00  0.00    -0.271 OA
BRANCH  15  16
ATOM     16  C   UNL d   1      30.811  18.341 -24.970  0.00  0.00     0.126 C 
ATOM     17  C   UNL d   1      30.831  19.144 -24.845  0.00  0.00     0.029 C 
ENDBRANCH  15  16
ENDBRANCH  13  15
ENDBRANCH   1  13
TORSDOF 4
ENDMDL
MODEL 8
REMARK VINA RESULT:       0.7      4.770      6.106
REMARK  4 active torsions:
REMARK  status: ('A' for Active; 'I' for Inactive)
REMARK    1  A    between atoms: C_6  and  C_1 
REMARK    2  A    between atoms: C_7  and  C_2 
REMARK    3  A    between atoms: O_10  and  C_6 
REMARK    4  A    between atoms: C_13  and  O_10 
ROOT
ATOM      1  C   UNL d   1      32.528  21.733 -21.501  0.00  0.00     0.113 A 
ATOM      2  C   UNL d   1      32.793  21.693 -22.304  0.00  0.00     0.095 A 
ATOM      3  N   UNL d   1      33.058  20.906 -22.447  0.00  0.00    -0.219 NA
ATOM      4  S   UNL d   1      32.626  20.990 -21.157  0.00  0.00    -0.040 SA
ATOM      5  C   UNL d   1      32.949  20.502 -21.748  0.00  0.00     0.215 A 
ATOM      6  N   UNL d   1      33.128  19.705 -21.612  0.00  0.00    -0.120 N 
ENDROOT
BRANCH   2   7
ATOM      7  C   UNL d   1      32.757  22.363 -22.778  0.00  0.00     0.018 A 
ATOM      8  C   UNL d   1      32.224  22.381 -23.414  0.00  0.00     0.002 A 
ATOM      9  C   UNL d   1      32.192  23.066 -23.892  0.00  0.00     0.000 A 
ATOM     10  C   UNL d   1      32.670  23.702 -23.742  0.00  0.00     0.000 A 
ATOM     11  C   UNL d   1      33.212  23.678 -23.093  0.00  0.00     0.000 A 
ATOM     12  C   UNL d   1      33.241  23.000 -22.622  0.00  0.00     0.002 A 
ENDBRANCH   2   7
BRANCH   1  13
ATOM     13  C   UNL d   1      32.230  22.369 -21.120  0.00  0.00     0.308 C 
ATOM     14  O   UNL d   1      31.461  22.607 -21.257  0.00  0.00    -0.258 OA
BRANCH  13  15
ATOM     15  O   UNL d   1      32.679  22.772 -20.606  0.00  0.00    -0.271 OA
BRANCH  15  16
ATOM     16  C   UNL d   1      32.351  23.240 -20.010  0.00  0.00     0.126 C 
ATOM     17  C   UNL d   1      32.586  23.203 -19.232  0.00  0.00     0.029 C 
ENDBRANCH  15  16
ENDBRANCH  13  15
ENDBRANCH   1  13
TORSDOF 4
ENDMDL
MODEL 9
REMARK VINA RESULT:       1.2      2.437      3.625
REMARK  4 active torsions:
REMARK  status: ('A' for Active; 'I' for Inactive)
REMARK    1  A    between atoms: C_6  and  C_1 
REMARK    2  A    between atoms: C_7  and  C_2 
REMARK    3  A    between atoms: O_10  and  C_6 
REMARK    4  A    between atoms: C_13  and  O_10 
ROOT
ATOM      1  C   UNL d   1      29.571  16.801 -24.466  0.00  0.00     0.113 A 
ATOM      2  C   UNL d   1      28.898  17.052 -24.018  0.00  0.00     0.095 A 
ATOM      3  N   UNL d   1      28.754  17.861 -24.205  0.00  0.00    -0.219 NA
ATOM      4  S   UNL d   1      29.835  17.438 -24.918  0.00  0.00    -0.040 SA
ATOM      5  C   UNL d   1      29.325  18.072 -24.745  0.00  0.00     0.215 A 
ATOM      6  N   UNL d   1      29.414  18.817 -25.097  0.00  0.00    -0.120 N 
ENDROOT
BRANCH   2   7
ATOM      7  C   UNL d   1      28.523  16.521 -23.516  0.00  0.00     0.018 A 
ATOM      8  C   UNL d   1      27.744  16.286 -23.683  0.00  0.00     0.002 A 
ATOM      9  C   UNL d   1      27.369  15.746 -23.168  0.00  0.00     0.000 A 
ATOM     10  C   UNL d   1      27.752  15.454 -22.517  0.00  0.00     0.000 A 
ATOM     11  C   UNL d   1      28.546  15.696 -22.352  0.00  0.00     0.000 A 
ATOM     12  C   UNL d   1      28.914  16.231 -22.863  0.00  0.00     0.002 A 
ENDBRANCH   2   7
BRANCH   1  13
ATOM     13  C   UNL d   1      29.910  16.077 -24.469  0.00  0.00     0.308 C 
ATOM     14  O   UNL d   1      29.557  15.459 -24.869  0.00  0.00    -0.258 OA
BRANCH  13  15
ATOM     15  O   UNL d   1      30.591  15.955 -24.082  0.00  0.00    -0.271 OA
BRANCH  15  16
ATOM     16  C   UNL d   1      31.227  15.560 -24.429  0.00  0.00     0.126 C 
ATOM     17  C   UNL d   1      31.986  15.591 -24.135  0.00  0.00     0.029 C 
ENDBRANCH  15  16
ENDBRANCH  13  15
ENDBRANCH   1  13
TORSDOF 4
ENDMDL
