MODEL 1
REMARK VINA RESULT:      47.0      0.000      0.000
REMARK  6 active torsions:
REMARK  status: ('A' for Active; 'I' for Inactive)
REMARK    1  A    between atoms: N_2  and  S_1 
REMARK    2  A    between atoms: C_4  and  S_1 
REMARK    3  A    between atoms: C_3  and  N_2 
REMARK    4  A    between atoms: N_7  and  C_3 
REMARK    5  A    between atoms: C_14  and  N_7 
REMARK    6  A    between atoms: C_15  and  C_13 
ROOT
ATOM      1  S   UNL d   1      59.572  49.547  50.595  0.00  0.00     0.287 S 
ATOM      2  O   UNL d   1      59.302  49.707  51.367  0.00  0.00    -0.198 OA
ATOM      3  O   UNL d   1      59.838  49.388  49.830  0.00  0.00    -0.198 OA
ENDROOT
BRANCH   1   4
ATOM      4  N   UNL d   1      60.356  49.571  50.863  0.00  0.00    -0.128 NA
BRANCH   4   5
ATOM      5  C   UNL d   1      61.053  49.172  51.044  0.00  0.00     0.232 C 
ATOM      6  S   UNL d   1      61.458  49.342  51.742  0.00  0.00    -0.036 SA
BRANCH   5   7
ATOM      7  N   UNL d   1      61.344  48.601  50.525  0.00  0.00    -0.217 NA
BRANCH   7   8
ATOM      8  C   UNL d   1      61.296  47.803  50.729  0.00  0.00     0.084 A 
ATOM      9  C   UNL d   1      61.182  47.239  50.139  0.00  0.00     0.019 A 
ATOM     10  C   UNL d   1      61.133  46.442  50.339  0.00  0.00     0.002 A 
ATOM     11  C   UNL d   1      61.198  46.210  51.124  0.00  0.00     0.000 A 
ATOM     12  C   UNL d   1      61.312  46.773  51.713  0.00  0.00     0.002 A 
ATOM     13  C   UNL d   1      61.361  47.570  51.518  0.00  0.00     0.019 A 
ENDBRANCH   7   8
ENDBRANCH   5   7
ENDBRANCH   4   5
ENDBRANCH   1   4
BRANCH   1  14
ATOM     14  C   UNL d   1      58.783  49.522  50.325  0.00  0.00     0.105 A 
ATOM     15  C   UNL d   1      58.631  49.390  49.526  0.00  0.00     0.013 A 
ATOM     16  C   UNL d   1      57.844  49.364  49.249  0.00  0.00     0.001 A 
ATOM     17  C   UNL d   1      57.213  49.472  49.783  0.00  0.00     0.000 A 
ATOM     18  C   UNL d   1      57.373  49.605  50.585  0.00  0.00     0.001 A 
ATOM     19  C   UNL d   1      58.151  49.631  50.859  0.00  0.00     0.013 A 
BRANCH  17  20
ATOM     20  C   UNL d   1      56.433  49.448  49.513  0.00  0.00     0.000 C 
ATOM     21  C   UNL d   1      56.033  49.702  48.830  0.00  0.00     0.000 C 
ENDBRANCH  17  20
ENDBRANCH   1  14
TORSDOF 6
ENDMDL
