MODEL 1
REMARK VINA RESULT:      19.0      0.000      0.000
REMARK  7 active torsions:
REMARK  status: ('A' for Active; 'I' for Inactive)
REMARK    1  A    between atoms: N_2  and  S_1 
REMARK    2  A    between atoms: C_3  and  S_1 
REMARK       I    between atoms: C_4  and  N_9 
REMARK    3  A    between atoms: C_10  and  C_4 
REMARK    4  A    between atoms: C_12  and  C_6 
REMARK    5  A    between atoms: N_9  and  C_12 
REMARK    6  A    between atoms: O_22  and  C_19 
REMARK    7  A    between atoms: C_25  and  O_22 
ROOT
ATOM      1  N   UNL d   1      46.164 -18.551  42.530  0.00  0.00    -0.229 N 
ATOM      2  C   UNL d   1      46.355 -17.747  42.538  0.00  0.00     0.094 A 
ATOM      3  C   UNL d   1      46.036 -18.778  41.739  0.00  0.00     0.092 A 
ATOM      4  C   UNL d   1      46.344 -17.485  41.753  0.00  0.00     0.021 A 
ATOM      5  C   UNL d   1      46.148 -18.120  41.267  0.00  0.00     0.021 A 
ENDROOT
BRANCH   2   6
ATOM      6  C   UNL d   1      46.513 -17.365  43.253  0.00  0.00     0.120 C 
BRANCH   6   7
ATOM      7  N   UNL d   1      46.346 -16.568  43.334  0.00  0.00    -0.205 NA
ATOM      8  C   UNL d   1      45.931 -16.311  43.986  0.00  0.00     0.279 C 
ATOM      9  O   UNL d   1      45.674 -16.839  44.568  0.00  0.00    -0.265 OA
BRANCH   8  10
ATOM     10  C   UNL d   1      45.757 -15.494  44.074  0.00  0.00     0.058 A 
ATOM     11  C   UNL d   1      46.339 -14.978  44.348  0.00  0.00     0.007 A 
ATOM     12  C   UNL d   1      46.177 -14.182  44.435  0.00  0.00     0.025 A 
ATOM     13  C   UNL d   1      45.422 -13.892  44.248  0.00  0.00     0.100 A 
ATOM     14  C   UNL d   1      44.840 -14.408  43.974  0.00  0.00     0.025 A 
ATOM     15  C   UNL d   1      45.017 -15.211  43.890  0.00  0.00     0.007 A 
BRANCH  13  16
ATOM     16  O   UNL d   1      45.263 -13.084  44.339  0.00  0.00    -0.305 OA
BRANCH  16  17
ATOM     17  C   UNL d   1      45.437 -12.550  43.735  0.00  0.00     0.123 C 
ATOM     18  C   UNL d   1      44.829 -12.131  43.367  0.00  0.00     0.029 C 
ENDBRANCH  16  17
ENDBRANCH  13  16
ENDBRANCH   8  10
ENDBRANCH   6   7
ENDBRANCH   2   6
BRANCH   1  19
ATOM     19  S   UNL d   1      46.110 -19.039  43.193  0.00  0.00     0.277 S 
ATOM     20  O   UNL d   1      45.968 -19.689  42.703  0.00  0.00    -0.199 OA
ATOM     21  O   UNL d   1      46.253 -18.384  43.683  0.00  0.00    -0.199 OA
BRANCH  19  22
ATOM     22  C   UNL d   1      46.055 -19.534  43.861  0.00  0.00     0.133 A 
ATOM     23  S   UNL d   1      46.623 -19.774  44.414  0.00  0.00    -0.074 SA
ATOM     24  C   UNL d   1      46.248 -20.266  44.954  0.00  0.00     0.036 A 
ATOM     25  C   UNL d   1      45.457 -20.326  44.732  0.00  0.00     0.008 A 
ATOM     26  C   UNL d   1      45.342 -19.877  44.063  0.00  0.00     0.020 A 
ENDBRANCH  19  22
ENDBRANCH   1  19
TORSDOF 7
ENDMDL
