MODEL 1
REMARK VINA RESULT:      -3.1      0.000      0.000
REMARK  1 active torsions:
REMARK  status: ('A' for Active; 'I' for Inactive)
REMARK    1  A    between atoms: C_9  and  N_4 
ROOT
ATOM      1  C   UNL d   1      33.012  19.933 -23.389  0.00  0.00     0.096 A 
ATOM      2  C   UNL d   1      32.921  19.817 -22.585  0.00  0.00     0.109 A 
ATOM      3  N   UNL d   1      32.768  19.023 -22.452  0.00  0.00    -0.162 NA
ATOM      4  N   UNL d   1      32.766  18.648 -23.187  0.00  0.00    -0.195 N 
ATOM      5  C   UNL d   1      32.916  19.210 -23.759  0.00  0.00     0.283 A 
ATOM      6  C   UNL d   1      33.173  20.692 -23.688  0.00  0.00     0.105 A 
ATOM      7  C   UNL d   1      32.990  20.454 -22.073  0.00  0.00     0.037 A 
ATOM      8  N   UNL d   1      33.241  21.326 -23.173  0.00  0.00    -0.244 NA
ATOM      9  C   UNL d   1      33.149  21.212 -22.359  0.00  0.00     0.083 A 
ATOM     10  O   UNL d   1      32.962  19.071 -24.571  0.00  0.00    -0.265 OA
ATOM     11  C   UNL d   1      32.899  20.341 -21.261  0.00  0.00     0.003 A 
ATOM     12  C   UNL d   1      33.217  21.850 -21.837  0.00  0.00     0.019 A 
ATOM     13  C   UNL d   1      32.968  20.984 -20.746  0.00  0.00     0.000 A 
ATOM     14  C   UNL d   1      33.126  21.732 -21.031  0.00  0.00     0.002 A 
ENDROOT
BRANCH   4  15
ATOM     15  C   UNL d   1      32.635  17.844 -23.323  0.00  0.00     0.086 A 
ATOM     16  C   UNL d   1      31.896  17.588 -23.591  0.00  0.00     0.020 A 
ATOM     17  C   UNL d   1      31.761  16.794 -23.727  0.00  0.00     0.013 A 
ATOM     18  C   UNL d   1      32.363  16.244 -23.598  0.00  0.00     0.058 A 
ATOM     19  C   UNL d   1      33.103  16.500 -23.331  0.00  0.00     0.013 A 
ATOM     20 CL   UNL d   1      32.236  15.453 -23.732  0.00  0.00    -0.082 Cl
ATOM     21  C   UNL d   1      33.239  17.289 -23.194  0.00  0.00     0.020 A 
ENDBRANCH   4  15
TORSDOF 1
ENDMDL
MODEL 2
REMARK VINA RESULT:      -2.9      3.057      4.207
REMARK  1 active torsions:
REMARK  status: ('A' for Active; 'I' for Inactive)
REMARK    1  A    between atoms: C_9  and  N_4 
ROOT
ATOM      1  C   UNL d   1      31.473  16.545 -23.578  0.00  0.00     0.096 A 
ATOM      2  C   UNL d   1      31.273  17.159 -24.079  0.00  0.00     0.109 A 
ATOM      3  N   UNL d   1      30.469  17.118 -24.233  0.00  0.00    -0.162 NA
ATOM      4  N   UNL d   1      30.174  16.468 -23.818  0.00  0.00    -0.195 N 
ATOM      5  C   UNL d   1      30.794  16.120 -23.418  0.00  0.00     0.283 A 
ATOM      6  C   UNL d   1      32.260  16.449 -23.326  0.00  0.00     0.105 A 
ATOM      7  C   UNL d   1      31.852  17.680 -24.333  0.00  0.00     0.037 A 
ATOM      8  N   UNL d   1      32.837  16.972 -23.583  0.00  0.00    -0.244 NA
ATOM      9  C   UNL d   1      32.637  17.594 -24.090  0.00  0.00     0.083 A 
ATOM     10  O   UNL d   1      30.741  15.453 -22.935  0.00  0.00    -0.265 OA
ATOM     11  C   UNL d   1      31.654  18.301 -24.839  0.00  0.00     0.003 A 
ATOM     12  C   UNL d   1      33.216  18.124 -24.350  0.00  0.00     0.019 A 
ATOM     13  C   UNL d   1      32.239  18.827 -25.095  0.00  0.00     0.000 A 
ATOM     14  C   UNL d   1      33.014  18.739 -24.852  0.00  0.00     0.002 A 
ENDROOT
BRANCH   4  15
ATOM     15  C   UNL d   1      29.389  16.213 -23.808  0.00  0.00     0.086 A 
ATOM     16  C   UNL d   1      28.881  16.469 -23.208  0.00  0.00     0.020 A 
ATOM     17  C   UNL d   1      28.104  16.219 -23.193  0.00  0.00     0.013 A 
ATOM     18  C   UNL d   1      27.822  15.709 -23.779  0.00  0.00     0.058 A 
ATOM     19  C   UNL d   1      28.329  15.453 -24.380  0.00  0.00     0.013 A 
ATOM     20 CL   UNL d   1      27.050  15.457 -23.770  0.00  0.00    -0.082 Cl
ATOM     21  C   UNL d   1      29.103  15.700 -24.396  0.00  0.00     0.020 A 
ENDBRANCH   4  15
TORSDOF 1
ENDMDL
MODEL 3
REMARK VINA RESULT:      -2.4      1.827      4.039
REMARK  1 active torsions:
REMARK  status: ('A' for Active; 'I' for Inactive)
REMARK    1  A    between atoms: C_9  and  N_4 
ROOT
ATOM      1  C   UNL d   1      32.994  19.330 -23.833  0.00  0.00     0.096 A 
ATOM      2  C   UNL d   1      32.789  18.705 -23.349  0.00  0.00     0.109 A 
ATOM      3  N   UNL d   1      32.714  18.984 -22.581  0.00  0.00    -0.162 NA
ATOM      4  N   UNL d   1      32.876  19.792 -22.598  0.00  0.00    -0.195 N 
ATOM      5  C   UNL d   1      33.047  20.001 -23.369  0.00  0.00     0.283 A 
ATOM      6  C   UNL d   1      33.108  19.210 -24.648  0.00  0.00     0.105 A 
ATOM      7  C   UNL d   1      32.696  17.957 -23.670  0.00  0.00     0.037 A 
ATOM      8  N   UNL d   1      33.014  18.460 -24.966  0.00  0.00    -0.244 NA
ATOM      9  C   UNL d   1      32.807  17.825 -24.478  0.00  0.00     0.083 A 
ATOM     10  O   UNL d   1      33.241  20.759 -23.631  0.00  0.00    -0.265 OA
ATOM     11  C   UNL d   1      32.489  17.323 -23.185  0.00  0.00     0.003 A 
ATOM     12  C   UNL d   1      32.711  17.068 -24.796  0.00  0.00     0.019 A 
ATOM     13  C   UNL d   1      32.396  16.568 -23.510  0.00  0.00     0.000 A 
ATOM     14  C   UNL d   1      32.506  16.442 -24.309  0.00  0.00     0.002 A 
ENDROOT
BRANCH   4  15
ATOM     15  C   UNL d   1      32.868  20.304 -21.950  0.00  0.00     0.086 A 
ATOM     16  C   UNL d   1      33.234  20.079 -21.244  0.00  0.00     0.020 A 
ATOM     17  C   UNL d   1      33.229  20.581 -20.601  0.00  0.00     0.013 A 
ATOM     18  C   UNL d   1      32.856  21.317 -20.653  0.00  0.00     0.058 A 
ATOM     19  C   UNL d   1      32.489  21.542 -21.359  0.00  0.00     0.013 A 
ATOM     20 CL   UNL d   1      32.847  21.821 -20.016  0.00  0.00    -0.082 Cl
ATOM     21  C   UNL d   1      32.494  21.044 -22.000  0.00  0.00     0.020 A 
ENDBRANCH   4  15
TORSDOF 1
ENDMDL
MODEL 4
REMARK VINA RESULT:      -2.3      1.175      1.856
REMARK  1 active torsions:
REMARK  status: ('A' for Active; 'I' for Inactive)
REMARK    1  A    between atoms: C_9  and  N_4 
ROOT
ATOM      1  C   UNL d   1      33.103  21.551 -22.530  0.00  0.00     0.096 A 
ATOM      2  C   UNL d   1      32.948  21.333 -21.759  0.00  0.00     0.109 A 
ATOM      3  N   UNL d   1      32.855  20.519 -21.730  0.00  0.00    -0.162 NA
ATOM      4  N   UNL d   1      32.954  20.236 -22.499  0.00  0.00    -0.195 N 
ATOM      5  C   UNL d   1      33.107  20.872 -22.987  0.00  0.00     0.283 A 
ATOM      6  C   UNL d   1      33.223  22.350 -22.726  0.00  0.00     0.105 A 
ATOM      7  C   UNL d   1      32.911  21.908 -21.175  0.00  0.00     0.037 A 
ATOM      8  N   UNL d   1      33.185  22.922 -22.139  0.00  0.00    -0.244 NA
ATOM      9  C   UNL d   1      33.029  22.705 -21.356  0.00  0.00     0.083 A 
ATOM     10  O   UNL d   1      33.241  20.835 -23.800  0.00  0.00    -0.265 OA
ATOM     11  C   UNL d   1      32.755  21.693 -20.394  0.00  0.00     0.003 A 
ATOM     12  C   UNL d   1      32.990  23.280 -20.763  0.00  0.00     0.019 A 
ATOM     13  C   UNL d   1      32.718  22.273 -19.806  0.00  0.00     0.000 A 
ATOM     14  C   UNL d   1      32.835  23.060 -19.989  0.00  0.00     0.002 A 
ENDROOT
BRANCH   4  15
ATOM     15  C   UNL d   1      32.909  19.446 -22.736  0.00  0.00     0.086 A 
ATOM     16  C   UNL d   1      33.241  18.855 -22.262  0.00  0.00     0.020 A 
ATOM     17  C   UNL d   1      33.199  18.073 -22.492  0.00  0.00     0.013 A 
ATOM     18  C   UNL d   1      32.824  17.869 -23.199  0.00  0.00     0.058 A 
ATOM     19  C   UNL d   1      32.492  18.460 -23.673  0.00  0.00     0.013 A 
ATOM     20 CL   UNL d   1      32.779  17.092 -23.434  0.00  0.00    -0.082 Cl
ATOM     21  C   UNL d   1      32.533  19.238 -23.446  0.00  0.00     0.020 A 
ENDBRANCH   4  15
TORSDOF 1
ENDMDL
MODEL 5
REMARK VINA RESULT:      -2.1      2.324      4.459
REMARK  1 active torsions:
REMARK  status: ('A' for Active; 'I' for Inactive)
REMARK    1  A    between atoms: C_9  and  N_4 
ROOT
ATOM      1  C   UNL d   1      33.096  19.362 -22.053  0.00  0.00     0.096 A 
ATOM      2  C   UNL d   1      33.041  19.661 -22.811  0.00  0.00     0.109 A 
ATOM      3  N   UNL d   1      32.945  20.474 -22.764  0.00  0.00    -0.162 NA
ATOM      4  N   UNL d   1      32.942  20.673 -21.963  0.00  0.00    -0.195 N 
ATOM      5  C   UNL d   1      33.035  19.987 -21.530  0.00  0.00     0.283 A 
ATOM      6  C   UNL d   1      33.197  18.545 -21.931  0.00  0.00     0.105 A 
ATOM      7  C   UNL d   1      33.085  19.152 -23.453  0.00  0.00     0.037 A 
ATOM      8  N   UNL d   1      33.241  18.039 -22.575  0.00  0.00    -0.244 NA
ATOM      9  C   UNL d   1      33.185  18.340 -23.344  0.00  0.00     0.083 A 
ATOM     10  O   UNL d   1      33.063  19.937 -20.707  0.00  0.00    -0.265 OA
ATOM     11  C   UNL d   1      33.029  19.451 -24.219  0.00  0.00     0.003 A 
ATOM     12  C   UNL d   1      33.228  17.833 -23.995  0.00  0.00     0.019 A 
ATOM     13  C   UNL d   1      33.073  18.937 -24.866  0.00  0.00     0.000 A 
ATOM     14  C   UNL d   1      33.172  18.134 -24.754  0.00  0.00     0.002 A 
ENDROOT
BRANCH   4  15
ATOM     15  C   UNL d   1      32.859  21.433 -21.651  0.00  0.00     0.086 A 
ATOM     16  C   UNL d   1      33.162  22.082 -22.064  0.00  0.00     0.020 A 
ATOM     17  C   UNL d   1      33.083  22.836 -21.760  0.00  0.00     0.013 A 
ATOM     18  C   UNL d   1      32.700  22.952 -21.037  0.00  0.00     0.058 A 
ATOM     19  C   UNL d   1      32.397  22.303 -20.624  0.00  0.00     0.013 A 
ATOM     20 CL   UNL d   1      32.618  23.699 -20.729  0.00  0.00    -0.082 Cl
ATOM     21  C   UNL d   1      32.475  21.553 -20.925  0.00  0.00     0.020 A 
ENDBRANCH   4  15
TORSDOF 1
ENDMDL
