MODEL 1
REMARK VINA RESULT:      67.8      0.000      0.000
REMARK  4 active torsions:
REMARK  status: ('A' for Active; 'I' for Inactive)
REMARK    1  A    between atoms: O_8  and  C_1 
REMARK    2  A    between atoms: C_9  and  C_5 
REMARK    3  A    between atoms: C_11  and  O_8 
REMARK    4  A    between atoms: N_12  and  C_9 
ROOT
ATOM      1  C   UNL d   1     -51.915  24.951  33.329  0.00  0.00     0.161 A 
ATOM      2  C   UNL d   1     -50.533  25.880  33.325  0.00  0.00     0.108 A 
ATOM      3  C   UNL d   1     -50.477  25.043  33.336  0.00  0.00     0.064 A 
ATOM      4  C   UNL d   1     -51.168  24.583  33.338  0.00  0.00     0.222 A 
ATOM      5  C   UNL d   1     -49.856  26.337  33.323  0.00  0.00     0.079 A 
ATOM      6  O   UNL d   1     -51.281  26.245  33.316  0.00  0.00    -0.305 OA
ATOM      7  C   UNL d   1     -51.971  25.780  33.318  0.00  0.00     0.126 A 
ATOM      8  C   UNL d   1     -49.731  24.696  33.344  0.00  0.00     0.009 A 
ATOM      9  C   UNL d   1     -49.114  25.984  33.331  0.00  0.00     0.199 A 
ATOM     10  O   UNL d   1     -51.112  23.758  33.349  0.00  0.00    -0.284 OA
ATOM     11  C   UNL d   1     -49.054  25.160  33.342  0.00  0.00     0.042 A 
ATOM     12  O   UNL d   1     -48.432  26.449  33.329  0.00  0.00    -0.286 OA
ATOM     13  C   UNL d   1     -52.714  26.148  33.309  0.00  0.00     0.029 C 
ENDROOT
BRANCH   1  14
ATOM     14  O   UNL d   1     -52.596  24.486  33.331  0.00  0.00    -0.301 OA
BRANCH  14  15
ATOM     15  C   UNL d   1     -52.858  24.125  34.026  0.00  0.00     0.106 A 
ATOM     16  C   UNL d   1     -53.524  23.649  34.013  0.00  0.00     0.057 A 
ATOM     17 BR   UNL d   1     -53.937  23.527  33.307  0.00  0.00    -0.047 Br
ATOM     18  C   UNL d   1     -53.783  23.288  34.711  0.00  0.00     0.009 A 
ATOM     19  C   UNL d   1     -53.371  23.407  35.421  0.00  0.00     0.001 A 
ATOM     20  C   UNL d   1     -52.698  23.891  35.425  0.00  0.00     0.002 A 
ATOM     21  C   UNL d   1     -52.444  24.247  34.729  0.00  0.00     0.025 A 
ENDBRANCH  14  15
ENDBRANCH   1  14
BRANCH   5  22
ATOM     22  C   UNL d   1     -49.915  27.148  33.312  0.00  0.00     0.085 C 
BRANCH  22  23
ATOM     23  N   UNL d   1     -49.531  27.668  33.809  0.00  0.00    -0.302 N 
ATOM     24  C   UNL d   1     -48.794  27.562  34.138  0.00  0.00     0.080 A 
ATOM     25  C   UNL d   1     -48.630  28.207  34.590  0.00  0.00     0.021 A 
ATOM     26  C   UNL d   1     -49.247  28.709  34.547  0.00  0.00     0.021 A 
ATOM     27  C   UNL d   1     -49.816  28.376  34.058  0.00  0.00     0.080 A 
ENDBRANCH  22  23
ENDBRANCH   5  22
TORSDOF 4
ENDMDL
