MODEL 1
REMARK VINA RESULT:      47.2      0.000      0.000
REMARK  4 active torsions:
REMARK  status: ('A' for Active; 'I' for Inactive)
REMARK    1  A    between atoms: C_3  and  C_1 
REMARK    2  A    between atoms: C_11  and  N_2 
REMARK    3  A    between atoms: C_12  and  C_11 
REMARK       I    between atoms: N_13  and  C_12 
REMARK    4  A    between atoms: C_16  and  N_13 
ROOT
ATOM      1  C   UNL d   1     -50.523  26.394  33.371  0.00  0.00     0.171 A 
ATOM      2  N   UNL d   1     -51.350  26.441  33.410  0.00  0.00    -0.284 N 
ATOM      3  N   UNL d   1     -50.227  27.168  33.339  0.00  0.00    -0.225 NA
ATOM      4  C   UNL d   1     -51.557  27.237  33.402  0.00  0.00     0.083 A 
ATOM      5  C   UNL d   1     -50.866  27.685  33.358  0.00  0.00     0.099 A 
ATOM      6  C   UNL d   1     -52.311  27.626  33.430  0.00  0.00     0.019 A 
ATOM      7  C   UNL d   1     -50.916  28.529  33.341  0.00  0.00     0.021 A 
ATOM      8  C   UNL d   1     -52.331  28.435  33.412  0.00  0.00     0.002 A 
ATOM      9  C   UNL d   1     -51.640  28.882  33.368  0.00  0.00     0.002 A 
ENDROOT
BRANCH   2  10
ATOM     10  C   UNL d   1     -51.862  25.798  33.449  0.00  0.00     0.145 C 
BRANCH  10  11
ATOM     11  C   UNL d   1     -52.667  25.932  33.475  0.00  0.00     0.297 C 
ATOM     12  N   UNL d   1     -53.186  25.310  33.645  0.00  0.00    -0.207 NA
ATOM     13  O   UNL d   1     -52.980  26.690  33.332  0.00  0.00    -0.264 OA
BRANCH  12  14
ATOM     14  C   UNL d   1     -53.139  24.508  33.816  0.00  0.00     0.085 A 
ATOM     15  C   UNL d   1     -52.830  23.918  33.325  0.00  0.00     0.019 A 
ATOM     16  C   UNL d   1     -52.895  23.201  33.718  0.00  0.00     0.002 A 
ATOM     17  C   UNL d   1     -53.241  23.327  34.453  0.00  0.00     0.002 A 
ATOM     18  C   UNL d   1     -53.388  24.127  34.507  0.00  0.00     0.019 A 
ENDBRANCH  12  14
ENDBRANCH  10  11
ENDBRANCH   2  10
BRANCH   1  19
ATOM     19  C   UNL d   1     -50.070  25.694  33.364  0.00  0.00     0.184 A 
ATOM     20  C   UNL d   1     -50.370  24.926  33.337  0.00  0.00     0.235 A 
ATOM     21  N   UNL d   1     -49.727  24.402  33.340  0.00  0.00    -0.081 NA
ATOM     22  N   UNL d   1     -51.165  24.711  33.311  0.00  0.00    -0.123 N 
ATOM     23  O   UNL d   1     -49.034  24.850  33.370  0.00  0.00    -0.104 OA
ATOM     24  N   UNL d   1     -49.246  25.652  33.385  0.00  0.00    -0.097 NA
ENDBRANCH   1  19
TORSDOF 4
ENDMDL
MODEL 2
REMARK VINA RESULT:      48.6      1.408      4.211
REMARK  4 active torsions:
REMARK  status: ('A' for Active; 'I' for Inactive)
REMARK    1  A    between atoms: C_3  and  C_1 
REMARK    2  A    between atoms: C_11  and  N_2 
REMARK    3  A    between atoms: C_12  and  C_11 
REMARK       I    between atoms: N_13  and  C_12 
REMARK    4  A    between atoms: C_16  and  N_13 
ROOT
ATOM      1  C   UNL d   1     -51.781  25.688  33.384  0.00  0.00     0.171 A 
ATOM      2  N   UNL d   1     -50.960  25.631  33.491  0.00  0.00    -0.284 N 
ATOM      3  N   UNL d   1     -52.080  24.919  33.310  0.00  0.00    -0.225 NA
ATOM      4  C   UNL d   1     -50.760  24.833  33.482  0.00  0.00     0.083 A 
ATOM      5  C   UNL d   1     -51.451  24.395  33.370  0.00  0.00     0.099 A 
ATOM      6  C   UNL d   1     -50.016  24.434  33.563  0.00  0.00     0.019 A 
ATOM      7  C   UNL d   1     -51.408  23.550  33.338  0.00  0.00     0.021 A 
ATOM      8  C   UNL d   1     -50.002  23.626  33.529  0.00  0.00     0.002 A 
ATOM      9  C   UNL d   1     -50.692  23.188  33.418  0.00  0.00     0.002 A 
ENDROOT
BRANCH   2  10
ATOM     10  C   UNL d   1     -50.446  26.267  33.588  0.00  0.00     0.145 C 
BRANCH  10  11
ATOM     11  C   UNL d   1     -49.870  26.228  34.164  0.00  0.00     0.297 C 
ATOM     12  N   UNL d   1     -49.408  26.893  34.334  0.00  0.00    -0.207 NA
ATOM     13  O   UNL d   1     -49.736  25.526  34.591  0.00  0.00    -0.264 OA
BRANCH  12  14
ATOM     14  C   UNL d   1     -49.339  27.669  34.073  0.00  0.00     0.085 A 
ATOM     15  C   UNL d   1     -49.563  27.961  33.331  0.00  0.00     0.019 A 
ATOM     16  C   UNL d   1     -49.395  28.763  33.313  0.00  0.00     0.002 A 
ATOM     17  C   UNL d   1     -49.068  28.987  34.034  0.00  0.00     0.002 A 
ATOM     18  C   UNL d   1     -49.036  28.315  34.494  0.00  0.00     0.019 A 
ENDBRANCH  12  14
ENDBRANCH  10  11
ENDBRANCH   2  10
BRANCH   1  19
ATOM     19  C   UNL d   1     -52.224  26.393  33.357  0.00  0.00     0.184 A 
ATOM     20  C   UNL d   1     -53.047  26.445  33.327  0.00  0.00     0.235 A 
ATOM     21  N   UNL d   1     -53.250  27.249  33.306  0.00  0.00    -0.081 NA
ATOM     22  N   UNL d   1     -53.577  25.815  33.320  0.00  0.00    -0.123 N 
ATOM     23  O   UNL d   1     -52.552  27.689  33.323  0.00  0.00    -0.104 OA
ATOM     24  N   UNL d   1     -51.914  27.159  33.354  0.00  0.00    -0.097 NA
ENDBRANCH   1  19
TORSDOF 4
ENDMDL
