MODEL 1
REMARK VINA RESULT:      62.9      0.000      0.000
REMARK  6 active torsions:
REMARK  status: ('A' for Active; 'I' for Inactive)
REMARK       I    between atoms: C_2  and  N_1 
REMARK    1  A    between atoms: O_20  and  C_2 
REMARK       I    between atoms: C_5  and  N_3 
REMARK    2  A    between atoms: C_16  and  C_5 
REMARK    3  A    between atoms: C_9  and  C_7 
REMARK    4  A    between atoms: C_8  and  S_14 
REMARK    5  A    between atoms: S_14  and  C_16 
REMARK    6  A    between atoms: C_25  and  O_20 
ROOT
ATOM      1  C   UNL d   1     -49.013  28.126  35.053  0.00  0.00     0.098 C 
ENDROOT
BRANCH   1   2
ATOM      2  S   UNL d   1     -49.250  27.966  34.284  0.00  0.00    -0.061 SA
BRANCH   2   3
ATOM      3  C   UNL d   1     -49.734  27.318  34.122  0.00  0.00     0.133 A 
ATOM      4  N   UNL d   1     -50.382  27.153  34.595  0.00  0.00    -0.141 NA
ATOM      5  N   UNL d   1     -50.866  26.504  34.434  0.00  0.00    -0.148 NA
ATOM      6  C   UNL d   1     -50.698  26.012  33.788  0.00  0.00     0.104 A 
ATOM      7  C   UNL d   1     -50.045  26.176  33.309  0.00  0.00     0.023 A 
ATOM      8  C   UNL d   1     -49.564  26.823  33.473  0.00  0.00     0.029 A 
BRANCH   6   9
ATOM      9  C   UNL d   1     -51.182  25.363  33.627  0.00  0.00     0.039 A 
ATOM     10  C   UNL d   1     -51.989  25.461  33.592  0.00  0.00     0.101 A 
ATOM     11  N   UNL d   1     -52.473  24.821  33.432  0.00  0.00    -0.242 NA
ATOM     12  C   UNL d   1     -52.137  24.070  33.306  0.00  0.00     0.099 A 
ATOM     13  C   UNL d   1     -51.325  23.977  33.342  0.00  0.00     0.021 A 
ATOM     14  C   UNL d   1     -50.833  24.620  33.503  0.00  0.00     0.005 A 
ENDBRANCH   6   9
ENDBRANCH   2   3
ENDBRANCH   1   2
BRANCH   1  15
ATOM     15  C   UNL d   1     -48.298  28.520  35.186  0.00  0.00     0.272 C 
ATOM     16  N   UNL d   1     -48.235  29.322  35.016  0.00  0.00    -0.269 N 
ATOM     17  C   UNL d   1     -48.891  29.729  34.712  0.00  0.00     0.102 A 
ATOM     18  C   UNL d   1     -47.528  29.712  35.147  0.00  0.00     0.102 A 
ATOM     19  C   UNL d   1     -48.821  30.526  34.546  0.00  0.00     0.104 A 
ATOM     20  N   UNL d   1     -48.114  30.926  34.675  0.00  0.00    -0.249 N 
ATOM     21  C   UNL d   1     -48.040  31.725  34.509  0.00  0.00     0.378 C 
ATOM     22  C   UNL d   1     -47.462  30.517  34.978  0.00  0.00     0.104 A 
ATOM     23  O   UNL d   1     -48.693  32.134  34.206  0.00  0.00    -0.237 OA
ATOM     24  O   UNL d   1     -47.655  28.119  35.484  0.00  0.00    -0.266 OA
BRANCH  21  25
ATOM     25  O   UNL d   1     -47.330  32.117  34.641  0.00  0.00    -0.257 OA
BRANCH  25  26
ATOM     26  C   UNL d   1     -47.040  32.644  34.088  0.00  0.00     0.128 C 
ATOM     27  C   UNL d   1     -47.533  33.195  33.746  0.00  0.00     0.029 C 
ENDBRANCH  25  26
ENDBRANCH  21  25
ENDBRANCH   1  15
TORSDOF 6
ENDMDL
MODEL 2
REMARK VINA RESULT:      63.0      1.976      6.498
REMARK  6 active torsions:
REMARK  status: ('A' for Active; 'I' for Inactive)
REMARK       I    between atoms: C_2  and  N_1 
REMARK    1  A    between atoms: O_20  and  C_2 
REMARK       I    between atoms: C_5  and  N_3 
REMARK    2  A    between atoms: C_16  and  C_5 
REMARK    3  A    between atoms: C_9  and  C_7 
REMARK    4  A    between atoms: C_8  and  S_14 
REMARK    5  A    between atoms: S_14  and  C_16 
REMARK    6  A    between atoms: C_25  and  O_20 
ROOT
ATOM      1  C   UNL d   1     -49.302  27.239  34.394  0.00  0.00     0.098 C 
ENDROOT
BRANCH   1   2
ATOM      2  S   UNL d   1     -48.618  27.407  34.817  0.00  0.00    -0.061 SA
BRANCH   2   3
ATOM      3  C   UNL d   1     -48.359  28.186  34.899  0.00  0.00     0.133 A 
ATOM      4  N   UNL d   1     -47.652  28.427  34.565  0.00  0.00    -0.141 NA
ATOM      5  N   UNL d   1     -47.393  29.206  34.648  0.00  0.00    -0.148 NA
ATOM      6  C   UNL d   1     -47.849  29.753  35.072  0.00  0.00     0.104 A 
ATOM      7  C   UNL d   1     -48.564  29.512  35.410  0.00  0.00     0.023 A 
ATOM      8  C   UNL d   1     -48.820  28.735  35.326  0.00  0.00     0.029 A 
BRANCH   6   9
ATOM      9  C   UNL d   1     -47.590  30.532  35.154  0.00  0.00     0.039 A 
ATOM     10  C   UNL d   1     -47.112  30.734  35.781  0.00  0.00     0.101 A 
ATOM     11  N   UNL d   1     -46.853  31.505  35.867  0.00  0.00    -0.242 NA
ATOM     12  C   UNL d   1     -47.079  32.082  35.311  0.00  0.00     0.099 A 
ATOM     13  C   UNL d   1     -47.560  31.875  34.682  0.00  0.00     0.021 A 
ATOM     14  C   UNL d   1     -47.824  31.097  34.592  0.00  0.00     0.005 A 
ENDBRANCH   6   9
ENDBRANCH   2   3
ENDBRANCH   1   2
BRANCH   1  15
ATOM     15  C   UNL d   1     -49.335  26.559  33.925  0.00  0.00     0.272 C 
ATOM     16  N   UNL d   1     -50.030  26.121  33.888  0.00  0.00    -0.269 N 
ATOM     17  C   UNL d   1     -50.692  26.366  34.323  0.00  0.00     0.102 A 
ATOM     18  C   UNL d   1     -50.062  25.448  33.424  0.00  0.00     0.102 A 
ATOM     19  C   UNL d   1     -51.379  25.924  34.281  0.00  0.00     0.104 A 
ATOM     20  N   UNL d   1     -51.420  25.247  33.817  0.00  0.00    -0.249 N 
ATOM     21  C   UNL d   1     -52.108  24.803  33.772  0.00  0.00     0.378 C 
ATOM     22  C   UNL d   1     -50.758  25.006  33.384  0.00  0.00     0.104 A 
ATOM     23  O   UNL d   1     -52.770  25.044  34.205  0.00  0.00    -0.237 OA
ATOM     24  O   UNL d   1     -48.683  26.320  33.498  0.00  0.00    -0.266 OA
BRANCH  21  25
ATOM     25  O   UNL d   1     -52.140  24.127  33.306  0.00  0.00    -0.257 OA
BRANCH  25  26
ATOM     26  C   UNL d   1     -52.574  23.478  33.548  0.00  0.00     0.128 C 
ATOM     27  C   UNL d   1     -53.382  23.461  33.442  0.00  0.00     0.029 C 
ENDBRANCH  25  26
ENDBRANCH  21  25
ENDBRANCH   1  15
TORSDOF 6
ENDMDL
MODEL 3
REMARK VINA RESULT:      64.4      1.612      6.259
REMARK  6 active torsions:
REMARK  status: ('A' for Active; 'I' for Inactive)
REMARK       I    between atoms: C_2  and  N_1 
REMARK    1  A    between atoms: O_20  and  C_2 
REMARK       I    between atoms: C_5  and  N_3 
REMARK    2  A    between atoms: C_16  and  C_5 
REMARK    3  A    between atoms: C_9  and  C_7 
REMARK    4  A    between atoms: C_8  and  S_14 
REMARK    5  A    between atoms: S_14  and  C_16 
REMARK    6  A    between atoms: C_25  and  O_20 
ROOT
ATOM      1  C   UNL d   1     -48.666  28.588  35.203  0.00  0.00     0.098 C 
ENDROOT
BRANCH   1   2
ATOM      2  S   UNL d   1     -48.019  29.066  35.370  0.00  0.00    -0.061 SA
BRANCH   2   3
ATOM      3  C   UNL d   1     -47.982  29.835  35.075  0.00  0.00     0.133 A 
ATOM      4  N   UNL d   1     -47.557  30.413  35.470  0.00  0.00    -0.141 NA
ATOM      5  N   UNL d   1     -47.520  31.183  35.175  0.00  0.00    -0.148 NA
ATOM      6  C   UNL d   1     -47.914  31.378  34.472  0.00  0.00     0.104 A 
ATOM      7  C   UNL d   1     -48.343  30.796  34.070  0.00  0.00     0.023 A 
ATOM      8  C   UNL d   1     -48.379  30.029  34.368  0.00  0.00     0.029 A 
BRANCH   6   9
ATOM      9  C   UNL d   1     -47.876  32.147  34.176  0.00  0.00     0.039 A 
ATOM     10  C   UNL d   1     -47.171  32.435  33.889  0.00  0.00     0.101 A 
ATOM     11  N   UNL d   1     -47.129  33.197  33.595  0.00  0.00    -0.242 NA
ATOM     12  C   UNL d   1     -47.809  33.677  33.591  0.00  0.00     0.099 A 
ATOM     13  C   UNL d   1     -48.516  33.383  33.880  0.00  0.00     0.021 A 
ATOM     14  C   UNL d   1     -48.563  32.614  34.178  0.00  0.00     0.005 A 
ENDBRANCH   6   9
ENDBRANCH   2   3
ENDBRANCH   1   2
BRANCH   1  15
ATOM     15  C   UNL d   1     -48.544  27.818  34.929  0.00  0.00     0.272 C 
ATOM     16  N   UNL d   1     -49.171  27.394  34.607  0.00  0.00    -0.269 N 
ATOM     17  C   UNL d   1     -49.921  27.745  34.560  0.00  0.00     0.102 A 
ATOM     18  C   UNL d   1     -49.051  26.632  34.335  0.00  0.00     0.102 A 
ATOM     19  C   UNL d   1     -50.540  27.318  34.238  0.00  0.00     0.104 A 
ATOM     20  N   UNL d   1     -50.427  26.551  33.963  0.00  0.00    -0.249 N 
ATOM     21  C   UNL d   1     -51.044  26.120  33.640  0.00  0.00     0.378 C 
ATOM     22  C   UNL d   1     -49.677  26.204  34.011  0.00  0.00     0.104 A 
ATOM     23  O   UNL d   1     -51.794  26.467  33.592  0.00  0.00    -0.237 OA
ATOM     24  O   UNL d   1     -47.806  27.475  34.975  0.00  0.00    -0.266 OA
BRANCH  21  25
ATOM     25  O   UNL d   1     -50.923  25.354  33.367  0.00  0.00    -0.257 OA
BRANCH  25  26
ATOM     26  C   UNL d   1     -51.525  24.803  33.403  0.00  0.00     0.128 C 
ATOM     27  C   UNL d   1     -51.367  24.033  33.620  0.00  0.00     0.029 C 
ENDBRANCH  25  26
ENDBRANCH  21  25
ENDBRANCH   1  15
TORSDOF 6
ENDMDL
