MODEL 1
REMARK VINA RESULT:      97.0      0.000      0.000
REMARK  4 active torsions:
REMARK  status: ('A' for Active; 'I' for Inactive)
REMARK    1  A    between atoms: C_12  and  C_2 
REMARK       I    between atoms: C_3  and  N_8 
REMARK    2  A    between atoms: C_5  and  C_3 
REMARK    3  A    between atoms: C_9  and  C_4 
REMARK    4  A    between atoms: N_8  and  C_13 
ROOT
ATOM      1  C   UNL d   1      59.666  48.706  50.514  0.00  0.00     0.018 A 
ATOM      2  C   UNL d   1      58.205  49.358  50.908  0.00  0.00     0.085 A 
ATOM      3  C   UNL d   1      59.271  48.456  51.193  0.00  0.00     0.003 A 
ATOM      4  C   UNL d   1      59.333  49.288  50.023  0.00  0.00     0.003 A 
ATOM      5  C   UNL d   1      58.594  49.614  50.227  0.00  0.00     0.019 A 
ATOM      6  C   UNL d   1      58.545  48.778  51.390  0.00  0.00     0.019 A 
ENDROOT
BRANCH   1   7
ATOM      7  C   UNL d   1      60.406  48.377  50.314  0.00  0.00     0.088 A 
ATOM      8  N   UNL d   1      60.548  47.599  50.100  0.00  0.00    -0.239 NA
ATOM      9  C   UNL d   1      61.351  47.515  49.950  0.00  0.00     0.111 A 
ATOM     10  S   UNL d   1      61.711  48.249  50.074  0.00  0.00    -0.066 SA
ATOM     11  C   UNL d   1      61.125  48.777  50.298  0.00  0.00     0.056 A 
BRANCH   9  12
ATOM     12  C   UNL d   1      61.736  46.819  49.717  0.00  0.00     0.024 A 
ATOM     13  C   UNL d   1      62.520  46.849  49.463  0.00  0.00     0.002 A 
ATOM     14  C   UNL d   1      62.904  46.144  49.228  0.00  0.00     0.000 A 
ATOM     15  C   UNL d   1      62.499  45.426  49.252  0.00  0.00     0.000 A 
ATOM     16  C   UNL d   1      61.705  45.398  49.509  0.00  0.00     0.000 A 
ATOM     17  C   UNL d   1      61.328  46.092  49.740  0.00  0.00     0.002 A 
ENDBRANCH   9  12
ENDBRANCH   1   7
BRANCH   2  18
ATOM     18  N   UNL d   1      57.468  49.684  51.109  0.00  0.00    -0.208 NA
ATOM     19  C   UNL d   1      56.777  49.382  50.775  0.00  0.00     0.280 C 
ATOM     20  O   UNL d   1      56.040  49.708  50.975  0.00  0.00    -0.265 OA
BRANCH  19  21
ATOM     21  C   UNL d   1      56.813  48.747  50.234  0.00  0.00     0.069 A 
ATOM     22  C   UNL d   1      56.806  48.906  49.431  0.00  0.00     0.062 A 
ATOM     23 CL   UNL d   1      56.764  49.682  49.154  0.00  0.00    -0.082 Cl
ATOM     24  C   UNL d   1      56.841  48.282  48.897  0.00  0.00     0.012 A 
ATOM     25  C   UNL d   1      56.882  47.508  49.167  0.00  0.00     0.001 A 
ATOM     26  C   UNL d   1      56.889  47.358  49.972  0.00  0.00     0.000 A 
ATOM     27  C   UNL d   1      56.854  47.979  50.513  0.00  0.00     0.006 A 
ENDBRANCH  19  21
ENDBRANCH   2  18
TORSDOF 4
ENDMDL
