MODEL 1
REMARK VINA RESULT:      -3.6      0.000      0.000
REMARK  3 active torsions:
REMARK  status: ('A' for Active; 'I' for Inactive)
REMARK    1  A    between atoms: C_9  and  S_1 
REMARK    2  A    between atoms: S_2  and  C_8 
REMARK    3  A    between atoms: N_14  and  C_5 
ROOT
ATOM      1  C   UNL d   1      57.616  -0.585  31.134  0.00  0.00     0.021 A 
ATOM      2  C   UNL d   1      58.678  -0.405  30.313  0.00  0.00     0.021 A 
ATOM      3  C   UNL d   1      57.980  -0.848  30.469  0.00  0.00     0.111 A 
ATOM      4  C   UNL d   1      58.722   0.145  30.920  0.00  0.00     0.002 A 
ATOM      5  C   UNL d   1      58.089   0.065  31.441  0.00  0.00     0.002 A 
ATOM      6  C   UNL d   1      59.878   0.075  29.713  0.00  0.00     0.107 A 
ATOM      7  C   UNL d   1      56.724  -0.392  32.229  0.00  0.00     0.107 A 
ATOM      8  C   UNL d   1      59.231  -0.449  29.723  0.00  0.00     0.015 A 
ATOM      9  C   UNL d   1      56.941  -0.813  31.520  0.00  0.00     0.015 A 
ATOM     10  C   UNL d   1      57.866   0.453  32.117  0.00  0.00     0.001 A 
ATOM     11  C   UNL d   1      59.390   0.681  30.903  0.00  0.00     0.001 A 
ATOM     12  C   UNL d   1      57.187   0.233  32.516  0.00  0.00     0.013 A 
ATOM     13  C   UNL d   1      59.938   0.634  30.315  0.00  0.00     0.013 A 
ENDROOT
BRANCH   6  14
ATOM     14  S   UNL d   1      60.443   0.009  29.086  0.00  0.00     0.302 S 
ATOM     15  O   UNL d   1      60.870  -0.535  29.547  0.00  0.00    -0.197 OA
ATOM     16  O   UNL d   1      60.012   0.567  28.602  0.00  0.00    -0.197 OA
ATOM     17  N   UNL d   1      61.013  -0.059  28.456  0.00  0.00    -0.043 N 
ENDBRANCH   6  14
BRANCH   3  18
ATOM     18  N   UNL d   1      57.633  -1.509  30.026  0.00  0.00    -0.096 NA
ATOM     19  O   UNL d   1      57.983  -2.263  30.051  0.00  0.00    -0.061 OA
ENDBRANCH   3  18
BRANCH   7  20
ATOM     20  S   UNL d   1      55.996  -0.657  32.624  0.00  0.00     0.302 S 
ATOM     21  O   UNL d   1      55.717   0.149  32.536  0.00  0.00    -0.197 OA
ATOM     22  O   UNL d   1      56.316  -1.442  32.688  0.00  0.00    -0.197 OA
ATOM     23  N   UNL d   1      55.308  -0.880  32.990  0.00  0.00    -0.043 N 
ENDBRANCH   7  20
TORSDOF 3
ENDMDL
MODEL 2
REMARK VINA RESULT:      -3.5      0.483      4.166
REMARK  3 active torsions:
REMARK  status: ('A' for Active; 'I' for Inactive)
REMARK    1  A    between atoms: C_9  and  S_1 
REMARK    2  A    between atoms: S_2  and  C_8 
REMARK    3  A    between atoms: N_14  and  C_5 
ROOT
ATOM      1  C   UNL d   1      58.476  -0.220  30.515  0.00  0.00     0.021 A 
ATOM      2  C   UNL d   1      57.466  -0.204  31.418  0.00  0.00     0.021 A 
ATOM      3  C   UNL d   1      57.745  -0.508  30.684  0.00  0.00     0.111 A 
ATOM      4  C   UNL d   1      58.066   0.286  31.688  0.00  0.00     0.002 A 
ATOM      5  C   UNL d   1      58.699   0.301  31.162  0.00  0.00     0.002 A 
ATOM      6  C   UNL d   1      56.652   0.064  32.556  0.00  0.00     0.107 A 
ATOM      7  C   UNL d   1      59.730   0.076  29.905  0.00  0.00     0.107 A 
ATOM      8  C   UNL d   1      56.777  -0.320  31.828  0.00  0.00     0.015 A 
ATOM      9  C   UNL d   1      58.982  -0.333  29.893  0.00  0.00     0.015 A 
ATOM     10  C   UNL d   1      59.414   0.682  31.157  0.00  0.00     0.001 A 
ATOM     11  C   UNL d   1      57.929   0.678  32.439  0.00  0.00     0.001 A 
ATOM     12  C   UNL d   1      59.934   0.576  30.534  0.00  0.00     0.013 A 
ATOM     13  C   UNL d   1      57.244   0.561  32.844  0.00  0.00     0.013 A 
ENDROOT
BRANCH   6  14
ATOM     14  S   UNL d   1      55.925  -0.073  32.966  0.00  0.00     0.302 S 
ATOM     15  O   UNL d   1      56.256  -0.760  33.296  0.00  0.00    -0.197 OA
ATOM     16  O   UNL d   1      55.573   0.631  32.633  0.00  0.00    -0.197 OA
ATOM     17  N   UNL d   1      55.194  -0.213  33.381  0.00  0.00    -0.043 N 
ENDBRANCH   6  14
BRANCH   3  18
ATOM     18  N   UNL d   1      57.364  -1.056  30.131  0.00  0.00    -0.096 NA
ATOM     19  O   UNL d   1      57.391  -1.877  30.264  0.00  0.00    -0.061 OA
ENDBRANCH   3  18
BRANCH   7  20
ATOM     20  S   UNL d   1      60.254  -0.063  29.226  0.00  0.00     0.302 S 
ATOM     21  O   UNL d   1      60.525  -0.761  29.644  0.00  0.00    -0.197 OA
ATOM     22  O   UNL d   1      59.954   0.639  28.851  0.00  0.00    -0.197 OA
ATOM     23  N   UNL d   1      60.752  -0.214  28.605  0.00  0.00    -0.043 N 
ENDBRANCH   7  20
TORSDOF 3
ENDMDL
MODEL 3
REMARK VINA RESULT:      -2.5      1.334      4.365
REMARK  3 active torsions:
REMARK  status: ('A' for Active; 'I' for Inactive)
REMARK    1  A    between atoms: C_9  and  S_1 
REMARK    2  A    between atoms: S_2  and  C_8 
REMARK    3  A    between atoms: N_14  and  C_5 
ROOT
ATOM      1  C   UNL d   1      58.344  -0.535  30.658  0.00  0.00     0.021 A 
ATOM      2  C   UNL d   1      57.508  -0.176  31.661  0.00  0.00     0.021 A 
ATOM      3  C   UNL d   1      58.204   0.013  31.228  0.00  0.00     0.111 A 
ATOM      4  C   UNL d   1      57.229  -0.870  31.326  0.00  0.00     0.002 A 
ATOM      5  C   UNL d   1      57.714  -1.120  30.709  0.00  0.00     0.002 A 
ATOM      6  C   UNL d   1      56.439  -0.131  32.602  0.00  0.00     0.107 A 
ATOM      7  C   UNL d   1      58.891  -1.286  29.577  0.00  0.00     0.107 A 
ATOM      8  C   UNL d   1      57.135   0.192  32.280  0.00  0.00     0.015 A 
ATOM      9  C   UNL d   1      58.926  -0.614  30.100  0.00  0.00     0.015 A 
ATOM     10  C   UNL d   1      57.697  -1.752  30.203  0.00  0.00     0.001 A 
ATOM     11  C   UNL d   1      56.512  -1.197  31.664  0.00  0.00     0.001 A 
ATOM     12  C   UNL d   1      58.279  -1.844  29.635  0.00  0.00     0.013 A 
ATOM     13  C   UNL d   1      56.144  -0.829  32.277  0.00  0.00     0.013 A 
ENDROOT
BRANCH   6  14
ATOM     14  S   UNL d   1      56.068   0.271  33.248  0.00  0.00     0.302 S 
ATOM     15  O   UNL d   1      55.592   0.678  32.702  0.00  0.00    -0.197 OA
ATOM     16  O   UNL d   1      56.551  -0.142  33.819  0.00  0.00    -0.197 OA
ATOM     17  N   UNL d   1      55.692   0.677  33.896  0.00  0.00    -0.043 N 
ENDBRANCH   6  14
BRANCH   3  18
ATOM     18  N   UNL d   1      58.748   0.682  31.318  0.00  0.00    -0.096 NA
ATOM     19  O   UNL d   1      59.376   0.645  31.863  0.00  0.00    -0.061 OA
ENDBRANCH   3  18
BRANCH   7  20
ATOM     20  S   UNL d   1      59.527  -1.347  28.988  0.00  0.00     0.302 S 
ATOM     21  O   UNL d   1      59.927  -1.857  29.550  0.00  0.00    -0.197 OA
ATOM     22  O   UNL d   1      59.092  -0.838  28.465  0.00  0.00    -0.197 OA
ATOM     23  N   UNL d   1      60.133  -1.420  28.455  0.00  0.00    -0.043 N 
ENDBRANCH   7  20
TORSDOF 3
ENDMDL
MODEL 4
REMARK VINA RESULT:      -2.1      1.385      1.951
REMARK  3 active torsions:
REMARK  status: ('A' for Active; 'I' for Inactive)
REMARK    1  A    between atoms: C_9  and  S_1 
REMARK    2  A    between atoms: S_2  and  C_8 
REMARK    3  A    between atoms: N_14  and  C_5 
ROOT
ATOM      1  C   UNL d   1      57.307  -0.225  31.989  0.00  0.00     0.021 A 
ATOM      2  C   UNL d   1      58.099  -0.473  30.919  0.00  0.00     0.021 A 
ATOM      3  C   UNL d   1      57.966   0.010  31.595  0.00  0.00     0.111 A 
ATOM      4  C   UNL d   1      57.484  -1.016  30.920  0.00  0.00     0.002 A 
ATOM      5  C   UNL d   1      56.980  -0.895  31.560  0.00  0.00     0.002 A 
ATOM      6  C   UNL d   1      58.663  -1.025  29.733  0.00  0.00     0.107 A 
ATOM      7  C   UNL d   1      56.232  -0.354  32.916  0.00  0.00     0.107 A 
ATOM      8  C   UNL d   1      58.676  -0.466  30.350  0.00  0.00     0.015 A 
ATOM      9  C   UNL d   1      56.940   0.045  32.659  0.00  0.00     0.015 A 
ATOM     10  C   UNL d   1      56.306  -1.262  31.819  0.00  0.00     0.001 A 
ATOM     11  C   UNL d   1      57.479  -1.588  30.281  0.00  0.00     0.001 A 
ATOM     12  C   UNL d   1      55.926  -0.999  32.495  0.00  0.00     0.013 A 
ATOM     13  C   UNL d   1      58.053  -1.579  29.718  0.00  0.00     0.013 A 
ENDROOT
BRANCH   6  14
ATOM     14  S   UNL d   1      59.277  -0.998  29.150  0.00  0.00     0.302 S 
ATOM     15  O   UNL d   1      58.796  -0.504  28.687  0.00  0.00    -0.197 OA
ATOM     16  O   UNL d   1      59.781  -1.506  29.618  0.00  0.00    -0.197 OA
ATOM     17  N   UNL d   1      59.893  -0.970  28.563  0.00  0.00    -0.043 N 
ENDBRANCH   6  14
BRANCH   3  18
ATOM     18  N   UNL d   1      58.425   0.682  31.894  0.00  0.00    -0.096 NA
ATOM     19  O   UNL d   1      59.134   0.557  32.311  0.00  0.00    -0.061 OA
ENDBRANCH   3  18
BRANCH   7  20
ATOM     20  S   UNL d   1      55.858  -0.045  33.638  0.00  0.00     0.302 S 
ATOM     21  O   UNL d   1      55.344   0.402  33.117  0.00  0.00    -0.197 OA
ATOM     22  O   UNL d   1      56.391  -0.507  34.112  0.00  0.00    -0.197 OA
ATOM     23  N   UNL d   1      55.493   0.258  34.295  0.00  0.00    -0.043 N 
ENDBRANCH   7  20
TORSDOF 3
ENDMDL
MODEL 5
REMARK VINA RESULT:      -1.7      1.511      4.481
REMARK  3 active torsions:
REMARK  status: ('A' for Active; 'I' for Inactive)
REMARK    1  A    between atoms: C_9  and  S_1 
REMARK    2  A    between atoms: S_2  and  C_8 
REMARK    3  A    between atoms: N_14  and  C_5 
ROOT
ATOM      1  C   UNL d   1      57.089  -0.563  31.670  0.00  0.00     0.021 A 
ATOM      2  C   UNL d   1      56.451  -0.325  32.840  0.00  0.00     0.021 A 
ATOM      3  C   UNL d   1      56.459  -0.767  32.124  0.00  0.00     0.111 A 
ATOM      4  C   UNL d   1      57.111   0.160  32.800  0.00  0.00     0.002 A 
ATOM      5  C   UNL d   1      57.525   0.042  32.098  0.00  0.00     0.002 A 
ATOM      6  C   UNL d   1      56.080   0.187  34.117  0.00  0.00     0.107 A 
ATOM      7  C   UNL d   1      58.059  -0.462  30.630  0.00  0.00     0.107 A 
ATOM      8  C   UNL d   1      55.944  -0.322  33.472  0.00  0.00     0.015 A 
ATOM      9  C   UNL d   1      57.350  -0.815  30.945  0.00  0.00     0.015 A 
ATOM     10  C   UNL d   1      58.198   0.366  31.783  0.00  0.00     0.001 A 
ATOM     11  C   UNL d   1      57.244   0.681  33.467  0.00  0.00     0.001 A 
ATOM     12  C   UNL d   1      58.472   0.121  31.052  0.00  0.00     0.013 A 
ATOM     13  C   UNL d   1      56.739   0.682  34.093  0.00  0.00     0.013 A 
ENDROOT
BRANCH   6  14
ATOM     14  S   UNL d   1      55.536   0.172  34.766  0.00  0.00     0.302 S 
ATOM     15  O   UNL d   1      56.169  -0.010  35.273  0.00  0.00    -0.197 OA
ATOM     16  O   UNL d   1      54.878   0.359  34.254  0.00  0.00    -0.197 OA
ATOM     17  N   UNL d   1      54.992   0.157  35.421  0.00  0.00    -0.043 N 
ENDBRANCH   6  14
BRANCH   3  18
ATOM     18  N   UNL d   1      55.906  -1.372  31.840  0.00  0.00    -0.096 NA
ATOM     19  O   UNL d   1      55.846  -2.105  32.230  0.00  0.00    -0.061 OA
ENDBRANCH   3  18
BRANCH   7  20
ATOM     20  S   UNL d   1      58.317  -0.750  29.852  0.00  0.00     0.302 S 
ATOM     21  O   UNL d   1      57.969  -0.035  29.531  0.00  0.00    -0.197 OA
ATOM     22  O   UNL d   1      58.648  -1.442  30.217  0.00  0.00    -0.197 OA
ATOM     23  N   UNL d   1      58.548  -0.996  29.115  0.00  0.00    -0.043 N 
ENDBRANCH   7  20
TORSDOF 3
ENDMDL
MODEL 6
REMARK VINA RESULT:      -1.1      1.550      2.327
REMARK  3 active torsions:
REMARK  status: ('A' for Active; 'I' for Inactive)
REMARK    1  A    between atoms: C_9  and  S_1 
REMARK    2  A    between atoms: S_2  and  C_8 
REMARK    3  A    between atoms: N_14  and  C_5 
ROOT
ATOM      1  C   UNL d   1      56.335  -0.460  32.873  0.00  0.00     0.021 A 
ATOM      2  C   UNL d   1      57.003  -0.669  31.714  0.00  0.00     0.021 A 
ATOM      3  C   UNL d   1      56.374  -0.918  32.214  0.00  0.00     0.111 A 
ATOM      4  C   UNL d   1      57.348  -0.034  32.102  0.00  0.00     0.002 A 
ATOM      5  C   UNL d   1      56.966   0.123  32.815  0.00  0.00     0.002 A 
ATOM      6  C   UNL d   1      57.919  -0.577  30.626  0.00  0.00     0.107 A 
ATOM      7  C   UNL d   1      55.975   0.122  34.123  0.00  0.00     0.107 A 
ATOM      8  C   UNL d   1      57.271  -0.941  30.999  0.00  0.00     0.015 A 
ATOM      9  C   UNL d   1      55.844  -0.463  33.518  0.00  0.00     0.015 A 
ATOM     10  C   UNL d   1      57.074   0.672  33.401  0.00  0.00     0.001 A 
ATOM     11  C   UNL d   1      58.015   0.336  31.712  0.00  0.00     0.001 A 
ATOM     12  C   UNL d   1      56.586   0.679  34.056  0.00  0.00     0.013 A 
ATOM     13  C   UNL d   1      58.278   0.064  31.003  0.00  0.00     0.013 A 
ENDROOT
BRANCH   6  14
ATOM     14  S   UNL d   1      58.180  -0.879  29.880  0.00  0.00     0.302 S 
ATOM     15  O   UNL d   1      58.210  -1.639  30.214  0.00  0.00    -0.197 OA
ATOM     16  O   UNL d   1      58.154  -0.102  29.525  0.00  0.00    -0.197 OA
ATOM     17  N   UNL d   1      58.443  -1.186  29.130  0.00  0.00    -0.043 N 
ENDBRANCH   6  14
BRANCH   3  18
ATOM     18  N   UNL d   1      55.805  -1.563  32.109  0.00  0.00    -0.096 NA
ATOM     19  O   UNL d   1      55.967  -2.322  32.410  0.00  0.00    -0.061 OA
ENDBRANCH   3  18
BRANCH   7  20
ATOM     20  S   UNL d   1      55.435   0.097  34.804  0.00  0.00     0.302 S 
ATOM     21  O   UNL d   1      54.807   0.266  34.245  0.00  0.00    -0.197 OA
ATOM     22  O   UNL d   1      56.091  -0.068  35.318  0.00  0.00    -0.197 OA
ATOM     23  N   UNL d   1      54.911   0.079  35.422  0.00  0.00    -0.043 N 
ENDBRANCH   7  20
TORSDOF 3
ENDMDL
