MODEL 1
REMARK VINA RESULT:      -9.2      0.000      0.000
REMARK  3 active torsions:
REMARK  status: ('A' for Active; 'I' for Inactive)
REMARK    1  A    between atoms: C_8  and  C_1 
REMARK    2  A    between atoms: C_9  and  C_8 
REMARK    3  A    between atoms: O_16  and  C_13 
ROOT
ATOM      1  C   UNL d   1      53.950  33.315  54.415  0.00  0.00     0.013 A 
ATOM      2  C   UNL d   1      53.035  32.852  53.408  0.00  0.00     0.105 A 
ATOM      3  O   UNL d   1      52.755  33.614  53.317  0.00  0.00    -0.273 OA
ATOM      4  C   UNL d   1      53.641  32.694  53.963  0.00  0.00     0.023 A 
ATOM      5  C   UNL d   1      53.066  34.230  53.771  0.00  0.00     0.300 A 
ATOM      6  C   UNL d   1      53.662  34.079  54.318  0.00  0.00     0.069 A 
ATOM      7  C   UNL d   1      52.731  32.242  52.963  0.00  0.00     0.049 A 
ATOM      8  C   UNL d   1      53.925  31.932  54.057  0.00  0.00     0.004 A 
ATOM      9  O   UNL d   1      52.771  35.009  53.670  0.00  0.00    -0.259 OA
ATOM     10  C   UNL d   1      53.018  31.466  53.056  0.00  0.00     0.096 A 
ATOM     11  C   UNL d   1      53.612  31.313  53.600  0.00  0.00     0.024 A 
ENDROOT
BRANCH   1  12
ATOM     12  C   UNL d   1      54.547  33.155  54.961  0.00  0.00     0.070 C 
BRANCH  12  13
ATOM     13  C   UNL d   1      54.980  33.783  55.281  0.00  0.00     0.211 C 
ATOM     14  O   UNL d   1      54.724  34.145  55.987  0.00  0.00    -0.644 OA
ATOM     15  O   UNL d   1      55.663  34.054  54.907  0.00  0.00    -0.644 OA
ENDBRANCH  12  13
ENDBRANCH   1  12
BRANCH  10  16
ATOM     16  O   UNL d   1      52.705  30.853  52.602  0.00  0.00    -0.328 OA
ATOM     17  C   UNL d   1      52.644  30.091  52.921  0.00  0.00     0.181 C 
ENDBRANCH  10  16
TORSDOF 3
ENDMDL
MODEL 2
REMARK VINA RESULT:      -9.1      0.872      1.911
REMARK  3 active torsions:
REMARK  status: ('A' for Active; 'I' for Inactive)
REMARK    1  A    between atoms: C_8  and  C_1 
REMARK    2  A    between atoms: C_9  and  C_8 
REMARK    3  A    between atoms: O_16  and  C_13 
ROOT
ATOM      1  C   UNL d   1      53.422  33.956  54.290  0.00  0.00     0.013 A 
ATOM      2  C   UNL d   1      53.820  32.612  53.971  0.00  0.00     0.105 A 
ATOM      3  O   UNL d   1      54.457  32.685  54.476  0.00  0.00    -0.273 OA
ATOM      4  C   UNL d   1      53.291  33.253  53.873  0.00  0.00     0.023 A 
ATOM      5  C   UNL d   1      54.584  33.388  54.891  0.00  0.00     0.300 A 
ATOM      6  C   UNL d   1      54.067  34.021  54.797  0.00  0.00     0.069 A 
ATOM      7  C   UNL d   1      53.691  31.921  53.561  0.00  0.00     0.049 A 
ATOM      8  C   UNL d   1      52.651  33.185  53.367  0.00  0.00     0.004 A 
ATOM      9  O   UNL d   1      55.242  33.452  55.407  0.00  0.00    -0.259 OA
ATOM     10  C   UNL d   1      53.040  31.849  53.047  0.00  0.00     0.096 A 
ATOM     11  C   UNL d   1      52.524  32.478  52.951  0.00  0.00     0.024 A 
ENDROOT
BRANCH   1  12
ATOM     12  C   UNL d   1      52.899  34.586  54.190  0.00  0.00     0.070 C 
BRANCH  12  13
ATOM     13  C   UNL d   1      53.074  35.315  54.539  0.00  0.00     0.211 C 
ATOM     14  O   UNL d   1      53.494  35.892  54.106  0.00  0.00    -0.644 OA
ATOM     15  O   UNL d   1      52.836  35.477  55.312  0.00  0.00    -0.644 OA
ENDBRANCH  12  13
ENDBRANCH   1  12
BRANCH  10  16
ATOM     16  O   UNL d   1      52.917  31.146  52.635  0.00  0.00    -0.328 OA
ATOM     17  C   UNL d   1      52.652  30.471  53.037  0.00  0.00     0.181 C 
ENDBRANCH  10  16
TORSDOF 3
ENDMDL
MODEL 3
REMARK VINA RESULT:      -9.0      1.222      2.414
REMARK  3 active torsions:
REMARK  status: ('A' for Active; 'I' for Inactive)
REMARK    1  A    between atoms: C_8  and  C_1 
REMARK    2  A    between atoms: C_9  and  C_8 
REMARK    3  A    between atoms: O_16  and  C_13 
ROOT
ATOM      1  C   UNL d   1      53.657  33.278  54.231  0.00  0.00     0.013 A 
ATOM      2  C   UNL d   1      52.689  32.990  53.208  0.00  0.00     0.105 A 
ATOM      3  O   UNL d   1      52.990  32.234  53.141  0.00  0.00    -0.273 OA
ATOM      4  C   UNL d   1      53.023  33.524  53.759  0.00  0.00     0.023 A 
ATOM      5  C   UNL d   1      53.622  31.993  53.614  0.00  0.00     0.300 A 
ATOM      6  C   UNL d   1      53.954  32.515  54.157  0.00  0.00     0.069 A 
ATOM      7  C   UNL d   1      52.066  33.232  52.744  0.00  0.00     0.049 A 
ATOM      8  C   UNL d   1      52.724  34.284  53.829  0.00  0.00     0.004 A 
ATOM      9  O   UNL d   1      53.924  31.213  53.538  0.00  0.00    -0.259 OA
ATOM     10  C   UNL d   1      51.760  34.003  52.813  0.00  0.00     0.096 A 
ATOM     11  C   UNL d   1      52.088  34.525  53.353  0.00  0.00     0.024 A 
ENDROOT
BRANCH   1  12
ATOM     12  C   UNL d   1      53.983  33.808  54.772  0.00  0.00     0.070 C 
BRANCH  12  13
ATOM     13  C   UNL d   1      54.661  33.589  55.193  0.00  0.00     0.211 C 
ATOM     14  O   UNL d   1      55.410  33.850  54.935  0.00  0.00    -0.644 OA
ATOM     15  O   UNL d   1      54.603  33.114  55.864  0.00  0.00    -0.644 OA
ENDBRANCH  12  13
ENDBRANCH   1  12
BRANCH  10  16
ATOM     16  O   UNL d   1      51.129  34.241  52.339  0.00  0.00    -0.328 OA
ATOM     17  C   UNL d   1      50.375  34.335  52.670  0.00  0.00     0.181 C 
ENDBRANCH  10  16
TORSDOF 3
ENDMDL
MODEL 4
REMARK VINA RESULT:      -8.9      1.157      3.390
REMARK  3 active torsions:
REMARK  status: ('A' for Active; 'I' for Inactive)
REMARK    1  A    between atoms: C_8  and  C_1 
REMARK    2  A    between atoms: C_9  and  C_8 
REMARK    3  A    between atoms: O_16  and  C_13 
ROOT
ATOM      1  C   UNL d   1      52.322  33.317  53.358  0.00  0.00     0.013 A 
ATOM      2  C   UNL d   1      53.480  32.677  53.920  0.00  0.00     0.105 A 
ATOM      3  O   UNL d   1      53.342  32.023  53.451  0.00  0.00    -0.273 OA
ATOM      4  C   UNL d   1      52.967  33.336  53.877  0.00  0.00     0.023 A 
ATOM      5  C   UNL d   1      52.698  32.008  52.935  0.00  0.00     0.300 A 
ATOM      6  C   UNL d   1      52.190  32.654  52.890  0.00  0.00     0.069 A 
ATOM      7  C   UNL d   1      54.114  32.697  54.430  0.00  0.00     0.049 A 
ATOM      8  C   UNL d   1      53.102  33.995  54.345  0.00  0.00     0.004 A 
ATOM      9  O   UNL d   1      52.564  31.330  52.458  0.00  0.00    -0.259 OA
ATOM     10  C   UNL d   1      54.253  33.365  54.907  0.00  0.00     0.096 A 
ATOM     11  C   UNL d   1      53.750  34.009  54.864  0.00  0.00     0.024 A 
ENDROOT
BRANCH   1  12
ATOM     12  C   UNL d   1      51.819  33.968  53.319  0.00  0.00     0.070 C 
BRANCH  12  13
ATOM     13  C   UNL d   1      51.229  33.989  52.739  0.00  0.00     0.211 C 
ATOM     14  O   UNL d   1      50.454  33.745  52.928  0.00  0.00    -0.644 OA
ATOM     15  O   UNL d   1      51.401  34.248  51.975  0.00  0.00    -0.644 OA
ENDBRANCH  12  13
ENDBRANCH   1  12
BRANCH  10  16
ATOM     16  O   UNL d   1      54.898  33.377  55.422  0.00  0.00    -0.328 OA
ATOM     17  C   UNL d   1      55.518  33.912  55.297  0.00  0.00     0.181 C 
ENDBRANCH  10  16
TORSDOF 3
ENDMDL
MODEL 5
REMARK VINA RESULT:      -8.5      0.683      3.207
REMARK  3 active torsions:
REMARK  status: ('A' for Active; 'I' for Inactive)
REMARK    1  A    between atoms: C_8  and  C_1 
REMARK    2  A    between atoms: C_9  and  C_8 
REMARK    3  A    between atoms: O_16  and  C_13 
ROOT
ATOM      1  C   UNL d   1      53.010  32.037  53.366  0.00  0.00     0.013 A 
ATOM      2  C   UNL d   1      53.211  33.376  53.849  0.00  0.00     0.105 A 
ATOM      3  O   UNL d   1      52.610  33.638  53.361  0.00  0.00    -0.273 OA
ATOM      4  C   UNL d   1      53.418  32.565  53.856  0.00  0.00     0.023 A 
ATOM      5  C   UNL d   1      52.206  33.108  52.874  0.00  0.00     0.300 A 
ATOM      6  C   UNL d   1      52.407  32.309  52.877  0.00  0.00     0.069 A 
ATOM      7  C   UNL d   1      53.612  33.895  54.331  0.00  0.00     0.049 A 
ATOM      8  C   UNL d   1      54.019  32.298  54.344  0.00  0.00     0.004 A 
ATOM      9  O   UNL d   1      51.591  33.388  52.376  0.00  0.00    -0.259 OA
ATOM     10  C   UNL d   1      54.223  33.625  54.828  0.00  0.00     0.096 A 
ATOM     11  C   UNL d   1      54.425  32.831  54.833  0.00  0.00     0.024 A 
ENDROOT
BRANCH   1  12
ATOM     12  C   UNL d   1      53.217  31.239  53.376  0.00  0.00     0.070 C 
BRANCH  12  13
ATOM     13  C   UNL d   1      52.775  30.702  52.928  0.00  0.00     0.211 C 
ATOM     14  O   UNL d   1      52.120  30.316  53.272  0.00  0.00    -0.644 OA
ATOM     15  O   UNL d   1      52.976  30.544  52.144  0.00  0.00    -0.644 OA
ENDBRANCH  12  13
ENDBRANCH   1  12
BRANCH  10  16
ATOM     16  O   UNL d   1      54.624  34.158  55.313  0.00  0.00    -0.328 OA
ATOM     17  C   UNL d   1      55.451  34.132  55.362  0.00  0.00     0.181 C 
ENDBRANCH  10  16
TORSDOF 3
ENDMDL
MODEL 6
REMARK VINA RESULT:      -8.2      1.271      3.005
REMARK  3 active torsions:
REMARK  status: ('A' for Active; 'I' for Inactive)
REMARK    1  A    between atoms: C_8  and  C_1 
REMARK    2  A    between atoms: C_9  and  C_8 
REMARK    3  A    between atoms: O_16  and  C_13 
ROOT
ATOM      1  C   UNL d   1      53.307  32.024  53.666  0.00  0.00     0.013 A 
ATOM      2  C   UNL d   1      52.887  33.377  53.911  0.00  0.00     0.105 A 
ATOM      3  O   UNL d   1      53.447  33.439  54.503  0.00  0.00    -0.273 OA
ATOM      4  C   UNL d   1      52.812  32.662  53.483  0.00  0.00     0.023 A 
ATOM      5  C   UNL d   1      53.939  32.800  54.682  0.00  0.00     0.300 A 
ATOM      6  C   UNL d   1      53.868  32.095  54.263  0.00  0.00     0.069 A 
ATOM      7  C   UNL d   1      52.400  34.003  53.732  0.00  0.00     0.049 A 
ATOM      8  C   UNL d   1      52.252  32.595  52.889  0.00  0.00     0.004 A 
ATOM      9  O   UNL d   1      54.510  32.875  55.292  0.00  0.00    -0.259 OA
ATOM     10  C   UNL d   1      51.830  33.938  53.128  0.00  0.00     0.096 A 
ATOM     11  C   UNL d   1      51.758  33.237  52.710  0.00  0.00     0.024 A 
ENDROOT
BRANCH   1  12
ATOM     12  C   UNL d   1      53.230  31.322  53.241  0.00  0.00     0.070 C 
BRANCH  12  13
ATOM     13  C   UNL d   1      53.577  30.631  53.537  0.00  0.00     0.211 C 
ATOM     14  O   UNL d   1      54.338  30.407  53.278  0.00  0.00    -0.644 OA
ATOM     15  O   UNL d   1      53.178  30.163  54.086  0.00  0.00    -0.644 OA
ENDBRANCH  12  13
ENDBRANCH   1  12
BRANCH  10  16
ATOM     16  O   UNL d   1      51.341  34.577  52.953  0.00  0.00    -0.328 OA
ATOM     17  C   UNL d   1      50.531  34.457  52.826  0.00  0.00     0.181 C 
ENDBRANCH  10  16
TORSDOF 3
ENDMDL
