MODEL 1
REMARK VINA RESULT:      15.6      0.000      0.000
REMARK  1 active torsions:
REMARK  status: ('A' for Active; 'I' for Inactive)
REMARK    1  A    between atoms: N_11  and  C_7 
ROOT
ATOM      1  C   UNL d   1      58.952  49.673  51.082  0.00  0.00     0.201 A 
ATOM      2  C   UNL d   1      58.803  49.686  50.268  0.00  0.00     0.141 A 
ATOM      3  N   UNL d   1      59.727  49.673  51.359  0.00  0.00    -0.036 NA
ATOM      4  C   UNL d   1      57.987  49.683  50.151  0.00  0.00     0.040 A 
ATOM      5  N   UNL d   1      58.224  49.663  51.470  0.00  0.00    -0.225 NA
ATOM      6  N   UNL d   1      59.434  49.698  49.726  0.00  0.00    -0.129 NA
ATOM      7  C   UNL d   1      60.360  49.684  50.824  0.00  0.00     0.788 A 
ATOM      8  C   UNL d   1      57.629  49.669  50.893  0.00  0.00     0.085 A 
ATOM      9  N   UNL d   1      60.211  49.697  50.013  0.00  0.00     0.048 NA
ATOM     10  C   UNL d   1      57.525  49.692  49.471  0.00  0.00     0.003 A 
ATOM     11  C   UNL d   1      56.806  49.664  50.962  0.00  0.00     0.019 A 
ATOM     12  C   UNL d   1      56.706  49.687  49.533  0.00  0.00     0.000 A 
ATOM     13  C   UNL d   1      56.344  49.673  50.282  0.00  0.00     0.002 A 
ATOM     14  C   UNL d   1      56.232  49.695  48.848  0.00  0.00     0.000 C 
ENDROOT
BRANCH   7  15
ATOM     15  N   UNL d   1      61.136  49.684  51.111  0.00  0.00     0.069 NA
ATOM     16  N   UNL d   1      61.363  49.697  51.903  0.00  0.00    -0.006 N 
ENDBRANCH   7  15
TORSDOF 1
ENDMDL
