MODEL 1
REMARK VINA RESULT:      31.4      0.000      0.000
REMARK  4 active torsions:
REMARK  status: ('A' for Active; 'I' for Inactive)
REMARK    1  A    between atoms: S_10  and  C_3 
REMARK    2  A    between atoms: C_11  and  C_7 
REMARK    3  A    between atoms: C_13  and  S_10 
REMARK    4  A    between atoms: C_15  and  C_13 
ROOT
ATOM      1  N   UNL d   1      14.400  13.008  -1.251  0.00  0.00    -0.186 N 
ATOM      2  N   UNL d   1      14.175  13.034  -2.038  0.00  0.00    -0.162 NA
ATOM      3  C   UNL d   1      14.863  13.519  -0.790  0.00  0.00     0.217 A 
ATOM      4  C   UNL d   1      14.159  12.385  -0.764  0.00  0.00     0.187 A 
ATOM      5  N   UNL d   1      14.900  13.207  -0.033  0.00  0.00    -0.120 NA
ATOM      6  N   UNL d   1      14.464  12.504  -0.014  0.00  0.00    -0.127 NA
ATOM      7  C   UNL d   1      13.700  12.429  -2.347  0.00  0.00     0.102 A 
ATOM      8  C   UNL d   1      13.682  11.779  -1.077  0.00  0.00     0.042 A 
ATOM      9  C   UNL d   1      13.456  11.803  -1.862  0.00  0.00     0.024 A 
ENDROOT
BRANCH   3  10
ATOM     10  S   UNL d   1      15.230  14.220  -1.031  0.00  0.00    -0.046 SA
BRANCH  10  11
ATOM     11  C   UNL d   1      15.348  14.829  -0.501  0.00  0.00     0.038 C 
BRANCH  11  12
ATOM     12  C   UNL d   1      15.327  15.606  -0.756  0.00  0.00     0.007 A 
ATOM     13  C   UNL d   1      15.555  16.227  -0.257  0.00  0.00     0.003 A 
ATOM     14  C   UNL d   1      15.530  17.014  -0.524  0.00  0.00     0.030 A 
ATOM     15  C   UNL d   1      15.278  17.171  -1.287  0.00  0.00     0.140 A 
ATOM     16  C   UNL d   1      15.047  16.570  -1.798  0.00  0.00     0.030 A 
ATOM     17  F   UNL d   1      15.255  17.955  -1.550  0.00  0.00    -0.204 F 
ATOM     18  C   UNL d   1      15.072  15.783  -1.531  0.00  0.00     0.003 A 
ENDBRANCH  11  12
ENDBRANCH  10  11
ENDBRANCH   3  10
BRANCH   7  19
ATOM     19  C   UNL d   1      13.470  12.451  -3.141  0.00  0.00     0.022 A 
ATOM     20  C   UNL d   1      13.165  13.139  -3.457  0.00  0.00     0.022 A 
ATOM     21  C   UNL d   1      12.931  13.179  -4.245  0.00  0.00     0.099 A 
ATOM     22  N   UNL d   1      13.014  12.486  -4.724  0.00  0.00    -0.242 NA
ATOM     23  C   UNL d   1      13.320  11.796  -4.404  0.00  0.00     0.099 A 
ATOM     24  C   UNL d   1      13.548  11.779  -3.613  0.00  0.00     0.022 A 
ENDBRANCH   7  19
TORSDOF 4
ENDMDL
