MODEL 1
REMARK VINA RESULT:     109.9      0.000      0.000
REMARK  8 active torsions:
REMARK  status: ('A' for Active; 'I' for Inactive)
REMARK    1  A    between atoms: N_10  and  C_1 
REMARK    2  A    between atoms: C_20  and  N_2 
REMARK    3  A    between atoms: C_4  and  S_13 
REMARK       I    between atoms: C_14  and  N_10 
REMARK       I    between atoms: C_12  and  N_18 
REMARK    4  A    between atoms: C_16  and  C_12 
REMARK    5  A    between atoms: S_13  and  C_19 
REMARK    6  A    between atoms: C_19  and  C_14 
REMARK    7  A    between atoms: N_18  and  C_22 
REMARK    8  A    between atoms: C_22  and  C_20 
ROOT
ATOM      1  N   UNL d   1      59.683  49.302  50.470  0.00  0.00    -0.302 N 
ATOM      2  C   UNL d   1      58.392  49.569  50.249  0.00  0.00     0.049 A 
ATOM      3  C   UNL d   1      59.103  49.403  49.877  0.00  0.00     0.087 A 
ATOM      4  C   UNL d   1      58.519  49.573  51.069  0.00  0.00     0.024 A 
ATOM      5  C   UNL d   1      59.316  49.408  51.201  0.00  0.00     0.065 A 
ATOM      6  C   UNL d   1      58.011  49.705  51.697  0.00  0.00     0.002 A 
ATOM      7  C   UNL d   1      59.598  49.378  51.968  0.00  0.00     0.018 A 
ATOM      8  C   UNL d   1      58.299  49.673  52.468  0.00  0.00     0.000 A 
ATOM      9  C   UNL d   1      59.093  49.510  52.607  0.00  0.00     0.002 A 
ENDROOT
BRANCH   1  10
ATOM     10  C   UNL d   1      60.477  49.129  50.353  0.00  0.00     0.101 C 
BRANCH  10  11
ATOM     11  C   UNL d   1      60.693  48.450  49.941  0.00  0.00     0.121 C 
BRANCH  11  12
ATOM     12  N   UNL d   1      60.651  47.711  50.316  0.00  0.00    -0.205 NA
ATOM     13  C   UNL d   1      61.147  47.096  50.072  0.00  0.00     0.279 C 
ATOM     14  O   UNL d   1      61.684  47.220  49.453  0.00  0.00    -0.265 OA
BRANCH  13  15
ATOM     15  C   UNL d   1      61.103  46.366  50.444  0.00  0.00     0.058 A 
ATOM     16  C   UNL d   1      60.765  46.297  51.174  0.00  0.00     0.005 A 
ATOM     17  C   UNL d   1      60.714  45.572  51.561  0.00  0.00     0.000 A 
ATOM     18  C   UNL d   1      61.013  44.895  51.196  0.00  0.00     0.000 A 
ATOM     19  C   UNL d   1      61.362  44.955  50.446  0.00  0.00     0.000 A 
ATOM     20  C   UNL d   1      61.406  45.691  50.071  0.00  0.00     0.005 A 
ENDBRANCH  13  15
ENDBRANCH  11  12
ENDBRANCH  10  11
ENDBRANCH   1  10
BRANCH   2  21
ATOM     21  S   UNL d   1      57.670  49.708  49.875  0.00  0.00    -0.080 SA
BRANCH  21  22
ATOM     22  C   UNL d   1      57.397  49.177  49.309  0.00  0.00     0.098 C 
BRANCH  22  23
ATOM     23  C   UNL d   1      57.161  48.413  49.533  0.00  0.00     0.288 C 
ATOM     24  N   UNL d   1      57.002  47.853  48.957  0.00  0.00    -0.181 NA
ATOM     25  O   UNL d   1      57.091  48.225  50.329  0.00  0.00    -0.265 OA
BRANCH  24  26
ATOM     26  C   UNL d   1      56.766  47.086  49.172  0.00  0.00     0.219 A 
ATOM     27  S   UNL d   1      57.203  46.545  49.604  0.00  0.00    -0.026 SA
ATOM     28  C   UNL d   1      56.749  45.860  49.684  0.00  0.00     0.135 A 
ATOM     29  C   UNL d   1      56.977  45.173  50.081  0.00  0.00     0.030 C 
ATOM     30  N   UNL d   1      56.037  45.968  49.306  0.00  0.00    -0.139 NA
ATOM     31  N   UNL d   1      56.039  46.728  48.986  0.00  0.00    -0.121 NA
ENDBRANCH  24  26
ENDBRANCH  22  23
ENDBRANCH  21  22
ENDBRANCH   2  21
TORSDOF 8
ENDMDL
MODEL 2
REMARK VINA RESULT:     110.4      2.929      4.072
REMARK  8 active torsions:
REMARK  status: ('A' for Active; 'I' for Inactive)
REMARK    1  A    between atoms: N_10  and  C_1 
REMARK    2  A    between atoms: C_20  and  N_2 
REMARK    3  A    between atoms: C_4  and  S_13 
REMARK       I    between atoms: C_14  and  N_10 
REMARK       I    between atoms: C_12  and  N_18 
REMARK    4  A    between atoms: C_16  and  C_12 
REMARK    5  A    between atoms: S_13  and  C_19 
REMARK    6  A    between atoms: C_19  and  C_14 
REMARK    7  A    between atoms: N_18  and  C_22 
REMARK    8  A    between atoms: C_22  and  C_20 
ROOT
ATOM      1  N   UNL d   1      60.740  49.627  51.678  0.00  0.00    -0.302 N 
ATOM      2  C   UNL d   1      59.938  49.676  52.745  0.00  0.00     0.049 A 
ATOM      3  C   UNL d   1      59.943  49.649  51.927  0.00  0.00     0.087 A 
ATOM      4  C   UNL d   1      60.724  49.672  53.013  0.00  0.00     0.024 A 
ATOM      5  C   UNL d   1      61.215  49.641  52.352  0.00  0.00     0.065 A 
ATOM      6  C   UNL d   1      61.041  49.691  53.768  0.00  0.00     0.002 A 
ATOM      7  C   UNL d   1      62.026  49.631  52.454  0.00  0.00     0.018 A 
ATOM      8  C   UNL d   1      61.859  49.680  53.866  0.00  0.00     0.000 A 
ATOM      9  C   UNL d   1      62.355  49.650  53.210  0.00  0.00     0.002 A 
ENDROOT
BRANCH   1  10
ATOM     10  C   UNL d   1      61.009  49.597  50.902  0.00  0.00     0.101 C 
BRANCH  10  11
ATOM     11  C   UNL d   1      60.739  49.007  50.396  0.00  0.00     0.121 C 
BRANCH  11  12
ATOM     12  N   UNL d   1      60.896  48.211  50.571  0.00  0.00    -0.205 NA
ATOM     13  C   UNL d   1      60.591  47.615  50.085  0.00  0.00     0.279 C 
ATOM     14  O   UNL d   1      60.130  47.815  49.426  0.00  0.00    -0.265 OA
BRANCH  13  15
ATOM     15  C   UNL d   1      60.747  46.829  50.260  0.00  0.00     0.058 A 
ATOM     16  C   UNL d   1      60.894  46.298  49.669  0.00  0.00     0.005 A 
ATOM     17  C   UNL d   1      61.053  45.506  49.827  0.00  0.00     0.000 A 
ATOM     18  C   UNL d   1      61.063  45.243  50.609  0.00  0.00     0.000 A 
ATOM     19  C   UNL d   1      60.913  45.780  51.224  0.00  0.00     0.000 A 
ATOM     20  C   UNL d   1      60.756  46.572  51.048  0.00  0.00     0.005 A 
ENDBRANCH  13  15
ENDBRANCH  11  12
ENDBRANCH  10  11
ENDBRANCH   1  10
BRANCH   2  21
ATOM     21  S   UNL d   1      59.268  49.704  53.226  0.00  0.00    -0.080 SA
BRANCH  21  22
ATOM     22  C   UNL d   1      59.329  49.491  54.019  0.00  0.00     0.098 C 
BRANCH  22  23
ATOM     23  C   UNL d   1      58.665  49.196  54.423  0.00  0.00     0.288 C 
ATOM     24  N   UNL d   1      58.469  49.502  55.156  0.00  0.00    -0.181 NA
ATOM     25  O   UNL d   1      58.213  48.601  54.083  0.00  0.00    -0.265 OA
BRANCH  24  26
ATOM     26  C   UNL d   1      57.808  49.214  55.567  0.00  0.00     0.219 A 
ATOM     27  S   UNL d   1      57.587  48.429  55.646  0.00  0.00    -0.026 SA
ATOM     28  C   UNL d   1      56.897  48.405  56.098  0.00  0.00     0.135 A 
ATOM     29  C   UNL d   1      56.483  47.723  56.313  0.00  0.00     0.030 C 
ATOM     30  N   UNL d   1      56.685  49.164  56.301  0.00  0.00    -0.139 NA
ATOM     31  N   UNL d   1      57.246  49.672  55.975  0.00  0.00    -0.121 NA
ENDBRANCH  24  26
ENDBRANCH  22  23
ENDBRANCH  21  22
ENDBRANCH   2  21
TORSDOF 8
ENDMDL
MODEL 3
REMARK VINA RESULT:     112.0      4.308      6.903
REMARK  8 active torsions:
REMARK  status: ('A' for Active; 'I' for Inactive)
REMARK    1  A    between atoms: N_10  and  C_1 
REMARK    2  A    between atoms: C_20  and  N_2 
REMARK    3  A    between atoms: C_4  and  S_13 
REMARK       I    between atoms: C_14  and  N_10 
REMARK       I    between atoms: C_12  and  N_18 
REMARK    4  A    between atoms: C_16  and  C_12 
REMARK    5  A    between atoms: S_13  and  C_19 
REMARK    6  A    between atoms: C_19  and  C_14 
REMARK    7  A    between atoms: N_18  and  C_22 
REMARK    8  A    between atoms: C_22  and  C_20 
ROOT
ATOM      1  N   UNL d   1      61.372  42.603  52.449  0.00  0.00    -0.302 N 
ATOM      2  C   UNL d   1      61.365  43.548  51.505  0.00  0.00     0.049 A 
ATOM      3  C   UNL d   1      60.979  43.289  52.179  0.00  0.00     0.087 A 
ATOM      4  C   UNL d   1      61.996  43.032  51.348  0.00  0.00     0.024 A 
ATOM      5  C   UNL d   1      61.997  42.451  51.933  0.00  0.00     0.065 A 
ATOM      6  C   UNL d   1      62.559  43.025  50.753  0.00  0.00     0.002 A 
ATOM      7  C   UNL d   1      62.566  41.863  51.915  0.00  0.00     0.018 A 
ATOM      8  C   UNL d   1      63.130  42.432  50.739  0.00  0.00     0.000 A 
ATOM      9  C   UNL d   1      63.136  41.849  51.319  0.00  0.00     0.002 A 
ENDROOT
BRANCH   1  10
ATOM     10  C   UNL d   1      61.176  42.155  53.110  0.00  0.00     0.101 C 
BRANCH  10  11
ATOM     11  C   UNL d   1      60.592  41.578  53.057  0.00  0.00     0.121 C 
BRANCH  11  12
ATOM     12  N   UNL d   1      60.234  41.291  53.748  0.00  0.00    -0.205 NA
ATOM     13  C   UNL d   1      59.956  40.512  53.775  0.00  0.00     0.279 C 
ATOM     14  O   UNL d   1      60.038  40.021  53.112  0.00  0.00    -0.265 OA
BRANCH  13  15
ATOM     15  C   UNL d   1      59.602  40.231  54.459  0.00  0.00     0.058 A 
ATOM     16  C   UNL d   1      59.920  40.394  55.184  0.00  0.00     0.005 A 
ATOM     17  C   UNL d   1      59.577  40.119  55.880  0.00  0.00     0.000 A 
ATOM     18  C   UNL d   1      58.889  39.664  55.841  0.00  0.00     0.000 A 
ATOM     19  C   UNL d   1      58.554  39.491  55.101  0.00  0.00     0.000 A 
ATOM     20  C   UNL d   1      58.911  39.775  54.412  0.00  0.00     0.005 A 
ENDBRANCH  13  15
ENDBRANCH  11  12
ENDBRANCH  10  11
ENDBRANCH   1  10
BRANCH   2  21
ATOM     21  S   UNL d   1      61.165  44.209  51.054  0.00  0.00    -0.080 SA
BRANCH  21  22
ATOM     22  C   UNL d   1      60.926  44.901  51.431  0.00  0.00     0.098 C 
BRANCH  22  23
ATOM     23  C   UNL d   1      61.014  45.634  51.051  0.00  0.00     0.288 C 
ATOM     24  N   UNL d   1      60.939  46.326  51.484  0.00  0.00    -0.181 NA
ATOM     25  O   UNL d   1      61.176  45.660  50.247  0.00  0.00    -0.265 OA
BRANCH  24  26
ATOM     26  C   UNL d   1      61.025  47.063  51.112  0.00  0.00     0.219 A 
ATOM     27  S   UNL d   1      60.681  47.769  51.344  0.00  0.00    -0.026 SA
ATOM     28  C   UNL d   1      60.922  48.353  50.813  0.00  0.00     0.135 A 
ATOM     29  C   UNL d   1      60.704  49.150  50.840  0.00  0.00     0.030 C 
ATOM     30  N   UNL d   1      61.410  48.020  50.254  0.00  0.00    -0.139 NA
ATOM     31  N   UNL d   1      61.479  47.218  50.433  0.00  0.00    -0.121 NA
ENDBRANCH  24  26
ENDBRANCH  22  23
ENDBRANCH  21  22
ENDBRANCH   2  21
TORSDOF 8
ENDMDL
