MODEL 1
REMARK VINA RESULT:      93.4      0.000      0.000
REMARK  5 active torsions:
REMARK  status: ('A' for Active; 'I' for Inactive)
REMARK    1  A    between atoms: C_7  and  C_1 
REMARK    2  A    between atoms: C_8  and  N_2 
REMARK    3  A    between atoms: C_13  and  C_7 
REMARK    4  A    between atoms: C_14  and  C_8 
REMARK    5  A    between atoms: O_22  and  C_15 
ROOT
ATOM      1  C   UNL d   1      58.924  49.335  50.579  0.00  0.00     0.095 A 
ATOM      2  N   UNL d   1      60.346  49.136  50.753  0.00  0.00    -0.304 N 
ATOM      3  C   UNL d   1      58.850  49.478  51.394  0.00  0.00     0.202 A 
ATOM      4  C   UNL d   1      59.673  49.163  50.251  0.00  0.00     0.087 A 
ATOM      5  C   UNL d   1      59.519  49.449  51.879  0.00  0.00     0.057 A 
ATOM      6  C   UNL d   1      60.272  49.277  51.559  0.00  0.00     0.067 A 
ATOM      7  C   UNL d   1      60.932  49.249  52.043  0.00  0.00     0.020 A 
ATOM      8  C   UNL d   1      59.449  49.591  52.692  0.00  0.00     0.029 A 
ATOM      9  O   UNL d   1      58.105  49.649  51.720  0.00  0.00    -0.286 OA
ATOM     10  C   UNL d   1      60.120  49.561  53.172  0.00  0.00     0.094 A 
ATOM     11  C   UNL d   1      60.858  49.391  52.849  0.00  0.00     0.026 A 
ENDROOT
BRANCH   1  12
ATOM     12  C   UNL d   1      58.258  49.363  50.093  0.00  0.00     0.200 C 
ATOM     13  O   UNL d   1      58.315  49.678  49.344  0.00  0.00    -0.286 OA
BRANCH  12  14
ATOM     14  C   UNL d   1      57.539  49.070  50.372  0.00  0.00     0.039 A 
ATOM     15  C   UNL d   1      56.928  49.592  50.550  0.00  0.00     0.003 A 
ATOM     16  C   UNL d   1      56.214  49.294  50.828  0.00  0.00     0.000 A 
ATOM     17  C   UNL d   1      56.112  48.480  50.926  0.00  0.00     0.000 A 
ATOM     18  C   UNL d   1      56.733  47.965  50.743  0.00  0.00     0.000 A 
ATOM     19  C   UNL d   1      57.453  48.258  50.464  0.00  0.00     0.003 A 
ENDBRANCH  12  14
ENDBRANCH   1  12
BRANCH   2  20
ATOM     20  C   UNL d   1      61.084  48.966  50.430  0.00  0.00     0.080 C 
BRANCH  20  21
ATOM     21  C   UNL d   1      61.285  48.182  50.253  0.00  0.00     0.018 A 
ATOM     22  C   UNL d   1      61.075  47.584  50.778  0.00  0.00     0.002 A 
ATOM     23  C   UNL d   1      61.274  46.806  50.605  0.00  0.00     0.000 A 
ATOM     24  C   UNL d   1      61.677  46.625  49.918  0.00  0.00     0.000 A 
ATOM     25  C   UNL d   1      61.885  47.234  49.392  0.00  0.00     0.000 A 
ATOM     26  C   UNL d   1      61.875  45.847  49.745  0.00  0.00     0.000 C 
ATOM     27  C   UNL d   1      61.687  48.013  49.565  0.00  0.00     0.002 A 
ENDBRANCH  20  21
ENDBRANCH   2  20
BRANCH  10  28
ATOM     28  O   UNL d   1      60.039  49.704  53.981  0.00  0.00    -0.328 OA
ATOM     29  C   UNL d   1      60.363  49.173  54.518  0.00  0.00     0.181 C 
ENDBRANCH  10  28
TORSDOF 5
ENDMDL
MODEL 2
REMARK VINA RESULT:      95.1      1.509      3.863
REMARK  5 active torsions:
REMARK  status: ('A' for Active; 'I' for Inactive)
REMARK    1  A    between atoms: C_7  and  C_1 
REMARK    2  A    between atoms: C_8  and  N_2 
REMARK    3  A    between atoms: C_13  and  C_7 
REMARK    4  A    between atoms: C_14  and  C_8 
REMARK    5  A    between atoms: O_22  and  C_15 
ROOT
ATOM      1  C   UNL d   1      60.595  47.382  50.761  0.00  0.00     0.095 A 
ATOM      2  N   UNL d   1      60.374  48.810  50.747  0.00  0.00    -0.304 N 
ATOM      3  C   UNL d   1      61.030  47.461  51.464  0.00  0.00     0.202 A 
ATOM      4  C   UNL d   1      60.263  48.055  50.396  0.00  0.00     0.087 A 
ATOM      5  C   UNL d   1      61.133  48.209  51.800  0.00  0.00     0.057 A 
ATOM      6  C   UNL d   1      60.805  48.888  51.442  0.00  0.00     0.067 A 
ATOM      7  C   UNL d   1      60.909  49.627  51.779  0.00  0.00     0.020 A 
ATOM      8  C   UNL d   1      61.567  48.292  52.502  0.00  0.00     0.029 A 
ATOM      9  O   UNL d   1      61.361  46.790  51.826  0.00  0.00    -0.286 OA
ATOM     10  C   UNL d   1      61.667  49.041  52.834  0.00  0.00     0.094 A 
ATOM     11  C   UNL d   1      61.340  49.705  52.475  0.00  0.00     0.026 A 
ENDROOT
BRANCH   1  12
ATOM     12  C   UNL d   1      60.490  46.636  50.422  0.00  0.00     0.200 C 
ATOM     13  O   UNL d   1      59.808  46.217  50.566  0.00  0.00    -0.286 OA
BRANCH  12  14
ATOM     14  C   UNL d   1      61.082  46.323  49.939  0.00  0.00     0.039 A 
ATOM     15  C   UNL d   1      61.752  46.771  49.772  0.00  0.00     0.003 A 
ATOM     16  C   UNL d   1      62.337  46.453  49.291  0.00  0.00     0.000 A 
ATOM     17  C   UNL d   1      62.253  45.693  48.978  0.00  0.00     0.000 A 
ATOM     18  C   UNL d   1      61.575  45.252  49.152  0.00  0.00     0.000 A 
ATOM     19  C   UNL d   1      60.983  45.566  49.635  0.00  0.00     0.003 A 
ENDBRANCH  12  14
ENDBRANCH   1  12
BRANCH   2  20
ATOM     20  C   UNL d   1      60.047  49.475  50.388  0.00  0.00     0.080 C 
BRANCH  20  21
ATOM     21  C   UNL d   1      59.225  49.533  50.301  0.00  0.00     0.018 A 
ATOM     22  C   UNL d   1      58.898  49.515  49.545  0.00  0.00     0.002 A 
ATOM     23  C   UNL d   1      58.084  49.572  49.456  0.00  0.00     0.000 A 
ATOM     24  C   UNL d   1      57.600  49.647  50.110  0.00  0.00     0.000 A 
ATOM     25  C   UNL d   1      57.937  49.665  50.869  0.00  0.00     0.000 A 
ATOM     26  C   UNL d   1      56.785  49.705  50.020  0.00  0.00     0.000 C 
ATOM     27  C   UNL d   1      58.752  49.607  50.960  0.00  0.00     0.002 A 
ENDBRANCH  20  21
ENDBRANCH   2  20
BRANCH  10  28
ATOM     28  O   UNL d   1      62.101  49.112  53.533  0.00  0.00    -0.328 OA
ATOM     29  C   UNL d   1      62.665  49.707  53.598  0.00  0.00     0.181 C 
ENDBRANCH  10  28
TORSDOF 5
ENDMDL
