MODEL 1
REMARK VINA RESULT:      18.1      0.000      0.000
REMARK  3 active torsions:
REMARK  status: ('A' for Active; 'I' for Inactive)
REMARK    1  A    between atoms: N_5  and  C_1 
REMARK    2  A    between atoms: C_7  and  N_4 
REMARK    3  A    between atoms: C_12  and  C_7 
ROOT
ATOM      1  C   UNL d   1     -50.925  25.636  33.429  0.00  0.00     0.232 A 
ATOM      2  N   UNL d   1     -50.250  25.172  33.433  0.00  0.00    -0.204 NA
ATOM      3  C   UNL d   1     -51.587  25.159  33.389  0.00  0.00     0.141 A 
ATOM      4  N   UNL d   1     -51.326  24.367  33.367  0.00  0.00    -0.282 N 
ATOM      5  C   UNL d   1     -50.494  24.375  33.394  0.00  0.00     0.150 A 
ATOM      6 BR   UNL d   1     -52.387  25.400  33.372  0.00  0.00    -0.026 Br
ATOM      7  C   UNL d   1     -49.964  23.707  33.386  0.00  0.00     0.041 C 
ENDROOT
BRANCH   4   8
ATOM      8  C   UNL d   1     -51.737  23.641  33.326  0.00  0.00     0.082 C 
BRANCH   8   9
ATOM      9  C   UNL d   1     -52.462  23.533  33.711  0.00  0.00     0.018 A 
ATOM     10  C   UNL d   1     -53.164  23.664  33.308  0.00  0.00     0.002 A 
ATOM     11  C   UNL d   1     -53.894  23.562  33.676  0.00  0.00     0.000 A 
ATOM     12  C   UNL d   1     -53.940  23.326  34.456  0.00  0.00     0.000 A 
ATOM     13  C   UNL d   1     -53.235  23.188  34.880  0.00  0.00     0.000 A 
ATOM     14  C   UNL d   1     -52.494  23.285  34.532  0.00  0.00     0.002 A 
ENDBRANCH   8   9
ENDBRANCH   4   8
BRANCH   1  15
ATOM     15  N   UNL d   1     -50.934  26.453  33.459  0.00  0.00    -0.093 N 
ATOM     16  O   UNL d   1     -51.595  26.921  33.647  0.00  0.00    -0.530 OA
ATOM     17  O   UNL d   1     -50.283  26.929  33.308  0.00  0.00    -0.530 OA
ENDBRANCH   1  15
TORSDOF 3
ENDMDL
