MODEL 1
REMARK VINA RESULT:      -0.5      0.000      0.000
REMARK  4 active torsions:
REMARK  status: ('A' for Active; 'I' for Inactive)
REMARK    1  A    between atoms: C_7  and  C_1 
REMARK    2  A    between atoms: C_8  and  C_3 
REMARK    3  A    between atoms: C_10  and  C_6 
REMARK    4  A    between atoms: C_9  and  C_8 
ROOT
ATOM      1  C   UNL d   1      58.871  -2.546  29.089  0.00  0.00     0.293 A 
ATOM      2  N   UNL d   1      59.386  -3.198  29.071  0.00  0.00    -0.223 N 
ATOM      3  C   UNL d   1      59.184  -1.770  29.116  0.00  0.00     0.113 A 
ATOM      4  C   UNL d   1      60.214  -3.074  29.079  0.00  0.00     0.356 A 
ATOM      5  N   UNL d   1      60.528  -2.297  29.106  0.00  0.00    -0.192 NA
ATOM      6  C   UNL d   1      60.013  -1.645  29.124  0.00  0.00     0.094 A 
ATOM      7  O   UNL d   1      60.716  -3.736  29.061  0.00  0.00    -0.244 OA
ATOM      8  O   UNL d   1      58.206  -2.040  29.102  0.00  0.00    -0.267 OA
ATOM      9  C   UNL d   1      59.089  -3.961  29.045  0.00  0.00     0.106 C 
ENDROOT
BRANCH   3  10
ATOM     10  C   UNL d   1      58.669  -1.118  29.134  0.00  0.00     0.207 C 
ATOM     11  O   UNL d   1      58.539  -0.671  28.455  0.00  0.00    -0.286 OA
BRANCH  10  12
ATOM     12  C   UNL d   1      58.280  -0.915  29.847  0.00  0.00     0.069 A 
ATOM     13  S   UNL d   1      58.330  -1.209  30.621  0.00  0.00    -0.083 SA
ATOM     14  C   UNL d   1      57.800  -0.776  31.086  0.00  0.00     0.035 A 
ATOM     15  C   UNL d   1      57.413  -0.217  30.645  0.00  0.00     0.008 A 
ATOM     16  C   UNL d   1      57.704  -0.293  29.868  0.00  0.00     0.010 A 
ENDBRANCH  10  12
ENDBRANCH   3  10
BRANCH   1  17
ATOM     17  C   UNL d   1      58.378  -3.199  29.066  0.00  0.00     0.469 C 
ATOM     18  F   UNL d   1      57.987  -3.284  29.610  0.00  0.00    -0.162 F 
ATOM     19  F   UNL d   1      57.877  -3.875  29.026  0.00  0.00    -0.162 F 
ATOM     20  F   UNL d   1      58.375  -3.653  28.482  0.00  0.00    -0.162 F 
ENDBRANCH   1  17
BRANCH   6  21
ATOM     21  C   UNL d   1      60.317  -0.886  29.150  0.00  0.00     0.021 A 
ATOM     22  C   UNL d   1      60.571  -0.568  29.859  0.00  0.00     0.043 A 
ATOM     23  C   UNL d   1      60.880   0.206  29.884  0.00  0.00     0.196 A 
ATOM     24  O   UNL d   1      61.132   0.519  30.593  0.00  0.00    -0.287 OA
ATOM     25  C   UNL d   1      60.927   0.642  29.198  0.00  0.00     0.042 A 
ATOM     26  C   UNL d   1      60.674   0.328  28.486  0.00  0.00     0.003 A 
ATOM     27  C   UNL d   1      60.369  -0.435  28.463  0.00  0.00     0.002 A 
ENDBRANCH   6  21
TORSDOF 4
ENDMDL
MODEL 2
REMARK VINA RESULT:       1.0      1.629      2.902
REMARK  4 active torsions:
REMARK  status: ('A' for Active; 'I' for Inactive)
REMARK    1  A    between atoms: C_7  and  C_1 
REMARK    2  A    between atoms: C_8  and  C_3 
REMARK    3  A    between atoms: C_10  and  C_6 
REMARK    4  A    between atoms: C_9  and  C_8 
ROOT
ATOM      1  C   UNL d   1      59.349  -1.375  29.531  0.00  0.00     0.293 A 
ATOM      2  N   UNL d   1      59.116  -2.173  29.523  0.00  0.00    -0.223 N 
ATOM      3  C   UNL d   1      58.871  -0.806  29.916  0.00  0.00     0.113 A 
ATOM      4  C   UNL d   1      58.404  -2.401  29.901  0.00  0.00     0.356 A 
ATOM      5  N   UNL d   1      57.925  -1.832  30.286  0.00  0.00    -0.192 NA
ATOM      6  C   UNL d   1      58.158  -1.034  30.294  0.00  0.00     0.094 A 
ATOM      7  O   UNL d   1      58.184  -3.202  29.884  0.00  0.00    -0.244 OA
ATOM      8  O   UNL d   1      59.747  -0.647  29.430  0.00  0.00    -0.267 OA
ATOM      9  C   UNL d   1      59.577  -2.737  29.149  0.00  0.00     0.106 C 
ENDROOT
BRANCH   3  10
ATOM     10  C   UNL d   1      59.105  -0.008  29.924  0.00  0.00     0.207 C 
ATOM     11  O   UNL d   1      58.680   0.554  29.499  0.00  0.00    -0.286 OA
BRANCH  10  12
ATOM     12  C   UNL d   1      59.776   0.224  30.367  0.00  0.00     0.069 A 
ATOM     13  S   UNL d   1      59.925   0.276  31.182  0.00  0.00    -0.083 SA
ATOM     14  C   UNL d   1      60.703   0.545  31.275  0.00  0.00     0.035 A 
ATOM     15  C   UNL d   1      61.058   0.667  30.557  0.00  0.00     0.008 A 
ATOM     16  C   UNL d   1      60.490   0.470  29.980  0.00  0.00     0.010 A 
ENDBRANCH  10  12
ENDBRANCH   3  10
BRANCH   1  17
ATOM     17  C   UNL d   1      59.939  -1.760  29.114  0.00  0.00     0.469 C 
ATOM     18  F   UNL d   1      59.815  -1.849  28.456  0.00  0.00    -0.162 F 
ATOM     19  F   UNL d   1      60.556  -2.156  28.700  0.00  0.00    -0.162 F 
ATOM     20  F   UNL d   1      60.558  -1.986  29.451  0.00  0.00    -0.162 F 
ENDBRANCH   1  17
BRANCH   6  21
ATOM     21  C   UNL d   1      57.693  -0.476  30.670  0.00  0.00     0.021 A 
ATOM     22  C   UNL d   1      57.587  -0.506  31.480  0.00  0.00     0.043 A 
ATOM     23  C   UNL d   1      57.112   0.063  31.862  0.00  0.00     0.196 A 
ATOM     24  O   UNL d   1      57.009   0.030  32.669  0.00  0.00    -0.287 OA
ATOM     25  C   UNL d   1      56.755   0.648  31.423  0.00  0.00     0.042 A 
ATOM     26  C   UNL d   1      56.857   0.682  30.612  0.00  0.00     0.003 A 
ATOM     27  C   UNL d   1      57.326   0.120  30.236  0.00  0.00     0.002 A 
ENDBRANCH   6  21
TORSDOF 4
ENDMDL
MODEL 3
REMARK VINA RESULT:       1.1      1.803      3.332
REMARK  4 active torsions:
REMARK  status: ('A' for Active; 'I' for Inactive)
REMARK    1  A    between atoms: C_7  and  C_1 
REMARK    2  A    between atoms: C_8  and  C_3 
REMARK    3  A    between atoms: C_10  and  C_6 
REMARK    4  A    between atoms: C_9  and  C_8 
ROOT
ATOM      1  C   UNL d   1      59.748  -0.490  29.396  0.00  0.00     0.293 A 
ATOM      2  N   UNL d   1      60.368  -0.109  29.796  0.00  0.00    -0.223 N 
ATOM      3  C   UNL d   1      58.971  -0.458  29.706  0.00  0.00     0.113 A 
ATOM      4  C   UNL d   1      60.211   0.305  30.507  0.00  0.00     0.356 A 
ATOM      5  N   UNL d   1      59.434   0.338  30.818  0.00  0.00    -0.192 NA
ATOM      6  C   UNL d   1      58.814  -0.044  30.418  0.00  0.00     0.094 A 
ATOM      7  O   UNL d   1      60.842   0.681  30.895  0.00  0.00    -0.244 OA
ATOM      8  O   UNL d   1      59.277  -0.926  28.859  0.00  0.00    -0.267 OA
ATOM      9  C   UNL d   1      61.131  -0.135  29.500  0.00  0.00     0.106 C 
ENDROOT
BRANCH   3  10
ATOM     10  C   UNL d   1      58.350  -0.839  29.306  0.00  0.00     0.207 C 
ATOM     11  O   UNL d   1      57.730  -0.403  28.986  0.00  0.00    -0.286 OA
BRANCH  10  12
ATOM     12  C   UNL d   1      58.357  -1.673  29.227  0.00  0.00     0.069 A 
ATOM     13  S   UNL d   1      58.542  -2.289  29.751  0.00  0.00    -0.083 SA
ATOM     14  C   UNL d   1      58.442  -3.002  29.342  0.00  0.00     0.035 A 
ATOM     15  C   UNL d   1      58.201  -2.870  28.580  0.00  0.00     0.008 A 
ATOM     16  C   UNL d   1      58.143  -2.043  28.494  0.00  0.00     0.010 A 
ENDBRANCH  10  12
ENDBRANCH   3  10
BRANCH   1  17
ATOM     17  C   UNL d   1      60.411  -0.638  28.939  0.00  0.00     0.469 C 
ATOM     18  F   UNL d   1      60.746  -0.088  28.732  0.00  0.00    -0.162 F 
ATOM     19  F   UNL d   1      61.090  -0.807  28.470  0.00  0.00    -0.162 F 
ATOM     20  F   UNL d   1      60.613  -1.330  28.774  0.00  0.00    -0.162 F 
ENDBRANCH   1  17
BRANCH   6  21
ATOM     21  C   UNL d   1      58.054  -0.014  30.720  0.00  0.00     0.021 A 
ATOM     22  C   UNL d   1      57.820  -0.540  31.301  0.00  0.00     0.043 A 
ATOM     23  C   UNL d   1      57.045  -0.508  31.608  0.00  0.00     0.196 A 
ATOM     24  O   UNL d   1      56.817  -1.034  32.186  0.00  0.00    -0.287 OA
ATOM     25  C   UNL d   1      56.524   0.050  31.324  0.00  0.00     0.042 A 
ATOM     26  C   UNL d   1      56.753   0.578  30.743  0.00  0.00     0.003 A 
ATOM     27  C   UNL d   1      57.518   0.545  30.442  0.00  0.00     0.002 A 
ENDBRANCH   6  21
TORSDOF 4
ENDMDL
