MODEL 1
REMARK VINA RESULT:      25.4      0.000      0.000
REMARK  6 active torsions:
REMARK  status: ('A' for Active; 'I' for Inactive)
REMARK    1  A    between atoms: C_5  and  N_1 
REMARK    2  A    between atoms: C_7  and  C_3 
REMARK    3  A    between atoms: C_12  and  C_4 
REMARK    4  A    between atoms: N_14  and  C_5 
REMARK    5  A    between atoms: O_16  and  C_9 
REMARK    6  A    between atoms: O_17  and  C_11 
ROOT
ATOM      1  N   UNL d   1      45.871 -17.812  44.374  0.00  0.00    -0.203 N 
ATOM      2  N   UNL d   1      45.748 -17.080  44.739  0.00  0.00    -0.163 NA
ATOM      3  C   UNL d   1      46.018 -17.669  43.580  0.00  0.00     0.087 A 
ATOM      4  C   UNL d   1      45.818 -16.501  44.182  0.00  0.00     0.103 A 
ATOM      5  C   UNL d   1      45.985 -16.857  43.467  0.00  0.00     0.040 A 
ENDROOT
BRANCH   3   6
ATOM      6  C   UNL d   1      46.174 -18.233  42.989  0.00  0.00     0.020 A 
ATOM      7  C   UNL d   1      46.216 -18.031  42.204  0.00  0.00     0.028 A 
ATOM      8  C   UNL d   1      46.370 -18.589  41.626  0.00  0.00     0.116 A 
ATOM      9  C   UNL d   1      46.484 -19.362  41.839  0.00  0.00     0.116 A 
ATOM     10  C   UNL d   1      46.445 -19.585  42.632  0.00  0.00     0.026 A 
ATOM     11  C   UNL d   1      46.291 -19.027  43.210  0.00  0.00     0.004 A 
BRANCH   8  12
ATOM     12  O   UNL d   1      46.413 -18.388  40.822  0.00  0.00    -0.326 OA
ATOM     13  C   UNL d   1      46.031 -17.707  40.541  0.00  0.00     0.181 C 
ENDBRANCH   8  12
BRANCH   9  14
ATOM     14  O   UNL d   1      46.642 -19.944  41.255  0.00  0.00    -0.326 OA
ATOM     15  C   UNL d   1      46.037 -20.324  40.851  0.00  0.00     0.181 C 
ENDBRANCH   9  14
ENDBRANCH   3   6
BRANCH   1  16
ATOM     16  C   UNL d   1      45.847 -18.552  44.756  0.00  0.00     0.222 C 
ATOM     17  S   UNL d   1      45.119 -18.914  44.953  0.00  0.00    -0.037 SA
BRANCH  16  18
ATOM     18  N   UNL d   1      46.562 -18.956  44.953  0.00  0.00    -0.214 NA
ATOM     19  C   UNL d   1      46.570 -19.795  44.940  0.00  0.00     0.122 C 
ENDBRANCH  16  18
ENDBRANCH   1  16
BRANCH   4  20
ATOM     20  C   UNL d   1      45.728 -15.692  44.357  0.00  0.00     0.019 A 
ATOM     21  C   UNL d   1      45.013 -15.409  44.628  0.00  0.00     0.002 A 
ATOM     22  C   UNL d   1      44.904 -14.598  44.809  0.00  0.00     0.000 A 
ATOM     23  C   UNL d   1      45.549 -14.073  44.707  0.00  0.00     0.000 A 
ATOM     24  C   UNL d   1      46.278 -14.381  44.427  0.00  0.00     0.000 A 
ATOM     25  C   UNL d   1      46.368 -15.174  44.255  0.00  0.00     0.002 A 
ENDBRANCH   4  20
TORSDOF 6
ENDMDL
