MODEL 1
REMARK VINA RESULT:      -1.4      0.000      0.000
REMARK  4 active torsions:
REMARK  status: ('A' for Active; 'I' for Inactive)
REMARK    1  A    between atoms: N_3  and  C_1 
REMARK    2  A    between atoms: N_5  and  N_2 
REMARK    3  A    between atoms: S_4  and  N_5 
REMARK    4  A    between atoms: C_13  and  S_4 
ROOT
ATOM      1  C   UNL d   1      30.486  16.149 -24.312  0.00  0.00     0.771 A 
ATOM      2  N   UNL d   1      31.230  16.430 -24.119  0.00  0.00    -0.026 N 
ATOM      3  N   UNL d   1      30.585  15.540 -24.862  0.00  0.00     0.048 NA
ATOM      4  C   UNL d   1      31.787  16.008 -24.537  0.00  0.00     0.204 A 
ATOM      5  N   UNL d   1      31.392  15.453 -25.002  0.00  0.00    -0.112 NA
ATOM      6  C   UNL d   1      32.605  16.110 -24.509  0.00  0.00     0.044 C 
ENDROOT
BRANCH   2   7
ATOM      7  N   UNL d   1      31.400  17.038 -23.589  0.00  0.00    -0.056 NA
BRANCH   7   8
ATOM      8  S   UNL d   1      31.773  17.726 -23.841  0.00  0.00     0.301 S 
ATOM      9  O   UNL d   1      31.990  17.366 -24.540  0.00  0.00    -0.197 OA
ATOM     10  O   UNL d   1      31.551  18.086 -23.130  0.00  0.00    -0.197 OA
BRANCH   8  11
ATOM     11  C   UNL d   1      32.142  18.425 -24.075  0.00  0.00     0.107 A 
ATOM     12  C   UNL d   1      32.051  18.693 -24.849  0.00  0.00     0.015 A 
ATOM     13  C   UNL d   1      32.419  19.393 -25.087  0.00  0.00     0.030 A 
ATOM     14  C   UNL d   1      32.877  19.821 -24.545  0.00  0.00     0.140 A 
ATOM     15  C   UNL d   1      32.969  19.555 -23.771  0.00  0.00     0.030 A 
ATOM     16  F   UNL d   1      33.241  20.516 -24.785  0.00  0.00    -0.204 F 
ATOM     17  C   UNL d   1      32.600  18.854 -23.532  0.00  0.00     0.015 A 
ENDBRANCH   8  11
ENDBRANCH   7   8
ENDBRANCH   2   7
BRANCH   1  18
ATOM     18  N   UNL d   1      29.770  16.426 -24.010  0.00  0.00    -0.056 N 
ATOM     19  N   UNL d   1      29.338  17.068 -24.294  0.00  0.00    -0.150 NA
ATOM     20  C   UNL d   1      28.662  17.148 -23.830  0.00  0.00     0.103 A 
ATOM     21  C   UNL d   1      28.077  17.716 -23.918  0.00  0.00     0.022 C 
ATOM     22  C   UNL d   1      28.675  16.555 -23.256  0.00  0.00     0.041 A 
ATOM     23  C   UNL d   1      29.364  16.111 -23.373  0.00  0.00     0.102 A 
ATOM     24  C   UNL d   1      29.598  15.462 -22.922  0.00  0.00     0.021 C 
ENDBRANCH   1  18
TORSDOF 4
ENDMDL
MODEL 2
REMARK VINA RESULT:      -1.2      2.474      4.431
REMARK  4 active torsions:
REMARK  status: ('A' for Active; 'I' for Inactive)
REMARK    1  A    between atoms: N_3  and  C_1 
REMARK    2  A    between atoms: N_5  and  N_2 
REMARK    3  A    between atoms: S_4  and  N_5 
REMARK    4  A    between atoms: C_13  and  S_4 
ROOT
ATOM      1  C   UNL d   1      33.122  20.088 -23.486  0.00  0.00     0.771 A 
ATOM      2  N   UNL d   1      33.043  19.322 -23.762  0.00  0.00    -0.026 N 
ATOM      3  N   UNL d   1      33.241  20.578 -24.141  0.00  0.00     0.048 NA
ATOM      4  C   UNL d   1      33.110  19.326 -24.574  0.00  0.00     0.204 A 
ATOM      5  N   UNL d   1      33.233  20.105 -24.816  0.00  0.00    -0.112 NA
ATOM      6  C   UNL d   1      33.064  18.673 -25.075  0.00  0.00     0.044 C 
ENDROOT
BRANCH   2   7
ATOM      7  N   UNL d   1      32.916  18.648 -23.304  0.00  0.00    -0.056 NA
BRANCH   7   8
ATOM      8  S   UNL d   1      32.393  18.063 -23.548  0.00  0.00     0.301 S 
ATOM      9  O   UNL d   1      31.779  18.598 -23.553  0.00  0.00    -0.197 OA
ATOM     10  O   UNL d   1      33.021  17.524 -23.541  0.00  0.00    -0.197 OA
BRANCH   8  11
ATOM     11  C   UNL d   1      31.885  17.462 -23.793  0.00  0.00     0.107 A 
ATOM     12  C   UNL d   1      32.123  16.676 -23.725  0.00  0.00     0.015 A 
ATOM     13  C   UNL d   1      31.616  16.071 -23.970  0.00  0.00     0.030 A 
ATOM     14  C   UNL d   1      30.872  16.259 -24.282  0.00  0.00     0.140 A 
ATOM     15  C   UNL d   1      30.633  17.045 -24.350  0.00  0.00     0.030 A 
ATOM     16  F   UNL d   1      30.371  15.657 -24.523  0.00  0.00    -0.204 F 
ATOM     17  C   UNL d   1      31.140  17.651 -24.105  0.00  0.00     0.015 A 
ENDBRANCH   8  11
ENDBRANCH   7   8
ENDBRANCH   2   7
BRANCH   1  18
ATOM     18  N   UNL d   1      33.089  20.324 -22.696  0.00  0.00    -0.056 N 
ATOM     19  N   UNL d   1      33.239  19.849 -22.040  0.00  0.00    -0.150 NA
ATOM     20  C   UNL d   1      33.143  20.309 -21.363  0.00  0.00     0.103 A 
ATOM     21  C   UNL d   1      33.238  20.057 -20.588  0.00  0.00     0.022 C 
ATOM     22  C   UNL d   1      32.934  21.071 -21.599  0.00  0.00     0.041 A 
ATOM     23  C   UNL d   1      32.902  21.074 -22.427  0.00  0.00     0.102 A 
ATOM     24  C   UNL d   1      32.713  21.724 -22.896  0.00  0.00     0.021 C 
ENDBRANCH   1  18
TORSDOF 4
ENDMDL
MODEL 3
REMARK VINA RESULT:      -0.5      1.964      3.877
REMARK  4 active torsions:
REMARK  status: ('A' for Active; 'I' for Inactive)
REMARK    1  A    between atoms: N_3  and  C_1 
REMARK    2  A    between atoms: N_5  and  N_2 
REMARK    3  A    between atoms: S_4  and  N_5 
REMARK    4  A    between atoms: C_13  and  S_4 
ROOT
ATOM      1  C   UNL d   1      32.902  17.592 -23.433  0.00  0.00     0.771 A 
ATOM      2  N   UNL d   1      32.478  17.008 -23.817  0.00  0.00    -0.026 N 
ATOM      3  N   UNL d   1      33.241  17.253 -22.760  0.00  0.00     0.048 NA
ATOM      4  C   UNL d   1      32.546  16.313 -23.397  0.00  0.00     0.204 A 
ATOM      5  N   UNL d   1      33.020  16.459 -22.738  0.00  0.00    -0.112 NA
ATOM      6  C   UNL d   1      32.205  15.586 -23.587  0.00  0.00     0.044 C 
ENDROOT
BRANCH   2   7
ATOM      7  N   UNL d   1      32.047  17.094 -24.515  0.00  0.00    -0.056 NA
BRANCH   7   8
ATOM      8  S   UNL d   1      31.254  16.882 -24.552  0.00  0.00     0.301 S 
ATOM      9  O   UNL d   1      31.057  17.484 -24.039  0.00  0.00    -0.197 OA
ATOM     10  O   UNL d   1      31.460  16.272 -25.072  0.00  0.00    -0.197 OA
BRANCH   8  11
ATOM     11  C   UNL d   1      30.464  16.653 -24.603  0.00  0.00     0.107 A 
ATOM     12  C   UNL d   1      30.270  15.941 -24.969  0.00  0.00     0.015 A 
ATOM     13  C   UNL d   1      29.478  15.709 -25.022  0.00  0.00     0.030 A 
ATOM     14  C   UNL d   1      28.886  16.194 -24.706  0.00  0.00     0.140 A 
ATOM     15  C   UNL d   1      29.079  16.907 -24.339  0.00  0.00     0.030 A 
ATOM     16  F   UNL d   1      28.102  15.961 -24.760  0.00  0.00    -0.204 F 
ATOM     17  C   UNL d   1      29.871  17.140 -24.286  0.00  0.00     0.015 A 
ENDBRANCH   8  11
ENDBRANCH   7   8
ENDBRANCH   2   7
BRANCH   1  18
ATOM     18  N   UNL d   1      32.976  18.376 -23.677  0.00  0.00    -0.056 N 
ATOM     19  N   UNL d   1      33.087  18.637 -24.451  0.00  0.00    -0.150 NA
ATOM     20  C   UNL d   1      33.131  19.459 -24.442  0.00  0.00     0.103 A 
ATOM     21  C   UNL d   1      33.240  19.948 -25.092  0.00  0.00     0.022 C 
ATOM     22  C   UNL d   1      33.047  19.710 -23.660  0.00  0.00     0.041 A 
ATOM     23  C   UNL d   1      32.951  19.034 -23.192  0.00  0.00     0.102 A 
ATOM     24  C   UNL d   1      32.848  19.030 -22.374  0.00  0.00     0.021 C 
ENDBRANCH   1  18
TORSDOF 4
ENDMDL
MODEL 4
REMARK VINA RESULT:       0.3      2.142      3.322
REMARK  4 active torsions:
REMARK  status: ('A' for Active; 'I' for Inactive)
REMARK    1  A    between atoms: N_3  and  C_1 
REMARK    2  A    between atoms: N_5  and  N_2 
REMARK    3  A    between atoms: S_4  and  N_5 
REMARK    4  A    between atoms: C_13  and  S_4 
ROOT
ATOM      1  C   UNL d   1      32.155  18.332 -24.401  0.00  0.00     0.771 A 
ATOM      2  N   UNL d   1      32.672  18.871 -24.067  0.00  0.00    -0.026 N 
ATOM      3  N   UNL d   1      31.789  18.702 -25.043  0.00  0.00     0.048 NA
ATOM      4  C   UNL d   1      32.633  19.568 -24.489  0.00  0.00     0.204 A 
ATOM      5  N   UNL d   1      32.086  19.468 -25.097  0.00  0.00    -0.112 NA
ATOM      6  C   UNL d   1      33.062  20.257 -24.341  0.00  0.00     0.044 C 
ENDROOT
BRANCH   2   7
ATOM      7  N   UNL d   1      33.156  18.744 -23.413  0.00  0.00    -0.056 NA
BRANCH   7   8
ATOM      8  S   UNL d   1      33.112  19.230 -22.752  0.00  0.00     0.301 S 
ATOM      9  O   UNL d   1      32.997  18.583 -22.270  0.00  0.00    -0.197 OA
ATOM     10  O   UNL d   1      33.229  19.883 -23.246  0.00  0.00    -0.197 OA
BRANCH   8  11
ATOM     11  C   UNL d   1      33.070  19.735 -22.102  0.00  0.00     0.107 A 
ATOM     12  C   UNL d   1      33.239  19.443 -21.350  0.00  0.00     0.015 A 
ATOM     13  C   UNL d   1      33.198  19.946 -20.695  0.00  0.00     0.030 A 
ATOM     14  C   UNL d   1      32.987  20.741 -20.801  0.00  0.00     0.140 A 
ATOM     15  C   UNL d   1      32.818  21.034 -21.552  0.00  0.00     0.030 A 
ATOM     16  F   UNL d   1      32.947  21.237 -20.149  0.00  0.00    -0.204 F 
ATOM     17  C   UNL d   1      32.859  20.531 -22.208  0.00  0.00     0.015 A 
ENDBRANCH   8  11
ENDBRANCH   7   8
ENDBRANCH   2   7
BRANCH   1  18
ATOM     18  N   UNL d   1      32.026  17.560 -24.141  0.00  0.00    -0.056 N 
ATOM     19  N   UNL d   1      32.608  17.001 -23.970  0.00  0.00    -0.150 NA
ATOM     20  C   UNL d   1      32.234  16.307 -23.730  0.00  0.00     0.103 A 
ATOM     21  C   UNL d   1      32.603  15.609 -23.507  0.00  0.00     0.022 C 
ATOM     22  C   UNL d   1      31.419  16.436 -23.751  0.00  0.00     0.041 A 
ATOM     23  C   UNL d   1      31.298  17.214 -24.006  0.00  0.00     0.102 A 
ATOM     24  C   UNL d   1      30.564  17.575 -24.107  0.00  0.00     0.021 C 
ENDBRANCH   1  18
TORSDOF 4
ENDMDL
MODEL 5
REMARK VINA RESULT:       0.5      1.315      1.722
REMARK  4 active torsions:
REMARK  status: ('A' for Active; 'I' for Inactive)
REMARK    1  A    between atoms: N_3  and  C_1 
REMARK    2  A    between atoms: N_5  and  N_2 
REMARK    3  A    between atoms: S_4  and  N_5 
REMARK    4  A    between atoms: C_13  and  S_4 
ROOT
ATOM      1  C   UNL d   1      29.660  15.724 -23.190  0.00  0.00     0.771 A 
ATOM      2  N   UNL d   1      30.401  15.817 -23.522  0.00  0.00    -0.026 N 
ATOM      3  N   UNL d   1      29.766  15.498 -22.402  0.00  0.00     0.048 NA
ATOM      4  C   UNL d   1      30.965  15.654 -22.957  0.00  0.00     0.204 A 
ATOM      5  N   UNL d   1      30.576  15.455 -22.258  0.00  0.00    -0.112 NA
ATOM      6  C   UNL d   1      31.784  15.681 -23.056  0.00  0.00     0.044 C 
ENDROOT
BRANCH   2   7
ATOM      7  N   UNL d   1      30.564  16.039 -24.299  0.00  0.00    -0.056 NA
BRANCH   7   8
ATOM      8  S   UNL d   1      31.057  16.675 -24.463  0.00  0.00     0.301 S 
ATOM      9  O   UNL d   1      31.660  16.168 -24.674  0.00  0.00    -0.197 OA
ATOM     10  O   UNL d   1      30.443  17.185 -24.248  0.00  0.00    -0.197 OA
BRANCH   8  11
ATOM     11  C   UNL d   1      31.537  17.327 -24.622  0.00  0.00     0.107 A 
ATOM     12  C   UNL d   1      32.351  17.225 -24.692  0.00  0.00     0.015 A 
ATOM     13  C   UNL d   1      32.835  17.876 -24.852  0.00  0.00     0.030 A 
ATOM     14  C   UNL d   1      32.496  18.627 -24.939  0.00  0.00     0.140 A 
ATOM     15  C   UNL d   1      31.681  18.731 -24.868  0.00  0.00     0.030 A 
ATOM     16  F   UNL d   1      32.978  19.271 -25.096  0.00  0.00    -0.204 F 
ATOM     17  C   UNL d   1      31.197  18.079 -24.709  0.00  0.00     0.015 A 
ENDBRANCH   8  11
ENDBRANCH   7   8
ENDBRANCH   2   7
BRANCH   1  18
ATOM     18  N   UNL d   1      28.939  15.835 -23.575  0.00  0.00    -0.056 N 
ATOM     19  N   UNL d   1      28.691  15.456 -24.264  0.00  0.00    -0.150 NA
ATOM     20  C   UNL d   1      27.939  15.733 -24.453  0.00  0.00     0.103 A 
ATOM     21  C   UNL d   1      27.484  15.503 -25.097  0.00  0.00     0.022 C 
ATOM     22  C   UNL d   1      27.718  16.285 -23.881  0.00  0.00     0.041 A 
ATOM     23  C   UNL d   1      28.342  16.344 -23.340  0.00  0.00     0.102 A 
ATOM     24  C   UNL d   1      28.356  16.833 -22.677  0.00  0.00     0.021 C 
ENDBRANCH   1  18
TORSDOF 4
ENDMDL
MODEL 6
REMARK VINA RESULT:       1.6      4.303      6.009
REMARK  4 active torsions:
REMARK  status: ('A' for Active; 'I' for Inactive)
REMARK    1  A    between atoms: N_3  and  C_1 
REMARK    2  A    between atoms: N_5  and  N_2 
REMARK    3  A    between atoms: S_4  and  N_5 
REMARK    4  A    between atoms: C_13  and  S_4 
ROOT
ATOM      1  C   UNL d   1      32.502  23.001 -22.100  0.00  0.00     0.771 A 
ATOM      2  N   UNL d   1      32.858  22.416 -22.546  0.00  0.00    -0.026 N 
ATOM      3  N   UNL d   1      32.208  23.569 -22.622  0.00  0.00     0.048 NA
ATOM      4  C   UNL d   1      32.791  22.609 -23.335  0.00  0.00     0.204 A 
ATOM      5  N   UNL d   1      32.387  23.326 -23.389  0.00  0.00    -0.112 NA
ATOM      6  C   UNL d   1      33.074  22.172 -23.975  0.00  0.00     0.044 C 
ENDROOT
BRANCH   2   7
ATOM      7  N   UNL d   1      33.227  21.737 -22.259  0.00  0.00    -0.056 NA
BRANCH   7   8
ATOM      8  S   UNL d   1      33.054  20.997 -22.570  0.00  0.00     0.301 S 
ATOM      9  O   UNL d   1      33.235  21.258 -23.321  0.00  0.00    -0.197 OA
ATOM     10  O   UNL d   1      32.872  20.737 -21.806  0.00  0.00    -0.197 OA
BRANCH   8  11
ATOM     11  C   UNL d   1      32.876  20.247 -22.863  0.00  0.00     0.107 A 
ATOM     12  C   UNL d   1      33.169  20.018 -23.599  0.00  0.00     0.015 A 
ATOM     13  C   UNL d   1      32.992  19.267 -23.895  0.00  0.00     0.030 A 
ATOM     14  C   UNL d   1      32.521  18.750 -23.451  0.00  0.00     0.140 A 
ATOM     15  C   UNL d   1      32.227  18.978 -22.715  0.00  0.00     0.030 A 
ATOM     16  F   UNL d   1      32.347  18.006 -23.748  0.00  0.00    -0.204 F 
ATOM     17  C   UNL d   1      32.404  19.730 -22.418  0.00  0.00     0.015 A 
ENDBRANCH   8  11
ENDBRANCH   7   8
ENDBRANCH   2   7
BRANCH   1  18
ATOM     18  N   UNL d   1      32.448  23.017 -21.277  0.00  0.00    -0.056 N 
ATOM     19  N   UNL d   1      33.052  22.831 -20.746  0.00  0.00    -0.150 NA
ATOM     20  C   UNL d   1      32.758  22.920 -19.982  0.00  0.00     0.103 A 
ATOM     21  C   UNL d   1      33.171  22.793 -19.284  0.00  0.00     0.022 C 
ATOM     22  C   UNL d   1      31.971  23.162 -20.037  0.00  0.00     0.041 A 
ATOM     23  C   UNL d   1      31.785  23.220 -20.843  0.00  0.00     0.102 A 
ATOM     24  C   UNL d   1      31.055  23.445 -21.150  0.00  0.00     0.021 C 
ENDBRANCH   1  18
TORSDOF 4
ENDMDL
