MODEL 1
REMARK VINA RESULT:      45.3      0.000      0.000
REMARK  5 active torsions:
REMARK  status: ('A' for Active; 'I' for Inactive)
REMARK    1  A    between atoms: C_6  and  C_1 
REMARK    2  A    between atoms: C_8  and  N_3 
REMARK    3  A    between atoms: C_7  and  C_6 
REMARK    4  A    between atoms: C_9  and  C_7 
REMARK    5  A    between atoms: C_14  and  C_8 
ROOT
ATOM      1  C   UNL d   1      58.957  49.095  50.879  0.00  0.00     0.148 A 
ATOM      2  N   UNL d   1      59.647  48.979  50.289  0.00  0.00    -0.227 NA
ATOM      3  N   UNL d   1      59.333  49.386  51.658  0.00  0.00    -0.289 N 
ATOM      4  C   UNL d   1      60.245  49.451  51.557  0.00  0.00     0.083 A 
ATOM      5  C   UNL d   1      60.443  49.195  50.695  0.00  0.00     0.099 A 
ATOM      6  C   UNL d   1      60.917  49.707  52.129  0.00  0.00     0.019 A 
ATOM      7  C   UNL d   1      61.308  49.199  50.423  0.00  0.00     0.021 A 
ATOM      8  C   UNL d   1      61.775  49.704  51.833  0.00  0.00     0.002 A 
ATOM      9  C   UNL d   1      61.973  49.447  50.971  0.00  0.00     0.002 A 
ENDROOT
BRANCH   1  10
ATOM     10  C   UNL d   1      58.211  49.089  51.108  0.00  0.00     0.037 C 
BRANCH  10  11
ATOM     11  C   UNL d   1      57.626  49.539  50.768  0.00  0.00     0.003 C 
BRANCH  11  12
ATOM     12  C   UNL d   1      57.098  49.250  50.220  0.00  0.00     0.000 A 
ATOM     13  C   UNL d   1      56.750  48.521  50.312  0.00  0.00     0.000 A 
ATOM     14  C   UNL d   1      56.222  48.232  49.764  0.00  0.00     0.000 A 
ATOM     15  C   UNL d   1      56.037  48.688  49.102  0.00  0.00     0.000 A 
ATOM     16  C   UNL d   1      56.383  49.423  49.002  0.00  0.00     0.000 A 
ATOM     17  C   UNL d   1      56.913  49.706  49.559  0.00  0.00     0.000 A 
ENDBRANCH  11  12
ENDBRANCH  10  11
ENDBRANCH   1  10
BRANCH   3  18
ATOM     18  C   UNL d   1      59.590  49.643  52.371  0.00  0.00     0.082 C 
BRANCH  18  19
ATOM     19  C   UNL d   1      59.141  49.461  53.044  0.00  0.00     0.019 C 
ATOM     20  C   UNL d   1      59.406  49.701  53.784  0.00  0.00     0.002 C 
ENDBRANCH  18  19
ENDBRANCH   3  18
TORSDOF 5
ENDMDL
