MODEL 1
REMARK VINA RESULT:       9.6      0.000      0.000
REMARK  2 active torsions:
REMARK  status: ('A' for Active; 'I' for Inactive)
REMARK       I    between atoms: C_2  and  N_4 
REMARK       I    between atoms: N_7  and  C_2 
REMARK    1  A    between atoms: N_4  and  C_8 
REMARK    2  A    between atoms: C_12  and  N_7 
ROOT
ATOM      1  C   UNL d   1      45.960 -16.877  44.300  0.00  0.00     0.369 C 
ATOM      2  N   UNL d   1      46.209 -17.653  44.388  0.00  0.00    -0.190 NA
ATOM      3  N   UNL d   1      45.898 -16.384  44.954  0.00  0.00    -0.191 NA
ATOM      4  O   UNL d   1      45.772 -16.594  43.549  0.00  0.00    -0.242 OA
ENDROOT
BRANCH   2   5
ATOM      5  C   UNL d   1      46.272 -18.146  43.739  0.00  0.00     0.098 A 
ATOM      6  C   UNL d   1      46.432 -18.769  44.262  0.00  0.00     0.118 A 
ATOM      7  S   UNL d   1      46.546 -19.454  43.815  0.00  0.00     0.213 S 
ATOM      8  O   UNL d   1      46.615 -19.554  44.627  0.00  0.00    -0.217 OA
ATOM      9  O   UNL d   1      46.647 -20.092  43.304  0.00  0.00    -0.217 OA
ATOM     10  C   UNL d   1      46.458 -19.260  43.018  0.00  0.00     0.100 A 
ATOM     11  C   UNL d   1      46.288 -18.451  42.967  0.00  0.00     0.032 A 
ENDBRANCH   2   5
BRANCH   3  12
ATOM     12  C   UNL d   1      45.648 -15.606  44.862  0.00  0.00     0.086 A 
ATOM     13  C   UNL d   1      46.196 -15.018  44.676  0.00  0.00     0.019 A 
ATOM     14  C   UNL d   1      45.951 -14.248  44.585  0.00  0.00     0.002 A 
ATOM     15  C   UNL d   1      45.156 -14.051  44.677  0.00  0.00     0.000 A 
ATOM     16  C   UNL d   1      44.607 -14.638  44.863  0.00  0.00     0.002 A 
ATOM     17  C   UNL d   1      44.857 -15.415  44.955  0.00  0.00     0.019 A 
ENDBRANCH   3  12
TORSDOF 2
ENDMDL
MODEL 2
REMARK VINA RESULT:      12.2      1.716      4.246
REMARK  2 active torsions:
REMARK  status: ('A' for Active; 'I' for Inactive)
REMARK       I    between atoms: C_2  and  N_4 
REMARK       I    between atoms: N_7  and  C_2 
REMARK    1  A    between atoms: N_4  and  C_8 
REMARK    2  A    between atoms: C_12  and  N_7 
ROOT
ATOM      1  C   UNL d   1      46.036 -16.950  44.070  0.00  0.00     0.369 C 
ATOM      2  N   UNL d   1      46.105 -16.134  44.056  0.00  0.00    -0.190 NA
ATOM      3  N   UNL d   1      46.565 -17.420  43.651  0.00  0.00    -0.191 NA
ATOM      4  O   UNL d   1      45.431 -17.298  44.509  0.00  0.00    -0.242 OA
ENDROOT
BRANCH   2   5
ATOM      5  C   UNL d   1      45.581 -15.664  44.471  0.00  0.00     0.098 A 
ATOM      6  C   UNL d   1      45.982 -15.002  44.177  0.00  0.00     0.118 A 
ATOM      7  S   UNL d   1      45.614 -14.326  44.476  0.00  0.00     0.213 S 
ATOM      8  O   UNL d   1      46.256 -14.182  43.985  0.00  0.00    -0.217 OA
ATOM      9  O   UNL d   1      45.196 -13.702  44.813  0.00  0.00    -0.217 OA
ATOM     10  C   UNL d   1      44.987 -14.564  44.955  0.00  0.00     0.100 A 
ATOM     11  C   UNL d   1      44.963 -15.393  44.954  0.00  0.00     0.032 A 
ENDBRANCH   2   5
BRANCH   3  12
ATOM     12  C   UNL d   1      46.492 -18.239  43.669  0.00  0.00     0.086 A 
ATOM     13  C   UNL d   1      46.271 -18.645  42.986  0.00  0.00     0.019 A 
ATOM     14  C   UNL d   1      46.198 -19.455  43.001  0.00  0.00     0.002 A 
ATOM     15  C   UNL d   1      46.346 -19.873  43.696  0.00  0.00     0.000 A 
ATOM     16  C   UNL d   1      46.567 -19.467  44.380  0.00  0.00     0.002 A 
ATOM     17  C   UNL d   1      46.640 -18.649  44.362  0.00  0.00     0.019 A 
ENDBRANCH   3  12
TORSDOF 2
ENDMDL
