MODEL 1
REMARK VINA RESULT:      -5.3      0.000      0.000
REMARK  4 active torsions:
REMARK  status: ('A' for Active; 'I' for Inactive)
REMARK    1  A    between atoms: C_7  and  N_2 
REMARK    2  A    between atoms: C_12  and  C_7 
REMARK    3  A    between atoms: C_9  and  O_11 
REMARK    4  A    between atoms: O_11  and  C_12 
ROOT
ATOM      1  C   UNL d   1     -42.770-122.118 -50.441  0.00  0.00     0.296 A 
ATOM      2  N   UNL d   1     -42.003-122.399 -50.542  0.00  0.00    -0.266 N 
ATOM      3  S   UNL d   1     -43.070-122.448 -49.732  0.00  0.00    -0.025 SA
ATOM      4  C   UNL d   1     -41.825-122.898 -49.905  0.00  0.00     0.074 A 
ATOM      5  C   UNL d   1     -42.478-122.929 -49.408  0.00  0.00     0.050 A 
ATOM      6  O   UNL d   1     -43.173-121.607 -50.941  0.00  0.00    -0.259 OA
ATOM      7  C   UNL d   1     -41.141-123.327 -49.723  0.00  0.00     0.018 A 
ATOM      8  C   UNL d   1     -42.463-123.389 -48.718  0.00  0.00     0.008 A 
ATOM      9  C   UNL d   1     -41.123-123.787 -49.035  0.00  0.00     0.002 A 
ATOM     10  C   UNL d   1     -41.776-123.817 -48.539  0.00  0.00     0.001 A 
ENDROOT
BRANCH   2  11
ATOM     11  C   UNL d   1     -41.499-122.216 -51.168  0.00  0.00     0.110 C 
BRANCH  11  12
ATOM     12  C   UNL d   1     -41.604-122.570 -51.904  0.00  0.00     0.142 C 
BRANCH  12  13
ATOM     13  O   UNL d   1     -41.123-122.368 -52.547  0.00  0.00    -0.304 OA
BRANCH  13  14
ATOM     14  C   UNL d   1     -41.272-122.684 -53.294  0.00  0.00     0.100 A 
ATOM     15  C   UNL d   1     -41.528-122.192 -53.905  0.00  0.00     0.025 A 
ATOM     16  C   UNL d   1     -41.676-122.508 -54.648  0.00  0.00     0.002 A 
ATOM     17  C   UNL d   1     -41.932-122.016 -55.258  0.00  0.00     0.000 C 
ATOM     18  C   UNL d   1     -41.567-123.315 -54.779  0.00  0.00     0.000 A 
ATOM     19  C   UNL d   1     -41.310-123.805 -54.163  0.00  0.00     0.002 A 
ATOM     20  C   UNL d   1     -41.164-123.481 -53.422  0.00  0.00     0.025 A 
ENDBRANCH  13  14
ENDBRANCH  12  13
ENDBRANCH  11  12
ENDBRANCH   2  11
TORSDOF 4
ENDMDL
MODEL 2
REMARK VINA RESULT:      -4.7      1.411      4.692
REMARK  4 active torsions:
REMARK  status: ('A' for Active; 'I' for Inactive)
REMARK    1  A    between atoms: C_7  and  N_2 
REMARK    2  A    between atoms: C_12  and  C_7 
REMARK    3  A    between atoms: C_9  and  O_11 
REMARK    4  A    between atoms: O_11  and  C_12 
ROOT
ATOM      1  C   UNL d   1     -41.398-123.292 -53.328  0.00  0.00     0.296 A 
ATOM      2  N   UNL d   1     -41.579-122.497 -53.226  0.00  0.00    -0.266 N 
ATOM      3  S   UNL d   1     -41.533-123.482 -54.133  0.00  0.00    -0.025 SA
ATOM      4  C   UNL d   1     -41.825-122.192 -53.957  0.00  0.00     0.074 A 
ATOM      5  C   UNL d   1     -41.797-122.795 -54.512  0.00  0.00     0.050 A 
ATOM      6  O   UNL d   1     -41.132-123.811 -52.750  0.00  0.00    -0.259 OA
ATOM      7  C   UNL d   1     -42.071-121.433 -54.176  0.00  0.00     0.018 A 
ATOM      8  C   UNL d   1     -42.014-122.654 -55.300  0.00  0.00     0.008 A 
ATOM      9  C   UNL d   1     -42.288-121.288 -54.961  0.00  0.00     0.002 A 
ATOM     10  C   UNL d   1     -42.260-121.892 -55.517  0.00  0.00     0.001 A 
ENDROOT
BRANCH   2  11
ATOM     11  C   UNL d   1     -41.526-122.074 -52.519  0.00  0.00     0.110 C 
BRANCH  11  12
ATOM     12  C   UNL d   1     -41.878-122.364 -51.834  0.00  0.00     0.142 C 
BRANCH  12  13
ATOM     13  O   UNL d   1     -41.805-121.962 -51.114  0.00  0.00    -0.304 OA
BRANCH  13  14
ATOM     14  C   UNL d   1     -42.033-122.325 -50.409  0.00  0.00     0.100 A 
ATOM     15  C   UNL d   1     -41.467-122.698 -49.937  0.00  0.00     0.025 A 
ATOM     16  C   UNL d   1     -41.695-123.058 -49.237  0.00  0.00     0.002 A 
ATOM     17  C   UNL d   1     -41.130-123.431 -48.765  0.00  0.00     0.000 C 
ATOM     18  C   UNL d   1     -42.488-123.046 -49.008  0.00  0.00     0.000 A 
ATOM     19  C   UNL d   1     -43.051-122.670 -49.484  0.00  0.00     0.002 A 
ATOM     20  C   UNL d   1     -42.815-122.311 -50.185  0.00  0.00     0.025 A 
ENDBRANCH  13  14
ENDBRANCH  12  13
ENDBRANCH  11  12
ENDBRANCH   2  11
TORSDOF 4
ENDMDL
MODEL 3
REMARK VINA RESULT:      -3.3      1.284      4.546
REMARK  4 active torsions:
REMARK  status: ('A' for Active; 'I' for Inactive)
REMARK    1  A    between atoms: C_7  and  N_2 
REMARK    2  A    between atoms: C_12  and  C_7 
REMARK    3  A    between atoms: C_9  and  O_11 
REMARK    4  A    between atoms: O_11  and  C_12 
ROOT
ATOM      1  C   UNL d   1     -41.179-121.910 -52.145  0.00  0.00     0.296 A 
ATOM      2  N   UNL d   1     -41.175-122.730 -52.198  0.00  0.00    -0.266 N 
ATOM      3  S   UNL d   1     -41.227-121.606 -52.925  0.00  0.00    -0.025 SA
ATOM      4  C   UNL d   1     -41.219-122.938 -52.999  0.00  0.00     0.074 A 
ATOM      5  C   UNL d   1     -41.251-122.249 -53.445  0.00  0.00     0.050 A 
ATOM      6  O   UNL d   1     -41.144-121.464 -51.457  0.00  0.00    -0.259 OA
ATOM      7  C   UNL d   1     -41.233-123.677 -53.371  0.00  0.00     0.018 A 
ATOM      8  C   UNL d   1     -41.299-122.284 -54.272  0.00  0.00     0.008 A 
ATOM      9  C   UNL d   1     -41.281-123.715 -54.196  0.00  0.00     0.002 A 
ATOM     10  C   UNL d   1     -41.313-123.026 -54.642  0.00  0.00     0.001 A 
ENDROOT
BRANCH   2  11
ATOM     11  C   UNL d   1     -41.133-123.257 -51.564  0.00  0.00     0.110 C 
BRANCH  11  12
ATOM     12  C   UNL d   1     -41.485-123.069 -50.844  0.00  0.00     0.142 C 
BRANCH  12  13
ATOM     13  O   UNL d   1     -41.756-123.663 -50.335  0.00  0.00    -0.304 OA
BRANCH  13  14
ATOM     14  C   UNL d   1     -41.776-123.536 -49.520  0.00  0.00     0.100 A 
ATOM     15  C   UNL d   1     -42.452-123.218 -49.169  0.00  0.00     0.025 A 
ATOM     16  C   UNL d   1     -42.470-123.093 -48.359  0.00  0.00     0.002 A 
ATOM     17  C   UNL d   1     -43.146-122.776 -48.009  0.00  0.00     0.000 C 
ATOM     18  C   UNL d   1     -41.812-123.284 -47.899  0.00  0.00     0.000 A 
ATOM     19  C   UNL d   1     -41.136-123.602 -48.255  0.00  0.00     0.002 A 
ATOM     20  C   UNL d   1     -41.126-123.725 -49.068  0.00  0.00     0.025 A 
ENDBRANCH  13  14
ENDBRANCH  12  13
ENDBRANCH  11  12
ENDBRANCH   2  11
TORSDOF 4
ENDMDL
