MODEL 1
REMARK VINA RESULT:     -10.4      0.000      0.000
REMARK  4 active torsions:
REMARK  status: ('A' for Active; 'I' for Inactive)
REMARK    1  A    between atoms: C_2  and  N_1 
REMARK    2  A    between atoms: C_12  and  C_5 
REMARK    3  A    between atoms: O_20  and  C_12 
REMARK    4  A    between atoms: C_22  and  O_20 
ROOT
ATOM      1  N   UNL d   1      53.909  32.156  53.962  0.00  0.00    -0.237 N 
ATOM      2  C   UNL d   1      54.514  32.609  53.615  0.00  0.00     0.263 A 
ATOM      3  C   UNL d   1      53.832  32.381  54.751  0.00  0.00     0.263 A 
ATOM      4  C   UNL d   1      54.390  32.976  54.906  0.00  0.00     0.039 A 
ATOM      5  C   UNL d   1      54.811  33.114  54.197  0.00  0.00     0.039 A 
ATOM      6  C   UNL d   1      54.573  33.410  55.589  0.00  0.00     0.049 A 
ATOM      7  C   UNL d   1      55.414  33.687  54.174  0.00  0.00     0.049 A 
ATOM      8  C   UNL d   1      55.176  33.982  55.567  0.00  0.00    -0.026 A 
ATOM      9  C   UNL d   1      55.598  34.123  54.862  0.00  0.00    -0.026 A 
ATOM     10  C   UNL d   1      54.731  33.277  54.833  0.00  0.00     0.018 A 
ATOM     11  O   UNL d   1      53.317  32.081  55.275  0.00  0.00    -0.267 OA
ATOM     12  O   UNL d   1      54.763  32.567  52.868  0.00  0.00    -0.267 OA
ENDROOT
BRANCH   1  13
ATOM     13  C   UNL d   1      53.475  31.596  53.585  0.00  0.00     0.105 A 
ATOM     14  C   UNL d   1      52.833  31.736  53.134  0.00  0.00     0.086 A 
ATOM     15  C   UNL d   1      52.570  31.037  52.867  0.00  0.00     0.014 A 
ATOM     16  C   UNL d   1      53.053  30.472  53.156  0.00  0.00     0.031 A 
ATOM     17  S   UNL d   1      53.609  30.817  53.598  0.00  0.00    -0.069 SA
ATOM     18  C   UNL d   1      52.921  29.707  52.977  0.00  0.00     0.007 C 
BRANCH  14  19
ATOM     19  C   UNL d   1      52.516  32.443  52.980  0.00  0.00     0.302 C 
ATOM     20  O   UNL d   1      52.830  32.909  52.421  0.00  0.00    -0.259 OA
BRANCH  19  21
ATOM     21  O   UNL d   1      51.878  32.693  53.388  0.00  0.00    -0.271 OA
BRANCH  21  22
ATOM     22  C   UNL d   1      51.417  33.197  52.976  0.00  0.00     0.126 C 
ATOM     23  C   UNL d   1      50.800  33.544  53.331  0.00  0.00     0.029 C 
ENDBRANCH  21  22
ENDBRANCH  19  21
ENDBRANCH  14  19
ENDBRANCH   1  13
TORSDOF 4
ENDMDL
MODEL 2
REMARK VINA RESULT:      -9.2      1.271      3.586
REMARK  4 active torsions:
REMARK  status: ('A' for Active; 'I' for Inactive)
REMARK    1  A    between atoms: C_2  and  N_1 
REMARK    2  A    between atoms: C_12  and  C_5 
REMARK    3  A    between atoms: O_20  and  C_12 
REMARK    4  A    between atoms: C_22  and  O_20 
ROOT
ATOM      1  N   UNL d   1      52.691  33.568  53.573  0.00  0.00    -0.237 N 
ATOM      2  C   UNL d   1      51.904  33.437  53.804  0.00  0.00     0.263 A 
ATOM      3  C   UNL d   1      52.691  33.944  52.839  0.00  0.00     0.263 A 
ATOM      4  C   UNL d   1      51.901  34.052  52.605  0.00  0.00     0.039 A 
ATOM      5  C   UNL d   1      51.416  33.735  53.208  0.00  0.00     0.039 A 
ATOM      6  C   UNL d   1      51.559  34.392  51.930  0.00  0.00     0.049 A 
ATOM      7  C   UNL d   1      50.588  33.760  53.133  0.00  0.00     0.049 A 
ATOM      8  C   UNL d   1      50.730  34.418  51.855  0.00  0.00    -0.026 A 
ATOM      9  C   UNL d   1      50.243  34.103  52.454  0.00  0.00    -0.026 A 
ATOM     10  C   UNL d   1      51.441  34.037  52.620  0.00  0.00     0.018 A 
ATOM     11  O   UNL d   1      53.331  34.166  52.427  0.00  0.00    -0.267 OA
ATOM     12  O   UNL d   1      51.661  33.092  54.469  0.00  0.00    -0.267 OA
ENDROOT
BRANCH   1  13
ATOM     13  C   UNL d   1      53.340  33.361  53.997  0.00  0.00     0.105 A 
ATOM     14  C   UNL d   1      53.733  32.670  53.931  0.00  0.00     0.086 A 
ATOM     15  C   UNL d   1      54.336  32.688  54.446  0.00  0.00     0.014 A 
ATOM     16  C   UNL d   1      54.309  33.389  54.825  0.00  0.00     0.031 A 
ATOM     17  S   UNL d   1      53.696  33.802  54.548  0.00  0.00    -0.069 SA
ATOM     18  C   UNL d   1      54.853  33.562  55.380  0.00  0.00     0.007 C 
BRANCH  14  19
ATOM     19  C   UNL d   1      53.554  32.077  53.442  0.00  0.00     0.302 C 
ATOM     20  O   UNL d   1      53.717  32.135  52.668  0.00  0.00    -0.259 OA
BRANCH  19  21
ATOM     21  O   UNL d   1      53.209  31.415  53.724  0.00  0.00    -0.271 OA
BRANCH  21  22
ATOM     22  C   UNL d   1      53.401  30.760  53.313  0.00  0.00     0.126 C 
ATOM     23  C   UNL d   1      53.040  30.074  53.477  0.00  0.00     0.029 C 
ENDBRANCH  21  22
ENDBRANCH  19  21
ENDBRANCH  14  19
ENDBRANCH   1  13
TORSDOF 4
ENDMDL
MODEL 3
REMARK VINA RESULT:      -8.2      0.903      3.258
REMARK  4 active torsions:
REMARK  status: ('A' for Active; 'I' for Inactive)
REMARK    1  A    between atoms: C_2  and  N_1 
REMARK    2  A    between atoms: C_12  and  C_5 
REMARK    3  A    between atoms: O_20  and  C_12 
REMARK    4  A    between atoms: C_22  and  O_20 
ROOT
ATOM      1  N   UNL d   1      52.430  32.513  53.147  0.00  0.00    -0.237 N 
ATOM      2  C   UNL d   1      51.657  32.626  53.432  0.00  0.00     0.263 A 
ATOM      3  C   UNL d   1      52.612  33.129  52.629  0.00  0.00     0.263 A 
ATOM      4  C   UNL d   1      51.953  33.633  52.586  0.00  0.00     0.039 A 
ATOM      5  C   UNL d   1      51.363  33.317  53.087  0.00  0.00     0.039 A 
ATOM      6  C   UNL d   1      51.810  34.332  52.164  0.00  0.00     0.049 A 
ATOM      7  C   UNL d   1      50.630  33.703  53.163  0.00  0.00     0.049 A 
ATOM      8  C   UNL d   1      51.076  34.718  52.239  0.00  0.00    -0.026 A 
ATOM      9  C   UNL d   1      50.485  34.406  52.737  0.00  0.00    -0.026 A 
ATOM     10  C   UNL d   1      51.532  33.800  52.668  0.00  0.00     0.018 A 
ATOM     11  O   UNL d   1      53.296  33.225  52.239  0.00  0.00    -0.267 OA
ATOM     12  O   UNL d   1      51.272  32.163  53.939  0.00  0.00    -0.267 OA
ENDROOT
BRANCH   1  13
ATOM     13  C   UNL d   1      52.913  31.905  53.345  0.00  0.00     0.105 A 
ATOM     14  C   UNL d   1      53.464  31.922  53.921  0.00  0.00     0.086 A 
ATOM     15  C   UNL d   1      53.817  31.212  53.937  0.00  0.00     0.014 A 
ATOM     16  C   UNL d   1      53.481  30.763  53.370  0.00  0.00     0.031 A 
ATOM     17  S   UNL d   1      52.925  31.190  53.007  0.00  0.00    -0.069 SA
ATOM     18  C   UNL d   1      53.728  30.015  53.257  0.00  0.00     0.007 C 
BRANCH  14  19
ATOM     19  C   UNL d   1      53.628  32.535  54.391  0.00  0.00     0.302 C 
ATOM     20  O   UNL d   1      53.123  32.745  54.965  0.00  0.00    -0.259 OA
BRANCH  19  21
ATOM     21  O   UNL d   1      54.304  32.947  54.291  0.00  0.00    -0.271 OA
BRANCH  21  22
ATOM     22  C   UNL d   1      54.581  33.269  54.965  0.00  0.00     0.126 C 
ATOM     23  C   UNL d   1      55.216  33.742  54.943  0.00  0.00     0.029 C 
ENDBRANCH  21  22
ENDBRANCH  19  21
ENDBRANCH  14  19
ENDBRANCH   1  13
TORSDOF 4
ENDMDL
MODEL 4
REMARK VINA RESULT:      -8.2      1.144      2.052
REMARK  4 active torsions:
REMARK  status: ('A' for Active; 'I' for Inactive)
REMARK    1  A    between atoms: C_2  and  N_1 
REMARK    2  A    between atoms: C_12  and  C_5 
REMARK    3  A    between atoms: O_20  and  C_12 
REMARK    4  A    between atoms: C_22  and  O_20 
ROOT
ATOM      1  N   UNL d   1      53.162  33.504  53.796  0.00  0.00    -0.237 N 
ATOM      2  C   UNL d   1      53.929  33.641  53.505  0.00  0.00     0.263 A 
ATOM      3  C   UNL d   1      53.201  33.428  54.616  0.00  0.00     0.263 A 
ATOM      4  C   UNL d   1      53.994  33.517  54.846  0.00  0.00     0.039 A 
ATOM      5  C   UNL d   1      54.442  33.649  54.153  0.00  0.00     0.039 A 
ATOM      6  C   UNL d   1      54.369  33.496  55.586  0.00  0.00     0.049 A 
ATOM      7  C   UNL d   1      55.265  33.759  54.203  0.00  0.00     0.049 A 
ATOM      8  C   UNL d   1      55.192  33.606  55.636  0.00  0.00    -0.026 A 
ATOM      9  C   UNL d   1      55.642  33.738  54.947  0.00  0.00    -0.026 A 
ATOM     10  C   UNL d   1      54.448  33.584  54.811  0.00  0.00     0.018 A 
ATOM     11  O   UNL d   1      52.589  33.294  55.103  0.00  0.00    -0.267 OA
ATOM     12  O   UNL d   1      54.134  33.745  52.752  0.00  0.00    -0.267 OA
ENDROOT
BRANCH   1  13
ATOM     13  C   UNL d   1      52.498  33.456  53.348  0.00  0.00     0.105 A 
ATOM     14  C   UNL d   1      52.263  32.812  52.940  0.00  0.00     0.086 A 
ATOM     15  C   UNL d   1      51.584  32.996  52.574  0.00  0.00     0.014 A 
ATOM     16  C   UNL d   1      51.407  33.751  52.759  0.00  0.00     0.031 A 
ATOM     17  S   UNL d   1      51.970  34.033  53.235  0.00  0.00    -0.069 SA
ATOM     18  C   UNL d   1      50.747  34.087  52.466  0.00  0.00     0.007 C 
BRANCH  14  19
ATOM     19  C   UNL d   1      52.638  32.118  52.908  0.00  0.00     0.302 C 
ATOM     20  O   UNL d   1      53.276  32.030  52.445  0.00  0.00    -0.259 OA
BRANCH  19  21
ATOM     21  O   UNL d   1      52.377  31.501  53.341  0.00  0.00    -0.271 OA
BRANCH  21  22
ATOM     22  C   UNL d   1      52.563  30.793  53.026  0.00  0.00     0.126 C 
ATOM     23  C   UNL d   1      52.514  30.140  53.471  0.00  0.00     0.029 C 
ENDBRANCH  21  22
ENDBRANCH  19  21
ENDBRANCH  14  19
ENDBRANCH   1  13
TORSDOF 4
ENDMDL
MODEL 5
REMARK VINA RESULT:      -8.0      1.036      3.193
REMARK  4 active torsions:
REMARK  status: ('A' for Active; 'I' for Inactive)
REMARK    1  A    between atoms: C_2  and  N_1 
REMARK    2  A    between atoms: C_12  and  C_5 
REMARK    3  A    between atoms: O_20  and  C_12 
REMARK    4  A    between atoms: C_22  and  O_20 
ROOT
ATOM      1  N   UNL d   1      53.776  32.099  54.012  0.00  0.00    -0.237 N 
ATOM      2  C   UNL d   1      53.444  31.486  54.466  0.00  0.00     0.263 A 
ATOM      3  C   UNL d   1      53.809  31.855  53.225  0.00  0.00     0.263 A 
ATOM      4  C   UNL d   1      53.498  31.086  53.180  0.00  0.00     0.039 A 
ATOM      5  C   UNL d   1      53.273  30.862  53.954  0.00  0.00     0.039 A 
ATOM      6  C   UNL d   1      53.389  30.562  52.547  0.00  0.00     0.049 A 
ATOM      7  C   UNL d   1      52.938  30.112  54.090  0.00  0.00     0.049 A 
ATOM      8  C   UNL d   1      53.055  29.812  52.683  0.00  0.00    -0.026 A 
ATOM      9  C   UNL d   1      52.829  29.585  53.452  0.00  0.00    -0.026 A 
ATOM     10  C   UNL d   1      53.310  30.688  53.316  0.00  0.00     0.018 A 
ATOM     11  O   UNL d   1      54.089  32.278  52.616  0.00  0.00    -0.267 OA
ATOM     12  O   UNL d   1      53.315  31.495  55.243  0.00  0.00    -0.267 OA
ENDROOT
BRANCH   1  13
ATOM     13  C   UNL d   1      54.021  32.807  54.298  0.00  0.00     0.105 A 
ATOM     14  C   UNL d   1      53.589  33.478  54.302  0.00  0.00     0.086 A 
ATOM     15  C   UNL d   1      54.033  34.047  54.631  0.00  0.00     0.014 A 
ATOM     16  C   UNL d   1      54.734  33.722  54.827  0.00  0.00     0.031 A 
ATOM     17  S   UNL d   1      54.726  32.959  54.622  0.00  0.00    -0.069 SA
ATOM     18  C   UNL d   1      55.296  34.169  55.171  0.00  0.00     0.007 C 
BRANCH  14  19
ATOM     19  C   UNL d   1      52.853  33.560  54.027  0.00  0.00     0.302 C 
ATOM     20  O   UNL d   1      52.237  33.300  54.453  0.00  0.00    -0.259 OA
BRANCH  19  21
ATOM     21  O   UNL d   1      52.726  33.905  53.320  0.00  0.00    -0.271 OA
BRANCH  21  22
ATOM     22  C   UNL d   1      52.023  34.278  53.272  0.00  0.00     0.126 C 
ATOM     23  C   UNL d   1      51.722  34.460  52.562  0.00  0.00     0.029 C 
ENDBRANCH  21  22
ENDBRANCH  19  21
ENDBRANCH  14  19
ENDBRANCH   1  13
TORSDOF 4
ENDMDL
MODEL 6
REMARK VINA RESULT:      -7.7      1.137      3.450
REMARK  4 active torsions:
REMARK  status: ('A' for Active; 'I' for Inactive)
REMARK    1  A    between atoms: C_2  and  N_1 
REMARK    2  A    between atoms: C_12  and  C_5 
REMARK    3  A    between atoms: O_20  and  C_12 
REMARK    4  A    between atoms: C_22  and  O_20 
ROOT
ATOM      1  N   UNL d   1      52.968  32.018  53.567  0.00  0.00    -0.237 N 
ATOM      2  C   UNL d   1      53.097  31.591  54.268  0.00  0.00     0.263 A 
ATOM      3  C   UNL d   1      52.972  31.491  52.933  0.00  0.00     0.263 A 
ATOM      4  C   UNL d   1      53.104  30.728  53.233  0.00  0.00     0.039 A 
ATOM      5  C   UNL d   1      53.182  30.796  54.063  0.00  0.00     0.039 A 
ATOM      6  C   UNL d   1      53.165  29.986  52.868  0.00  0.00     0.049 A 
ATOM      7  C   UNL d   1      53.320  30.118  54.525  0.00  0.00     0.049 A 
ATOM      8  C   UNL d   1      53.303  29.308  53.331  0.00  0.00    -0.026 A 
ATOM      9  C   UNL d   1      53.381  29.371  54.158  0.00  0.00    -0.026 A 
ATOM     10  C   UNL d   1      53.181  30.392  53.539  0.00  0.00     0.018 A 
ATOM     11  O   UNL d   1      52.867  31.678  52.169  0.00  0.00    -0.267 OA
ATOM     12  O   UNL d   1      53.134  31.886  54.998  0.00  0.00    -0.267 OA
ENDROOT
BRANCH   1  13
ATOM     13  C   UNL d   1      52.858  32.812  53.521  0.00  0.00     0.105 A 
ATOM     14  C   UNL d   1      53.433  33.361  53.569  0.00  0.00     0.086 A 
ATOM     15  C   UNL d   1      53.092  34.073  53.498  0.00  0.00     0.014 A 
ATOM     16  C   UNL d   1      52.308  33.957  53.408  0.00  0.00     0.031 A 
ATOM     17  S   UNL d   1      52.165  33.180  53.422  0.00  0.00    -0.069 SA
ATOM     18  C   UNL d   1      51.821  34.581  53.324  0.00  0.00     0.007 C 
BRANCH  14  19
ATOM     19  C   UNL d   1      54.204  33.221  53.668  0.00  0.00     0.302 C 
ATOM     20  O   UNL d   1      54.644  32.962  53.061  0.00  0.00    -0.259 OA
BRANCH  19  21
ATOM     21  O   UNL d   1      54.545  33.339  54.379  0.00  0.00    -0.271 OA
BRANCH  21  22
ATOM     22  C   UNL d   1      55.286  33.628  54.331  0.00  0.00     0.126 C 
ATOM     23  C   UNL d   1      55.663  33.855  54.989  0.00  0.00     0.029 C 
ENDBRANCH  21  22
ENDBRANCH  19  21
ENDBRANCH  14  19
ENDBRANCH   1  13
TORSDOF 4
ENDMDL
