MODEL 1
REMARK VINA RESULT:      -4.6      0.000      0.000
REMARK  4 active torsions:
REMARK  status: ('A' for Active; 'I' for Inactive)
REMARK    1  A    between atoms: N_3  and  C_1 
REMARK    2  A    between atoms: N_5  and  N_2 
REMARK    3  A    between atoms: S_4  and  N_5 
REMARK    4  A    between atoms: C_13  and  S_4 
ROOT
ATOM      1  C   UNL d   1      58.544  -0.782  29.129  0.00  0.00     0.771 A 
ATOM      2  N   UNL d   1      58.220  -0.443  29.799  0.00  0.00    -0.026 N 
ATOM      3  N   UNL d   1      58.273  -0.354  28.477  0.00  0.00     0.048 NA
ATOM      4  C   UNL d   1      57.753   0.186  29.577  0.00  0.00     0.204 A 
ATOM      5  N   UNL d   1      57.782   0.247  28.755  0.00  0.00    -0.112 NA
ATOM      6  C   UNL d   1      57.323   0.682  30.076  0.00  0.00     0.044 C 
ENDROOT
BRANCH   2   7
ATOM      7  N   UNL d   1      58.338  -0.689  30.577  0.00  0.00    -0.056 NA
BRANCH   7   8
ATOM      8  S   UNL d   1      57.733  -0.643  31.132  0.00  0.00     0.301 S 
ATOM      9  O   UNL d   1      57.378  -1.306  30.816  0.00  0.00    -0.197 OA
ATOM     10  O   UNL d   1      58.097   0.029  31.448  0.00  0.00    -0.197 OA
BRANCH   8  11
ATOM     11  C   UNL d   1      57.135  -0.580  31.696  0.00  0.00     0.107 A 
ATOM     12  C   UNL d   1      56.619  -1.211  31.813  0.00  0.00     0.015 A 
ATOM     13  C   UNL d   1      56.019  -1.151  32.379  0.00  0.00     0.030 A 
ATOM     14  C   UNL d   1      55.941  -0.456  32.823  0.00  0.00     0.140 A 
ATOM     15  C   UNL d   1      56.457   0.176  32.707  0.00  0.00     0.030 A 
ATOM     16  F   UNL d   1      55.345  -0.400  33.383  0.00  0.00    -0.204 F 
ATOM     17  C   UNL d   1      57.058   0.116  32.141  0.00  0.00     0.015 A 
ENDBRANCH   8  11
ENDBRANCH   7   8
ENDBRANCH   2   7
BRANCH   1  18
ATOM     18  N   UNL d   1      59.050  -1.433  29.112  0.00  0.00    -0.056 N 
ATOM     19  N   UNL d   1      58.833  -2.221  29.223  0.00  0.00    -0.150 NA
ATOM     20  C   UNL d   1      59.511  -2.685  29.161  0.00  0.00     0.103 A 
ATOM     21  C   UNL d   1      59.549  -3.501  29.234  0.00  0.00     0.022 C 
ATOM     22  C   UNL d   1      60.150  -2.185  29.011  0.00  0.00     0.041 A 
ATOM     23  C   UNL d   1      59.857  -1.411  28.982  0.00  0.00     0.102 A 
ATOM     24  C   UNL d   1      60.307  -0.735  28.844  0.00  0.00     0.021 C 
ENDBRANCH   1  18
TORSDOF 4
ENDMDL
MODEL 2
REMARK VINA RESULT:      -3.2      0.956      1.375
REMARK  4 active torsions:
REMARK  status: ('A' for Active; 'I' for Inactive)
REMARK    1  A    between atoms: N_3  and  C_1 
REMARK    2  A    between atoms: N_5  and  N_2 
REMARK    3  A    between atoms: S_4  and  N_5 
REMARK    4  A    between atoms: C_13  and  S_4 
ROOT
ATOM      1  C   UNL d   1      59.486  -1.385  29.225  0.00  0.00     0.771 A 
ATOM      2  N   UNL d   1      58.939  -0.818  29.446  0.00  0.00    -0.026 N 
ATOM      3  N   UNL d   1      60.222  -1.014  29.172  0.00  0.00     0.048 NA
ATOM      4  C   UNL d   1      59.321  -0.103  29.532  0.00  0.00     0.204 A 
ATOM      5  N   UNL d   1      60.120  -0.219  29.363  0.00  0.00    -0.112 NA
ATOM      6  C   UNL d   1      58.980   0.615  29.750  0.00  0.00     0.044 C 
ENDROOT
BRANCH   2   7
ATOM      7  N   UNL d   1      58.133  -0.937  29.566  0.00  0.00    -0.056 NA
BRANCH   7   8
ATOM      8  S   UNL d   1      57.764  -0.677  30.253  0.00  0.00     0.301 S 
ATOM      9  O   UNL d   1      58.230  -1.172  30.704  0.00  0.00    -0.197 OA
ATOM     10  O   UNL d   1      57.295  -0.176  29.791  0.00  0.00    -0.197 OA
BRANCH   8  11
ATOM     11  C   UNL d   1      57.382  -0.403  30.931  0.00  0.00     0.107 A 
ATOM     12  C   UNL d   1      57.114  -0.944  31.492  0.00  0.00     0.015 A 
ATOM     13  C   UNL d   1      56.731  -0.673  32.172  0.00  0.00     0.030 A 
ATOM     14  C   UNL d   1      56.619   0.141  32.285  0.00  0.00     0.140 A 
ATOM     15  C   UNL d   1      56.887   0.682  31.724  0.00  0.00     0.030 A 
ATOM     16  F   UNL d   1      56.239   0.406  32.960  0.00  0.00    -0.204 F 
ATOM     17  C   UNL d   1      57.271   0.412  31.043  0.00  0.00     0.015 A 
ENDBRANCH   8  11
ENDBRANCH   7   8
ENDBRANCH   2   7
BRANCH   1  18
ATOM     18  N   UNL d   1      59.326  -2.181  29.081  0.00  0.00    -0.056 N 
ATOM     19  N   UNL d   1      58.623  -2.490  28.780  0.00  0.00    -0.150 NA
ATOM     20  C   UNL d   1      58.705  -3.308  28.726  0.00  0.00     0.103 A 
ATOM     21  C   UNL d   1      58.138  -3.835  28.455  0.00  0.00     0.022 C 
ATOM     22  C   UNL d   1      59.459  -3.508  28.994  0.00  0.00     0.041 A 
ATOM     23  C   UNL d   1      59.839  -2.805  29.212  0.00  0.00     0.102 A 
ATOM     24  C   UNL d   1      60.605  -2.748  29.511  0.00  0.00     0.021 C 
ENDBRANCH   1  18
TORSDOF 4
ENDMDL
MODEL 3
REMARK VINA RESULT:      -2.1      2.142      4.311
REMARK  4 active torsions:
REMARK  status: ('A' for Active; 'I' for Inactive)
REMARK    1  A    between atoms: N_3  and  C_1 
REMARK    2  A    between atoms: N_5  and  N_2 
REMARK    3  A    between atoms: S_4  and  N_5 
REMARK    4  A    between atoms: C_13  and  S_4 
ROOT
ATOM      1  C   UNL d   1      57.025  -0.110  32.804  0.00  0.00     0.771 A 
ATOM      2  N   UNL d   1      57.330  -0.024  32.049  0.00  0.00    -0.026 N 
ATOM      3  N   UNL d   1      57.506   0.321  33.318  0.00  0.00     0.048 NA
ATOM      4  C   UNL d   1      57.991   0.451  32.086  0.00  0.00     0.204 A 
ATOM      5  N   UNL d   1      58.105   0.670  32.873  0.00  0.00    -0.112 NA
ATOM      6  C   UNL d   1      58.468   0.681  31.453  0.00  0.00     0.044 C 
ENDROOT
BRANCH   2   7
ATOM      7  N   UNL d   1      57.029  -0.358  31.359  0.00  0.00    -0.056 NA
BRANCH   7   8
ATOM      8  S   UNL d   1      57.529  -0.633  30.768  0.00  0.00     0.301 S 
ATOM      9  O   UNL d   1      57.331  -0.003  30.291  0.00  0.00    -0.197 OA
ATOM     10  O   UNL d   1      57.728  -1.270  31.257  0.00  0.00    -0.197 OA
BRANCH   8  11
ATOM     11  C   UNL d   1      58.037  -0.925  30.188  0.00  0.00     0.107 A 
ATOM     12  C   UNL d   1      58.151  -1.739  30.120  0.00  0.00     0.015 A 
ATOM     13  C   UNL d   1      58.660  -2.035  29.540  0.00  0.00     0.030 A 
ATOM     14  C   UNL d   1      59.051  -1.512  29.030  0.00  0.00     0.140 A 
ATOM     15  C   UNL d   1      58.937  -0.698  29.097  0.00  0.00     0.030 A 
ATOM     16  F   UNL d   1      59.554  -1.809  28.456  0.00  0.00    -0.204 F 
ATOM     17  C   UNL d   1      58.429  -0.401  29.678  0.00  0.00     0.015 A 
ENDBRANCH   8  11
ENDBRANCH   7   8
ENDBRANCH   2   7
BRANCH   1  18
ATOM     18  N   UNL d   1      56.357  -0.549  33.008  0.00  0.00    -0.056 N 
ATOM     19  N   UNL d   1      56.301  -1.371  33.024  0.00  0.00    -0.150 NA
ATOM     20  C   UNL d   1      55.537  -1.572  33.259  0.00  0.00     0.103 A 
ATOM     21  C   UNL d   1      55.241  -2.332  33.349  0.00  0.00     0.022 C 
ATOM     22  C   UNL d   1      55.118  -0.873  33.388  0.00  0.00     0.041 A 
ATOM     23  C   UNL d   1      55.631  -0.243  33.231  0.00  0.00     0.102 A 
ATOM     24  C   UNL d   1      55.440   0.556  33.291  0.00  0.00     0.021 C 
ENDBRANCH   1  18
TORSDOF 4
ENDMDL
MODEL 4
REMARK VINA RESULT:      -1.9      2.529      4.604
REMARK  4 active torsions:
REMARK  status: ('A' for Active; 'I' for Inactive)
REMARK    1  A    between atoms: N_3  and  C_1 
REMARK    2  A    between atoms: N_5  and  N_2 
REMARK    3  A    between atoms: S_4  and  N_5 
REMARK    4  A    between atoms: C_13  and  S_4 
ROOT
ATOM      1  C   UNL d   1      56.480  -0.680  32.658  0.00  0.00     0.771 A 
ATOM      2  N   UNL d   1      56.814  -0.461  31.944  0.00  0.00    -0.026 N 
ATOM      3  N   UNL d   1      56.255  -1.473  32.595  0.00  0.00     0.048 NA
ATOM      4  C   UNL d   1      56.801  -1.100  31.440  0.00  0.00     0.204 A 
ATOM      5  N   UNL d   1      56.454  -1.733  31.839  0.00  0.00    -0.112 NA
ATOM      6  C   UNL d   1      57.082  -1.123  30.665  0.00  0.00     0.044 C 
ENDROOT
BRANCH   2   7
ATOM      7  N   UNL d   1      57.117   0.282  31.754  0.00  0.00    -0.056 NA
BRANCH   7   8
ATOM      8  S   UNL d   1      57.803   0.357  31.307  0.00  0.00     0.301 S 
ATOM      9  O   UNL d   1      58.258   0.143  31.949  0.00  0.00    -0.197 OA
ATOM     10  O   UNL d   1      57.337   0.573  30.659  0.00  0.00    -0.197 OA
BRANCH   8  11
ATOM     11  C   UNL d   1      58.479   0.438  30.842  0.00  0.00     0.107 A 
ATOM     12  C   UNL d   1      59.208   0.563  31.205  0.00  0.00     0.015 A 
ATOM     13  C   UNL d   1      59.888   0.645  30.742  0.00  0.00     0.030 A 
ATOM     14  C   UNL d   1      59.831   0.600  29.916  0.00  0.00     0.140 A 
ATOM     15  C   UNL d   1      59.102   0.475  29.553  0.00  0.00     0.030 A 
ATOM     16  F   UNL d   1      60.507   0.681  29.460  0.00  0.00    -0.204 F 
ATOM     17  C   UNL d   1      58.421   0.393  30.016  0.00  0.00     0.015 A 
ENDBRANCH   8  11
ENDBRANCH   7   8
ENDBRANCH   2   7
BRANCH   1  18
ATOM     18  N   UNL d   1      56.387  -0.195  33.318  0.00  0.00    -0.056 N 
ATOM     19  N   UNL d   1      56.925  -0.106  33.937  0.00  0.00    -0.150 NA
ATOM     20  C   UNL d   1      56.610   0.431  34.476  0.00  0.00     0.103 A 
ATOM     21  C   UNL d   1      56.961   0.682  35.174  0.00  0.00     0.022 C 
ATOM     22  C   UNL d   1      55.874   0.676  34.193  0.00  0.00     0.041 A 
ATOM     23  C   UNL d   1      55.742   0.284  33.475  0.00  0.00     0.102 A 
ATOM     24  C   UNL d   1      55.073   0.366  33.002  0.00  0.00     0.021 C 
ENDBRANCH   1  18
TORSDOF 4
ENDMDL
MODEL 5
REMARK VINA RESULT:      -1.8      1.609      2.154
REMARK  4 active torsions:
REMARK  status: ('A' for Active; 'I' for Inactive)
REMARK    1  A    between atoms: N_3  and  C_1 
REMARK    2  A    between atoms: N_5  and  N_2 
REMARK    3  A    between atoms: S_4  and  N_5 
REMARK    4  A    between atoms: C_13  and  S_4 
ROOT
ATOM      1  C   UNL d   1      58.356  -0.619  30.307  0.00  0.00     0.771 A 
ATOM      2  N   UNL d   1      57.773  -0.387  30.832  0.00  0.00    -0.026 N 
ATOM      3  N   UNL d   1      58.177  -1.386  30.059  0.00  0.00     0.048 NA
ATOM      4  C   UNL d   1      57.237  -0.995  30.916  0.00  0.00     0.204 A 
ATOM      5  N   UNL d   1      57.483  -1.620  30.437  0.00  0.00    -0.112 NA
ATOM      6  C   UNL d   1      56.563  -0.996  31.392  0.00  0.00     0.044 C 
ENDROOT
BRANCH   2   7
ATOM      7  N   UNL d   1      57.724   0.338  31.220  0.00  0.00    -0.056 NA
BRANCH   7   8
ATOM      8  S   UNL d   1      57.341   0.407  31.944  0.00  0.00     0.301 S 
ATOM      9  O   UNL d   1      56.615   0.381  31.574  0.00  0.00    -0.197 OA
ATOM     10  O   UNL d   1      58.080   0.432  32.314  0.00  0.00    -0.197 OA
BRANCH   8  11
ATOM     11  C   UNL d   1      56.975   0.476  32.679  0.00  0.00     0.107 A 
ATOM     12  C   UNL d   1      57.430   0.434  33.365  0.00  0.00     0.015 A 
ATOM     13  C   UNL d   1      57.066   0.503  34.104  0.00  0.00     0.030 A 
ATOM     14  C   UNL d   1      56.246   0.614  34.150  0.00  0.00     0.140 A 
ATOM     15  C   UNL d   1      55.790   0.656  33.464  0.00  0.00     0.030 A 
ATOM     16  F   UNL d   1      55.889   0.682  34.884  0.00  0.00    -0.204 F 
ATOM     17  C   UNL d   1      56.154   0.587  32.725  0.00  0.00     0.015 A 
ENDBRANCH   8  11
ENDBRANCH   7   8
ENDBRANCH   2   7
BRANCH   1  18
ATOM     18  N   UNL d   1      59.002  -0.165  30.071  0.00  0.00    -0.056 N 
ATOM     19  N   UNL d   1      59.704  -0.061  30.491  0.00  0.00    -0.150 NA
ATOM     20  C   UNL d   1      60.196   0.433  30.052  0.00  0.00     0.103 A 
ATOM     21  C   UNL d   1      60.948   0.682  30.263  0.00  0.00     0.022 C 
ATOM     22  C   UNL d   1      59.799   0.637  29.358  0.00  0.00     0.041 A 
ATOM     23  C   UNL d   1      59.060   0.263  29.376  0.00  0.00     0.102 A 
ATOM     24  C   UNL d   1      58.483   0.317  28.790  0.00  0.00     0.021 C 
ENDBRANCH   1  18
TORSDOF 4
ENDMDL
