MODEL 1
REMARK VINA RESULT:      -7.5      0.000      0.000
REMARK  6 active torsions:
REMARK  status: ('A' for Active; 'I' for Inactive)
REMARK    1  A    between atoms: N_4  and  C_1 
REMARK    2  A    between atoms: N_8  and  C_1 
REMARK       I    between atoms: C_2  and  N_3 
REMARK    3  A    between atoms: C_6  and  C_2 
REMARK    4  A    between atoms: N_3  and  N_4 
REMARK    5  A    between atoms: C_17  and  N_8 
REMARK    6  A    between atoms: C_11  and  C_17 
ROOT
ATOM      1  C   UNL d   1      54.514  33.569  54.749  0.00  0.00     0.297 C 
ATOM      2  N   UNL d   1      54.044  34.255  54.630  0.00  0.00    -0.103 NA
ATOM      3  O   UNL d   1      55.208  33.630  55.179  0.00  0.00    -0.264 OA
ENDROOT
BRANCH   1   4
ATOM      4  C   UNL d   1      54.272  32.832  54.430  0.00  0.00     0.059 A 
ATOM      5  C   UNL d   1      54.516  32.627  53.679  0.00  0.00     0.005 A 
ATOM      6  C   UNL d   1      54.282  31.904  53.356  0.00  0.00     0.007 A 
ATOM      7  C   UNL d   1      53.808  31.397  53.790  0.00  0.00     0.035 A 
ATOM      8  C   UNL d   1      53.555  31.600  54.557  0.00  0.00     0.007 A 
ATOM      9 BR   UNL d   1      53.566  30.652  53.460  0.00  0.00    -0.049 Br
ATOM     10  C   UNL d   1      53.797  32.325  54.864  0.00  0.00     0.005 A 
ENDBRANCH   1   4
BRANCH   2  11
ATOM     11  N   UNL d   1      53.335  34.192  54.190  0.00  0.00    -0.114 NA
BRANCH  11  12
ATOM     12  C   UNL d   1      52.899  34.855  54.021  0.00  0.00     0.241 C 
ATOM     13  S   UNL d   1      52.908  35.502  54.538  0.00  0.00    -0.035 SA
BRANCH  12  14
ATOM     14  N   UNL d   1      52.437  34.889  53.324  0.00  0.00    -0.215 NA
BRANCH  14  15
ATOM     15  C   UNL d   1      51.633  34.688  53.355  0.00  0.00     0.102 C 
BRANCH  15  16
ATOM     16  C   UNL d   1      51.243  34.461  52.665  0.00  0.00     0.021 C 
ATOM     17  C   UNL d   1      50.473  34.190  52.696  0.00  0.00     0.002 C 
ENDBRANCH  15  16
ENDBRANCH  14  15
ENDBRANCH  12  14
ENDBRANCH  11  12
ENDBRANCH   2  11
TORSDOF 6
ENDMDL
MODEL 2
REMARK VINA RESULT:      -7.5      2.804      4.063
REMARK  6 active torsions:
REMARK  status: ('A' for Active; 'I' for Inactive)
REMARK    1  A    between atoms: N_4  and  C_1 
REMARK    2  A    between atoms: N_8  and  C_1 
REMARK       I    between atoms: C_2  and  N_3 
REMARK    3  A    between atoms: C_6  and  C_2 
REMARK    4  A    between atoms: N_3  and  N_4 
REMARK    5  A    between atoms: C_17  and  N_8 
REMARK    6  A    between atoms: C_11  and  C_17 
ROOT
ATOM      1  C   UNL d   1      52.824  32.516  52.881  0.00  0.00     0.297 C 
ATOM      2  N   UNL d   1      52.687  31.694  52.780  0.00  0.00    -0.103 NA
ATOM      3  O   UNL d   1      52.428  33.049  52.403  0.00  0.00    -0.264 OA
ENDROOT
BRANCH   1   4
ATOM      4  C   UNL d   1      53.361  32.784  53.467  0.00  0.00     0.059 A 
ATOM      5  C   UNL d   1      53.068  33.040  54.185  0.00  0.00     0.005 A 
ATOM      6  C   UNL d   1      53.588  33.305  54.768  0.00  0.00     0.007 A 
ATOM      7  C   UNL d   1      54.395  33.310  54.625  0.00  0.00     0.035 A 
ATOM      8  C   UNL d   1      54.701  33.051  53.895  0.00  0.00     0.007 A 
ATOM      9 BR   UNL d   1      54.933  33.583  55.223  0.00  0.00    -0.049 Br
ATOM     10  C   UNL d   1      54.167  32.789  53.324  0.00  0.00     0.005 A 
ENDBRANCH   1   4
BRANCH   2  11
ATOM     11  N   UNL d   1      53.092  31.149  53.269  0.00  0.00    -0.114 NA
BRANCH  11  12
ATOM     12  C   UNL d   1      52.938  30.355  53.211  0.00  0.00     0.241 C 
ATOM     13  S   UNL d   1      52.960  29.980  52.472  0.00  0.00    -0.035 SA
BRANCH  12  14
ATOM     14  N   UNL d   1      52.758  29.908  53.895  0.00  0.00    -0.215 NA
BRANCH  14  15
ATOM     15  C   UNL d   1      53.267  29.299  54.134  0.00  0.00     0.102 C 
BRANCH  15  16
ATOM     16  C   UNL d   1      53.238  29.023  54.910  0.00  0.00     0.021 C 
ATOM     17  C   UNL d   1      53.616  28.329  55.116  0.00  0.00     0.002 C 
ENDBRANCH  15  16
ENDBRANCH  14  15
ENDBRANCH  12  14
ENDBRANCH  11  12
ENDBRANCH   2  11
TORSDOF 6
ENDMDL
MODEL 3
REMARK VINA RESULT:      -7.3      1.800      3.488
REMARK  6 active torsions:
REMARK  status: ('A' for Active; 'I' for Inactive)
REMARK    1  A    between atoms: N_4  and  C_1 
REMARK    2  A    between atoms: N_8  and  C_1 
REMARK       I    between atoms: C_2  and  N_3 
REMARK    3  A    between atoms: C_6  and  C_2 
REMARK    4  A    between atoms: N_3  and  N_4 
REMARK    5  A    between atoms: C_17  and  N_8 
REMARK    6  A    between atoms: C_11  and  C_17 
ROOT
ATOM      1  C   UNL d   1      52.958  34.733  53.871  0.00  0.00     0.297 C 
ATOM      2  N   UNL d   1      53.453  34.116  54.153  0.00  0.00    -0.103 NA
ATOM      3  O   UNL d   1      53.128  35.507  54.076  0.00  0.00    -0.264 OA
ENDROOT
BRANCH   1   4
ATOM      4  C   UNL d   1      52.297  34.554  53.386  0.00  0.00     0.059 A 
ATOM      5  C   UNL d   1      51.575  34.412  53.739  0.00  0.00     0.005 A 
ATOM      6  C   UNL d   1      50.919  34.235  53.270  0.00  0.00     0.007 A 
ATOM      7  C   UNL d   1      50.995  34.202  52.456  0.00  0.00     0.035 A 
ATOM      8  C   UNL d   1      51.729  34.346  52.089  0.00  0.00     0.007 A 
ATOM      9 BR   UNL d   1      50.322  34.020  51.971  0.00  0.00    -0.049 Br
ATOM     10  C   UNL d   1      52.373  34.522  52.572  0.00  0.00     0.005 A 
ENDBRANCH   1   4
BRANCH   2  11
ATOM     11  N   UNL d   1      53.279  33.325  53.943  0.00  0.00    -0.114 NA
BRANCH  11  12
ATOM     12  C   UNL d   1      53.765  32.722  54.183  0.00  0.00     0.241 C 
ATOM     13  S   UNL d   1      54.131  32.753  54.926  0.00  0.00    -0.035 SA
BRANCH  12  14
ATOM     14  N   UNL d   1      53.901  32.065  53.683  0.00  0.00    -0.215 NA
BRANCH  14  15
ATOM     15  C   UNL d   1      53.563  31.330  53.870  0.00  0.00     0.102 C 
BRANCH  15  16
ATOM     16  C   UNL d   1      53.497  30.752  53.286  0.00  0.00     0.021 C 
ATOM     17  C   UNL d   1      53.174  30.023  53.463  0.00  0.00     0.002 C 
ENDBRANCH  15  16
ENDBRANCH  14  15
ENDBRANCH  12  14
ENDBRANCH  11  12
ENDBRANCH   2  11
TORSDOF 6
ENDMDL
MODEL 4
REMARK VINA RESULT:      -6.7      2.035      2.306
REMARK  6 active torsions:
REMARK  status: ('A' for Active; 'I' for Inactive)
REMARK    1  A    between atoms: N_4  and  C_1 
REMARK    2  A    between atoms: N_8  and  C_1 
REMARK       I    between atoms: C_2  and  N_3 
REMARK    3  A    between atoms: C_6  and  C_2 
REMARK    4  A    between atoms: N_3  and  N_4 
REMARK    5  A    between atoms: C_17  and  N_8 
REMARK    6  A    between atoms: C_11  and  C_17 
ROOT
ATOM      1  C   UNL d   1      53.612  31.648  53.597  0.00  0.00     0.297 C 
ATOM      2  N   UNL d   1      52.855  31.796  53.265  0.00  0.00    -0.103 NA
ATOM      3  O   UNL d   1      53.950  30.909  53.505  0.00  0.00    -0.264 OA
ENDROOT
BRANCH   1   4
ATOM      4  C   UNL d   1      54.013  32.253  54.017  0.00  0.00     0.059 A 
ATOM      5  C   UNL d   1      54.545  32.726  53.617  0.00  0.00     0.005 A 
ATOM      6  C   UNL d   1      54.945  33.324  54.021  0.00  0.00     0.007 A 
ATOM      7  C   UNL d   1      54.807  33.441  54.820  0.00  0.00     0.035 A 
ATOM      8  C   UNL d   1      54.267  32.962  55.234  0.00  0.00     0.007 A 
ATOM      9 BR   UNL d   1      55.217  34.055  55.239  0.00  0.00    -0.049 Br
ATOM     10  C   UNL d   1      53.876  32.369  54.816  0.00  0.00     0.005 A 
ENDBRANCH   1   4
BRANCH   2  11
ATOM     11  N   UNL d   1      52.509  32.553  53.360  0.00  0.00    -0.114 NA
BRANCH  11  12
ATOM     12  C   UNL d   1      51.758  32.695  53.090  0.00  0.00     0.241 C 
ATOM     13  S   UNL d   1      51.190  32.091  53.101  0.00  0.00    -0.035 SA
BRANCH  12  14
ATOM     14  N   UNL d   1      51.550  33.452  52.800  0.00  0.00    -0.215 NA
BRANCH  14  15
ATOM     15  C   UNL d   1      50.822  33.788  53.015  0.00  0.00     0.102 C 
BRANCH  15  16
ATOM     16  C   UNL d   1      50.603  34.519  52.705  0.00  0.00     0.021 C 
ATOM     17  C   UNL d   1      49.857  34.821  52.845  0.00  0.00     0.002 C 
ENDBRANCH  15  16
ENDBRANCH  14  15
ENDBRANCH  12  14
ENDBRANCH  11  12
ENDBRANCH   2  11
TORSDOF 6
ENDMDL
MODEL 5
REMARK VINA RESULT:      -6.1      2.276      3.334
REMARK  6 active torsions:
REMARK  status: ('A' for Active; 'I' for Inactive)
REMARK    1  A    between atoms: N_4  and  C_1 
REMARK    2  A    between atoms: N_8  and  C_1 
REMARK       I    between atoms: C_2  and  N_3 
REMARK    3  A    between atoms: C_6  and  C_2 
REMARK    4  A    between atoms: N_3  and  N_4 
REMARK    5  A    between atoms: C_17  and  N_8 
REMARK    6  A    between atoms: C_11  and  C_17 
ROOT
ATOM      1  C   UNL d   1      52.948  30.749  52.570  0.00  0.00     0.297 C 
ATOM      2  N   UNL d   1      52.965  31.582  52.678  0.00  0.00    -0.103 NA
ATOM      3  O   UNL d   1      52.821  30.446  51.821  0.00  0.00    -0.264 OA
ENDROOT
BRANCH   1   4
ATOM      4  C   UNL d   1      53.061  30.238  53.226  0.00  0.00     0.059 A 
ATOM      5  C   UNL d   1      52.408  29.970  53.636  0.00  0.00     0.005 A 
ATOM      6  C   UNL d   1      52.509  29.467  54.282  0.00  0.00     0.007 A 
ATOM      7  C   UNL d   1      53.262  29.238  54.509  0.00  0.00     0.035 A 
ATOM      8  C   UNL d   1      53.933  29.507  54.095  0.00  0.00     0.007 A 
ATOM      9 BR   UNL d   1      53.369  28.720  55.174  0.00  0.00    -0.049 Br
ATOM     10  C   UNL d   1      53.814  30.009  53.452  0.00  0.00     0.005 A 
ENDBRANCH   1   4
BRANCH   2  11
ATOM     11  N   UNL d   1      53.095  31.892  53.445  0.00  0.00    -0.114 NA
BRANCH  11  12
ATOM     12  C   UNL d   1      53.174  32.691  53.554  0.00  0.00     0.241 C 
ATOM     13  S   UNL d   1      52.518  33.190  53.465  0.00  0.00    -0.035 SA
BRANCH  12  14
ATOM     14  N   UNL d   1      53.917  33.018  53.758  0.00  0.00    -0.215 NA
BRANCH  14  15
ATOM     15  C   UNL d   1      54.041  33.308  54.525  0.00  0.00     0.102 C 
BRANCH  15  16
ATOM     16  C   UNL d   1      54.808  33.470  54.781  0.00  0.00     0.021 C 
ATOM     17  C   UNL d   1      54.950  33.666  55.561  0.00  0.00     0.002 C 
ENDBRANCH  15  16
ENDBRANCH  14  15
ENDBRANCH  12  14
ENDBRANCH  11  12
ENDBRANCH   2  11
TORSDOF 6
ENDMDL
