MODEL 1
REMARK VINA RESULT:      30.1      0.000      0.000
REMARK  11 active torsions:
REMARK  status: ('A' for Active; 'I' for Inactive)
REMARK    1  A    between atoms: S_2  and  N_15 
REMARK    2  A    between atoms: C_10  and  S_2 
REMARK    3  A    between atoms: C_14  and  C_4 
REMARK    4  A    between atoms: N_16  and  C_8 
REMARK    5  A    between atoms: C_19  and  C_14 
REMARK    6  A    between atoms: N_15  and  C_19 
REMARK    7  A    between atoms: C_24  and  N_16 
REMARK    8  A    between atoms: N_20  and  C_25 
REMARK    9  A    between atoms: C_26  and  N_20 
REMARK   10  A    between atoms: C_27  and  N_20 
REMARK   11  A    between atoms: C_25  and  C_24 
ROOT
ATOM      1  N   UNL d   1      46.297 -18.473  43.645  0.00  0.00    -0.190 N 
ATOM      2  C   UNL d   1      46.167 -19.225  43.956  0.00  0.00     0.187 A 
ATOM      3  C   UNL d   1      46.232 -17.924  44.266  0.00  0.00     0.188 A 
ATOM      4  N   UNL d   1      46.456 -18.384  42.842  0.00  0.00    -0.143 NA
ATOM      5  N   UNL d   1      46.022 -19.137  44.774  0.00  0.00    -0.127 NA
ATOM      6  N   UNL d   1      46.064 -18.340  44.954  0.00  0.00    -0.127 NA
ATOM      7  C   UNL d   1      46.486 -19.047  42.349  0.00  0.00     0.182 A 
ATOM      8  C   UNL d   1      46.197 -19.888  43.464  0.00  0.00     0.044 A 
ATOM      9  C   UNL d   1      46.356 -19.798  42.661  0.00  0.00     0.044 A 
ENDROOT
BRANCH   3  10
ATOM     10  C   UNL d   1      46.321 -17.110  44.205  0.00  0.00     0.062 C 
BRANCH  10  11
ATOM     11  C   UNL d   1      45.789 -16.607  44.577  0.00  0.00     0.115 C 
BRANCH  11  12
ATOM     12  N   UNL d   1      46.072 -15.930  44.955  0.00  0.00    -0.157 NA
BRANCH  12  13
ATOM     13  S   UNL d   1      45.838 -15.186  44.702  0.00  0.00     0.285 S 
ATOM     14  O   UNL d   1      46.619 -15.006  44.496  0.00  0.00    -0.198 OA
ATOM     15  O   UNL d   1      45.054 -15.357  44.904  0.00  0.00    -0.198 OA
BRANCH  13  16
ATOM     16  C   UNL d   1      45.609 -14.438  44.446  0.00  0.00     0.105 A 
ATOM     17  C   UNL d   1      45.832 -13.763  44.877  0.00  0.00     0.013 A 
ATOM     18  C   UNL d   1      45.605 -13.023  44.621  0.00  0.00     0.001 A 
ATOM     19  C   UNL d   1      45.153 -12.942  43.933  0.00  0.00     0.000 A 
ATOM     20  C   UNL d   1      44.930 -13.596  43.505  0.00  0.00     0.001 A 
ATOM     21  C   UNL d   1      44.925 -12.181  43.679  0.00  0.00     0.000 C 
ATOM     22  C   UNL d   1      45.152 -14.350  43.750  0.00  0.00     0.013 A 
ENDBRANCH  13  16
ENDBRANCH  12  13
ENDBRANCH  11  12
ENDBRANCH  10  11
ENDBRANCH   3  10
BRANCH   7  23
ATOM     23  N   UNL d   1      46.646 -18.967  41.539  0.00  0.00    -0.222 NA
BRANCH  23  24
ATOM     24  C   UNL d   1      46.427 -18.254  41.150  0.00  0.00     0.120 C 
BRANCH  24  25
ATOM     25  C   UNL d   1      46.518 -18.192  40.337  0.00  0.00     0.101 C 
BRANCH  25  26
ATOM     26  N   UNL d   1      45.903 -17.891  39.874  0.00  0.00    -0.301 N 
BRANCH  26  27
ATOM     27  C   UNL d   1      46.059 -17.387  39.237  0.00  0.00     0.080 C 
ATOM     28  C   UNL d   1      45.428 -17.118  38.762  0.00  0.00     0.021 C 
ENDBRANCH  26  27
BRANCH  26  29
ATOM     29  C   UNL d   1      45.113 -18.096  40.048  0.00  0.00     0.080 C 
ATOM     30  C   UNL d   1      44.497 -17.680  39.679  0.00  0.00     0.021 C 
ENDBRANCH  26  29
ENDBRANCH  25  26
ENDBRANCH  24  25
ENDBRANCH  23  24
ENDBRANCH   7  23
TORSDOF 11
ENDMDL
MODEL 2
REMARK VINA RESULT:      30.2      0.617      1.006
REMARK  11 active torsions:
REMARK  status: ('A' for Active; 'I' for Inactive)
REMARK    1  A    between atoms: S_2  and  N_15 
REMARK    2  A    between atoms: C_10  and  S_2 
REMARK    3  A    between atoms: C_14  and  C_4 
REMARK    4  A    between atoms: N_16  and  C_8 
REMARK    5  A    between atoms: C_19  and  C_14 
REMARK    6  A    between atoms: N_15  and  C_19 
REMARK    7  A    between atoms: C_24  and  N_16 
REMARK    8  A    between atoms: N_20  and  C_25 
REMARK    9  A    between atoms: C_26  and  N_20 
REMARK   10  A    between atoms: C_27  and  N_20 
REMARK   11  A    between atoms: C_25  and  C_24 
ROOT
ATOM      1  N   UNL d   1      46.430 -18.934  43.602  0.00  0.00    -0.190 N 
ATOM      2  C   UNL d   1      46.299 -19.702  43.870  0.00  0.00     0.187 A 
ATOM      3  C   UNL d   1      46.416 -18.427  44.262  0.00  0.00     0.188 A 
ATOM      4  N   UNL d   1      46.543 -18.793  42.799  0.00  0.00    -0.143 NA
ATOM      5  N   UNL d   1      46.205 -19.668  44.699  0.00  0.00    -0.127 NA
ATOM      6  N   UNL d   1      46.278 -18.885  44.930  0.00  0.00    -0.127 NA
ATOM      7  C   UNL d   1      46.526 -19.421  42.262  0.00  0.00     0.182 A 
ATOM      8  C   UNL d   1      46.282 -20.330  43.333  0.00  0.00     0.044 A 
ATOM      9  C   UNL d   1      46.396 -20.188  42.530  0.00  0.00     0.044 A 
ENDROOT
BRANCH   3  10
ATOM     10  C   UNL d   1      46.522 -17.613  44.250  0.00  0.00     0.062 C 
BRANCH  10  11
ATOM     11  C   UNL d   1      45.894 -17.112  44.416  0.00  0.00     0.115 C 
BRANCH  11  12
ATOM     12  N   UNL d   1      46.002 -16.494  44.953  0.00  0.00    -0.157 NA
BRANCH  12  13
ATOM     13  S   UNL d   1      45.826 -15.723  44.738  0.00  0.00     0.285 S 
ATOM     14  O   UNL d   1      45.017 -15.891  44.784  0.00  0.00    -0.198 OA
ATOM     15  O   UNL d   1      46.633 -15.546  44.690  0.00  0.00    -0.198 OA
BRANCH  13  16
ATOM     16  C   UNL d   1      45.643 -14.950  44.522  0.00  0.00     0.105 A 
ATOM     17  C   UNL d   1      44.852 -14.693  44.520  0.00  0.00     0.013 A 
ATOM     18  C   UNL d   1      44.673 -13.928  44.306  0.00  0.00     0.001 A 
ATOM     19  C   UNL d   1      45.276 -13.405  44.090  0.00  0.00     0.000 A 
ATOM     20  C   UNL d   1      46.052 -13.647  44.089  0.00  0.00     0.001 A 
ATOM     21  C   UNL d   1      45.083 -12.623  43.872  0.00  0.00     0.000 C 
ATOM     22  C   UNL d   1      46.249 -14.416  44.303  0.00  0.00     0.013 A 
ENDBRANCH  13  16
ENDBRANCH  12  13
ENDBRANCH  11  12
ENDBRANCH  10  11
ENDBRANCH   3  10
BRANCH   7  23
ATOM     23  N   UNL d   1      46.640 -19.289  41.450  0.00  0.00    -0.222 NA
BRANCH  23  24
ATOM     24  C   UNL d   1      45.987 -19.033  40.986  0.00  0.00     0.120 C 
BRANCH  24  25
ATOM     25  C   UNL d   1      46.004 -18.289  40.640  0.00  0.00     0.101 C 
BRANCH  25  26
ATOM     26  N   UNL d   1      45.367 -18.032  40.181  0.00  0.00    -0.301 N 
BRANCH  26  27
ATOM     27  C   UNL d   1      44.589 -18.110  40.452  0.00  0.00     0.080 C 
ATOM     28  C   UNL d   1      44.203 -17.451  40.787  0.00  0.00     0.021 C 
ENDBRANCH  26  27
BRANCH  26  29
ATOM     29  C   UNL d   1      45.505 -17.689  39.433  0.00  0.00     0.080 C 
ATOM     30  C   UNL d   1      45.023 -17.907  38.793  0.00  0.00     0.021 C 
ENDBRANCH  26  29
ENDBRANCH  25  26
ENDBRANCH  24  25
ENDBRANCH  23  24
ENDBRANCH   7  23
TORSDOF 11
ENDMDL
