MODEL 1
REMARK VINA RESULT:      -0.9      0.000      0.000
REMARK  9 active torsions:
REMARK  status: ('A' for Active; 'I' for Inactive)
REMARK    1  A    between atoms: S_10  and  C_3 
REMARK    2  A    between atoms: C_17  and  N_5 
REMARK    3  A    between atoms: C_12  and  S_10 
REMARK    4  A    between atoms: C_11  and  C_12 
REMARK       I    between atoms: N_13  and  C_11 
REMARK    5  A    between atoms: C_26  and  C_12 
REMARK    6  A    between atoms: C_23  and  N_13 
REMARK    7  A    between atoms: C_15  and  C_23 
REMARK    8  A    between atoms: C_22  and  C_17 
REMARK    9  A    between atoms: C_30  and  C_26 
ROOT
ATOM      1  C   UNL d   1      32.876  21.859 -22.150  0.00  0.00     0.081 A 
ATOM      2  C   UNL d   1      32.852  21.090 -21.847  0.00  0.00     0.117 A 
ATOM      3  C   UNL d   1      33.070  20.569 -23.162  0.00  0.00     0.182 A 
ATOM      4  N   UNL d   1      32.948  20.450 -22.348  0.00  0.00    -0.215 NA
ATOM      5  N   UNL d   1      33.092  21.340 -23.462  0.00  0.00    -0.253 N 
ATOM      6  C   UNL d   1      32.995  21.987 -22.955  0.00  0.00     0.268 A 
ATOM      7  S   UNL d   1      32.727  21.140 -21.037  0.00  0.00    -0.068 SA
ATOM      8  C   UNL d   1      32.764  22.386 -21.525  0.00  0.00     0.013 A 
ATOM      9  C   UNL d   1      32.672  21.936 -20.837  0.00  0.00     0.031 A 
ATOM     10  O   UNL d   1      33.019  22.755 -23.258  0.00  0.00    -0.267 OA
ATOM     11  C   UNL d   1      32.709  23.178 -21.318  0.00  0.00     0.001 A 
ATOM     12  C   UNL d   1      32.560  22.457 -20.207  0.00  0.00     0.006 A 
ATOM     13  C   UNL d   1      32.583  23.230 -20.504  0.00  0.00     0.001 A 
ENDROOT
BRANCH   3  14
ATOM     14  S   UNL d   1      33.165  19.926 -23.661  0.00  0.00    -0.045 SA
BRANCH  14  15
ATOM     15  C   UNL d   1      33.019  19.164 -23.388  0.00  0.00     0.093 C 
BRANCH  15  16
ATOM     16  C   UNL d   1      32.707  18.589 -23.901  0.00  0.00     0.285 C 
ATOM     17  N   UNL d   1      31.894  18.523 -24.004  0.00  0.00    -0.204 NA
ATOM     18  O   UNL d   1      33.220  18.086 -24.305  0.00  0.00    -0.265 OA
BRANCH  17  19
ATOM     19  C   UNL d   1      31.586  17.956 -24.509  0.00  0.00     0.127 C 
BRANCH  19  20
ATOM     20  C   UNL d   1      30.775  17.921 -24.648  0.00  0.00     0.119 A 
ATOM     21  O   UNL d   1      30.327  18.472 -25.051  0.00  0.00    -0.304 OA
ATOM     22  C   UNL d   1      29.546  18.218 -25.058  0.00  0.00     0.123 A 
ATOM     23  C   UNL d   1      29.508  17.498 -24.654  0.00  0.00     0.029 A 
ATOM     24  C   UNL d   1      30.268  17.307 -24.395  0.00  0.00     0.028 A 
ENDBRANCH  19  20
ENDBRANCH  17  19
ENDBRANCH  15  16
BRANCH  15  25
ATOM     25  C   UNL d   1      33.179  18.964 -22.606  0.00  0.00     0.057 C 
BRANCH  25  26
ATOM     26  C   UNL d   1      32.931  18.231 -22.320  0.00  0.00     0.235 C 
ATOM     27  O   UNL d   1      33.240  17.944 -21.607  0.00  0.00    -0.283 OA
ENDBRANCH  25  26
ENDBRANCH  15  25
ENDBRANCH  14  15
ENDBRANCH   3  14
BRANCH   5  28
ATOM     28  C   UNL d   1      33.212  21.462 -24.268  0.00  0.00     0.085 C 
BRANCH  28  29
ATOM     29  C   UNL d   1      33.185  22.227 -24.580  0.00  0.00     0.019 C 
ATOM     30  C   UNL d   1      32.561  22.448 -25.074  0.00  0.00     0.002 C 
ENDBRANCH  28  29
ENDBRANCH   5  28
TORSDOF 9
ENDMDL
