MODEL 1
REMARK VINA RESULT:      -3.0      0.000      0.000
REMARK  5 active torsions:
REMARK  status: ('A' for Active; 'I' for Inactive)
REMARK    1  A    between atoms: C_10  and  C_2 
REMARK    2  A    between atoms: S_8  and  C_3 
REMARK    3  A    between atoms: C_6  and  N_7 
REMARK       I    between atoms: N_7  and  C_9 
REMARK    4  A    between atoms: C_15  and  S_8 
REMARK    5  A    between atoms: C_9  and  C_15 
ROOT
ATOM      1  S   UNL d   1      57.769  -0.543  30.622  0.00  0.00    -0.041 SA
ENDROOT
BRANCH   1   2
ATOM      2  C   UNL d   1      57.541  -0.143  31.298  0.00  0.00     0.219 A 
ATOM      3  N   UNL d   1      56.917  -0.419  31.752  0.00  0.00    -0.167 N 
ATOM      4  C   UNL d   1      56.819   0.085  32.381  0.00  0.00     0.189 A 
ATOM      5  N   UNL d   1      56.469  -1.092  31.594  0.00  0.00    -0.038 N 
ATOM      6  N   UNL d   1      57.361   0.682  32.351  0.00  0.00    -0.126 NA
ATOM      7  N   UNL d   1      57.812   0.540  31.675  0.00  0.00    -0.120 NA
BRANCH   4   8
ATOM      8  C   UNL d   1      56.252   0.007  32.970  0.00  0.00     0.038 A 
ATOM      9  C   UNL d   1      56.471  -0.256  33.742  0.00  0.00     0.003 A 
ATOM     10  C   UNL d   1      55.900  -0.336  34.340  0.00  0.00     0.000 A 
ATOM     11  C   UNL d   1      55.099  -0.151  34.162  0.00  0.00     0.000 A 
ATOM     12  C   UNL d   1      54.892   0.109  33.393  0.00  0.00     0.000 A 
ATOM     13  C   UNL d   1      55.459   0.186  32.807  0.00  0.00     0.003 A 
ENDBRANCH   4   8
ENDBRANCH   1   2
BRANCH   1  14
ATOM     14  C   UNL d   1      58.409  -0.280  30.166  0.00  0.00     0.101 C 
BRANCH  14  15
ATOM     15  C   UNL d   1      58.827  -0.794  29.695  0.00  0.00     0.286 C 
ATOM     16  N   UNL d   1      59.626  -0.978  29.896  0.00  0.00    -0.208 NA
ATOM     17  O   UNL d   1      58.486  -1.131  29.036  0.00  0.00    -0.265 OA
BRANCH  16  18
ATOM     18  C   UNL d   1      60.058  -1.508  29.411  0.00  0.00     0.085 A 
ATOM     19  C   UNL d   1      60.674  -1.225  28.934  0.00  0.00     0.018 A 
ATOM     20  C   UNL d   1      61.098  -1.747  28.456  0.00  0.00     0.002 A 
ATOM     21  C   UNL d   1      60.862  -0.434  28.933  0.00  0.00     0.002 C 
ATOM     22  C   UNL d   1      60.907  -2.552  28.456  0.00  0.00     0.000 A 
ATOM     23  C   UNL d   1      60.294  -2.820  28.934  0.00  0.00     0.002 A 
ATOM     24  C   UNL d   1      59.882  -2.314  29.398  0.00  0.00     0.019 A 
ATOM     25  C   UNL d   1      60.105  -3.622  28.933  0.00  0.00     0.000 C 
ENDBRANCH  16  18
ENDBRANCH  14  15
ENDBRANCH   1  14
TORSDOF 5
ENDMDL
MODEL 2
REMARK VINA RESULT:      -2.8      1.461      5.851
REMARK  5 active torsions:
REMARK  status: ('A' for Active; 'I' for Inactive)
REMARK    1  A    between atoms: C_10  and  C_2 
REMARK    2  A    between atoms: S_8  and  C_3 
REMARK    3  A    between atoms: C_6  and  N_7 
REMARK       I    between atoms: N_7  and  C_9 
REMARK    4  A    between atoms: C_15  and  S_8 
REMARK    5  A    between atoms: C_9  and  C_15 
ROOT
ATOM      1  S   UNL d   1      57.062  -0.422  31.410  0.00  0.00    -0.041 SA
ENDROOT
BRANCH   1   2
ATOM      2  C   UNL d   1      57.435  -0.371  30.684  0.00  0.00     0.219 A 
ATOM      3  N   UNL d   1      58.008  -0.918  30.473  0.00  0.00    -0.167 N 
ATOM      4  C   UNL d   1      58.277  -0.730  29.731  0.00  0.00     0.189 A 
ATOM      5  N   UNL d   1      58.263  -1.550  30.937  0.00  0.00    -0.038 N 
ATOM      6  N   UNL d   1      57.897  -0.075  29.451  0.00  0.00    -0.126 NA
ATOM      7  N   UNL d   1      57.372   0.149  30.046  0.00  0.00    -0.120 NA
BRANCH   4   8
ATOM      8  C   UNL d   1      58.854  -1.141  29.315  0.00  0.00     0.038 A 
ATOM      9  C   UNL d   1      58.655  -1.842  28.889  0.00  0.00     0.003 A 
ATOM     10  C   UNL d   1      59.236  -2.261  28.468  0.00  0.00     0.000 A 
ATOM     11  C   UNL d   1      60.026  -1.973  28.473  0.00  0.00     0.000 A 
ATOM     12  C   UNL d   1      60.213  -1.276  28.898  0.00  0.00     0.000 A 
ATOM     13  C   UNL d   1      59.637  -0.867  29.312  0.00  0.00     0.003 A 
ENDBRANCH   4   8
ENDBRANCH   1   2
BRANCH   1  14
ATOM     14  C   UNL d   1      56.932   0.253  31.872  0.00  0.00     0.101 C 
BRANCH  14  15
ATOM     15  C   UNL d   1      56.406   0.243  32.492  0.00  0.00     0.286 C 
ATOM     16  N   UNL d   1      56.584   0.682  33.190  0.00  0.00    -0.208 NA
ATOM     17  O   UNL d   1      55.714  -0.185  32.446  0.00  0.00    -0.265 OA
BRANCH  16  18
ATOM     18  C   UNL d   1      56.042   0.671  33.829  0.00  0.00     0.085 A 
ATOM     19  C   UNL d   1      56.321   0.650  34.609  0.00  0.00     0.018 A 
ATOM     20  C   UNL d   1      55.787   0.639  35.238  0.00  0.00     0.002 A 
ATOM     21  C   UNL d   1      57.120   0.640  34.759  0.00  0.00     0.002 C 
ATOM     22  C   UNL d   1      54.974   0.649  35.087  0.00  0.00     0.000 A 
ATOM     23  C   UNL d   1      54.709   0.670  34.308  0.00  0.00     0.002 A 
ATOM     24  C   UNL d   1      55.228   0.681  33.697  0.00  0.00     0.019 A 
ATOM     25  C   UNL d   1      53.899   0.680  34.159  0.00  0.00     0.000 C 
ENDBRANCH  16  18
ENDBRANCH  14  15
ENDBRANCH   1  14
TORSDOF 5
ENDMDL
MODEL 3
REMARK VINA RESULT:      -1.1      1.309      5.620
REMARK  5 active torsions:
REMARK  status: ('A' for Active; 'I' for Inactive)
REMARK    1  A    between atoms: C_10  and  C_2 
REMARK    2  A    between atoms: S_8  and  C_3 
REMARK    3  A    between atoms: C_6  and  N_7 
REMARK       I    between atoms: N_7  and  C_9 
REMARK    4  A    between atoms: C_15  and  S_8 
REMARK    5  A    between atoms: C_9  and  C_15 
ROOT
ATOM      1  S   UNL d   1      57.807   0.018  31.057  0.00  0.00    -0.041 SA
ENDROOT
BRANCH   1   2
ATOM      2  C   UNL d   1      58.024  -0.243  30.313  0.00  0.00     0.219 A 
ATOM      3  N   UNL d   1      58.608  -0.812  30.227  0.00  0.00    -0.167 N 
ATOM      4  C   UNL d   1      58.703  -0.960  29.435  0.00  0.00     0.189 A 
ATOM      5  N   UNL d   1      59.023  -1.170  30.842  0.00  0.00    -0.038 N 
ATOM      6  N   UNL d   1      58.199  -0.504  29.000  0.00  0.00    -0.126 NA
ATOM      7  N   UNL d   1      57.774  -0.056  29.548  0.00  0.00    -0.120 NA
BRANCH   4   8
ATOM      8  C   UNL d   1      59.235  -1.496  29.111  0.00  0.00     0.038 A 
ATOM      9  C   UNL d   1      60.032  -1.264  28.954  0.00  0.00     0.003 A 
ATOM     10  C   UNL d   1      60.573  -1.803  28.627  0.00  0.00     0.000 A 
ATOM     11  C   UNL d   1      60.312  -2.584  28.455  0.00  0.00     0.000 A 
ATOM     12  C   UNL d   1      59.520  -2.804  28.615  0.00  0.00     0.000 A 
ATOM     13  C   UNL d   1      58.991  -2.268  28.938  0.00  0.00     0.003 A 
ENDBRANCH   4   8
ENDBRANCH   1   2
BRANCH   1  14
ATOM     14  C   UNL d   1      57.033   0.272  31.212  0.00  0.00     0.101 C 
BRANCH  14  15
ATOM     15  C   UNL d   1      56.699   0.173  31.946  0.00  0.00     0.286 C 
ATOM     16  N   UNL d   1      56.103  -0.415  32.050  0.00  0.00    -0.208 NA
ATOM     17  O   UNL d   1      56.931   0.633  32.578  0.00  0.00    -0.265 OA
BRANCH  16  18
ATOM     18  C   UNL d   1      55.758  -0.517  32.807  0.00  0.00     0.085 A 
ATOM     19  C   UNL d   1      55.708  -1.274  33.142  0.00  0.00     0.018 A 
ATOM     20  C   UNL d   1      55.369  -1.374  33.887  0.00  0.00     0.002 A 
ATOM     21  C   UNL d   1      55.993  -1.920  32.739  0.00  0.00     0.002 C 
ATOM     22  C   UNL d   1      55.079  -0.717  34.299  0.00  0.00     0.000 A 
ATOM     23  C   UNL d   1      55.134   0.029  33.956  0.00  0.00     0.002 A 
ATOM     24  C   UNL d   1      55.463   0.126  33.232  0.00  0.00     0.019 A 
ATOM     25  C   UNL d   1      54.844   0.681  34.367  0.00  0.00     0.000 C 
ENDBRANCH  16  18
ENDBRANCH  14  15
ENDBRANCH   1  14
TORSDOF 5
ENDMDL
MODEL 4
REMARK VINA RESULT:      -0.8      1.484      2.026
REMARK  5 active torsions:
REMARK  status: ('A' for Active; 'I' for Inactive)
REMARK    1  A    between atoms: C_10  and  C_2 
REMARK    2  A    between atoms: S_8  and  C_3 
REMARK    3  A    between atoms: C_6  and  N_7 
REMARK       I    between atoms: N_7  and  C_9 
REMARK    4  A    between atoms: C_15  and  S_8 
REMARK    5  A    between atoms: C_9  and  C_15 
ROOT
ATOM      1  S   UNL d   1      56.877  -0.506  32.018  0.00  0.00    -0.041 SA
ENDROOT
BRANCH   1   2
ATOM      2  C   UNL d   1      56.745  -0.092  32.711  0.00  0.00     0.219 A 
ATOM      3  N   UNL d   1      56.019  -0.139  33.090  0.00  0.00    -0.167 N 
ATOM      4  C   UNL d   1      56.050   0.325  33.755  0.00  0.00     0.189 A 
ATOM      5  N   UNL d   1      55.372  -0.581  32.835  0.00  0.00    -0.038 N 
ATOM      6  N   UNL d   1      56.775   0.673  33.823  0.00  0.00    -0.126 NA
ATOM      7  N   UNL d   1      57.209   0.413  33.171  0.00  0.00    -0.120 NA
BRANCH   4   8
ATOM      8  C   UNL d   1      55.436   0.431  34.291  0.00  0.00     0.038 A 
ATOM      9  C   UNL d   1      55.591   0.444  35.121  0.00  0.00     0.003 A 
ATOM     10  C   UNL d   1      54.973   0.551  35.665  0.00  0.00     0.000 A 
ATOM     11  C   UNL d   1      54.189   0.646  35.374  0.00  0.00     0.000 A 
ATOM     12  C   UNL d   1      54.046   0.632  34.549  0.00  0.00     0.000 A 
ATOM     13  C   UNL d   1      54.660   0.526  34.017  0.00  0.00     0.003 A 
ENDBRANCH   4   8
ENDBRANCH   1   2
BRANCH   1  14
ATOM     14  C   UNL d   1      57.066  -0.111  31.315  0.00  0.00     0.101 C 
BRANCH  14  15
ATOM     15  C   UNL d   1      57.712  -0.330  30.872  0.00  0.00     0.286 C 
ATOM     16  N   UNL d   1      57.924   0.131  30.198  0.00  0.00    -0.208 NA
ATOM     17  O   UNL d   1      58.153  -0.986  31.071  0.00  0.00    -0.265 OA
BRANCH  16  18
ATOM     18  C   UNL d   1      58.590  -0.095  29.742  0.00  0.00     0.085 A 
ATOM     19  C   UNL d   1      58.514  -0.201  28.922  0.00  0.00     0.018 A 
ATOM     20  C   UNL d   1      59.170  -0.423  28.473  0.00  0.00     0.002 A 
ATOM     21  C   UNL d   1      57.796  -0.086  28.559  0.00  0.00     0.002 C 
ATOM     22  C   UNL d   1      59.901  -0.540  28.842  0.00  0.00     0.000 A 
ATOM     23  C   UNL d   1      59.963  -0.432  29.656  0.00  0.00     0.002 A 
ATOM     24  C   UNL d   1      59.327  -0.216  30.092  0.00  0.00     0.019 A 
ATOM     25  C   UNL d   1      60.691  -0.549  30.022  0.00  0.00     0.000 C 
ENDBRANCH  16  18
ENDBRANCH  14  15
ENDBRANCH   1  14
TORSDOF 5
ENDMDL
MODEL 5
REMARK VINA RESULT:      -0.4      1.302      2.034
REMARK  5 active torsions:
REMARK  status: ('A' for Active; 'I' for Inactive)
REMARK    1  A    between atoms: C_10  and  C_2 
REMARK    2  A    between atoms: S_8  and  C_3 
REMARK    3  A    between atoms: C_6  and  N_7 
REMARK       I    between atoms: N_7  and  C_9 
REMARK    4  A    between atoms: C_15  and  S_8 
REMARK    5  A    between atoms: C_9  and  C_15 
ROOT
ATOM      1  S   UNL d   1      59.035  -0.103  29.592  0.00  0.00    -0.041 SA
ENDROOT
BRANCH   1   2
ATOM      2  C   UNL d   1      58.342   0.144  29.951  0.00  0.00     0.219 A 
ATOM      3  N   UNL d   1      58.239   0.054  30.759  0.00  0.00    -0.167 N 
ATOM      4  C   UNL d   1      57.507   0.345  30.955  0.00  0.00     0.189 A 
ATOM      5  N   UNL d   1      58.787  -0.276  31.279  0.00  0.00    -0.038 N 
ATOM      6  N   UNL d   1      57.129   0.623  30.299  0.00  0.00    -0.126 NA
ATOM      7  N   UNL d   1      57.650   0.497  29.671  0.00  0.00    -0.120 NA
BRANCH   4   8
ATOM      8  C   UNL d   1      57.188   0.360  31.712  0.00  0.00     0.038 A 
ATOM      9  C   UNL d   1      56.408   0.069  31.851  0.00  0.00     0.003 A 
ATOM     10  C   UNL d   1      56.081   0.082  32.615  0.00  0.00     0.000 A 
ATOM     11  C   UNL d   1      56.543   0.391  33.247  0.00  0.00     0.000 A 
ATOM     12  C   UNL d   1      57.315   0.677  33.098  0.00  0.00     0.000 A 
ATOM     13  C   UNL d   1      57.632   0.662  32.343  0.00  0.00     0.003 A 
ENDBRANCH   4   8
ENDBRANCH   1   2
BRANCH   1  14
ATOM     14  C   UNL d   1      59.021  -0.501  28.865  0.00  0.00     0.101 C 
BRANCH  14  15
ATOM     15  C   UNL d   1      59.348  -1.241  28.787  0.00  0.00     0.286 C 
ATOM     16  N   UNL d   1      58.839  -1.909  28.707  0.00  0.00    -0.208 NA
ATOM     17  O   UNL d   1      60.156  -1.344  28.784  0.00  0.00    -0.265 OA
BRANCH  16  18
ATOM     18  C   UNL d   1      59.176  -2.672  28.626  0.00  0.00     0.085 A 
ATOM     19  C   UNL d   1      58.686  -3.340  28.593  0.00  0.00     0.018 A 
ATOM     20  C   UNL d   1      59.018  -4.091  28.513  0.00  0.00     0.002 A 
ATOM     21  C   UNL d   1      57.879  -3.259  28.638  0.00  0.00     0.002 C 
ATOM     22  C   UNL d   1      59.840  -4.175  28.467  0.00  0.00     0.000 A 
ATOM     23  C   UNL d   1      60.315  -3.504  28.501  0.00  0.00     0.002 A 
ATOM     24  C   UNL d   1      59.993  -2.775  28.579  0.00  0.00     0.019 A 
ATOM     25  C   UNL d   1      61.133  -3.589  28.455  0.00  0.00     0.000 C 
ENDBRANCH  16  18
ENDBRANCH  14  15
ENDBRANCH   1  14
TORSDOF 5
ENDMDL
