MODEL 1
REMARK VINA RESULT:      -3.7      0.000      0.000
REMARK  5 active torsions:
REMARK  status: ('A' for Active; 'I' for Inactive)
REMARK    1  A    between atoms: C_11  and  C_1 
REMARK    2  A    between atoms: C_2  and  N_5 
REMARK    3  A    between atoms: N_3  and  C_7 
REMARK       I    between atoms: N_5  and  C_6 
REMARK    4  A    between atoms: C_6  and  C_9 
REMARK    5  A    between atoms: C_16  and  C_8 
ROOT
ATOM      1  N   UNL d   1      32.798  20.229 -22.923  0.00  0.00    -0.183 NA
ATOM      2  C   UNL d   1      32.985  20.658 -22.178  0.00  0.00     0.281 C 
ATOM      3  O   UNL d   1      33.195  20.222 -21.496  0.00  0.00    -0.265 OA
ENDROOT
BRANCH   2   4
ATOM      4  C   UNL d   1      32.943  21.533 -22.181  0.00  0.00     0.065 A 
ATOM      5  C   UNL d   1      32.594  21.883 -21.520  0.00  0.00     0.091 A 
ATOM      6  C   UNL d   1      32.546  22.717 -21.505  0.00  0.00     0.133 A 
ATOM      7  C   UNL d   1      32.837  23.171 -22.130  0.00  0.00     0.024 A 
ATOM      8  C   UNL d   1      33.189  22.812 -22.797  0.00  0.00     0.002 A 
ATOM      9  C   UNL d   1      33.234  21.987 -22.806  0.00  0.00     0.005 A 
BRANCH   5  10
ATOM     10  C   UNL d   1      32.308  21.436 -20.905  0.00  0.00     0.213 C 
ATOM     11  O   UNL d   1      32.798  21.221 -20.263  0.00  0.00    -0.644 OA
ATOM     12  O   UNL d   1      31.550  21.238 -20.981  0.00  0.00    -0.644 OA
ENDBRANCH   5  10
BRANCH   6  13
ATOM     13  N   UNL d   1      32.209  23.100 -20.870  0.00  0.00    -0.114 N 
ATOM     14  O   UNL d   1      31.404  23.272 -20.800  0.00  0.00    -0.532 OA
ATOM     15  O   UNL d   1      32.623  23.364 -20.221  0.00  0.00    -0.532 OA
ENDBRANCH   6  13
ENDBRANCH   2   4
BRANCH   1  16
ATOM     16  C   UNL d   1      32.834  19.406 -22.933  0.00  0.00     0.197 A 
ATOM     17  N   UNL d   1      32.433  19.008 -23.490  0.00  0.00    -0.221 NA
ATOM     18  C   UNL d   1      32.565  18.220 -23.369  0.00  0.00     0.090 A 
ATOM     19  C   UNL d   1      33.013  18.145 -22.782  0.00  0.00     0.058 A 
ATOM     20  S   UNL d   1      33.240  18.851 -22.432  0.00  0.00    -0.046 SA
BRANCH  18  21
ATOM     21  C   UNL d   1      32.285  17.569 -23.785  0.00  0.00     0.018 A 
ATOM     22  C   UNL d   1      32.737  17.261 -24.407  0.00  0.00     0.002 A 
ATOM     23  C   UNL d   1      32.461  16.598 -24.836  0.00  0.00     0.000 A 
ATOM     24  C   UNL d   1      31.730  16.253 -24.631  0.00  0.00     0.000 A 
ATOM     25  C   UNL d   1      31.288  16.560 -24.017  0.00  0.00     0.000 A 
ATOM     26  C   UNL d   1      31.564  17.223 -23.587  0.00  0.00     0.002 A 
ENDBRANCH  18  21
ENDBRANCH   1  16
TORSDOF 5
ENDMDL
MODEL 2
REMARK VINA RESULT:      -3.5      2.444      5.562
REMARK  5 active torsions:
REMARK  status: ('A' for Active; 'I' for Inactive)
REMARK    1  A    between atoms: C_11  and  C_1 
REMARK    2  A    between atoms: C_2  and  N_5 
REMARK    3  A    between atoms: N_3  and  C_7 
REMARK       I    between atoms: N_5  and  C_6 
REMARK    4  A    between atoms: C_6  and  C_9 
REMARK    5  A    between atoms: C_16  and  C_8 
ROOT
ATOM      1  N   UNL d   1      32.883  18.427 -22.790  0.00  0.00    -0.183 NA
ATOM      2  C   UNL d   1      32.670  18.039 -23.551  0.00  0.00     0.281 C 
ATOM      3  O   UNL d   1      32.549  18.511 -24.232  0.00  0.00    -0.265 OA
ENDROOT
BRANCH   2   4
ATOM      4  C   UNL d   1      32.593  17.167 -23.565  0.00  0.00     0.065 A 
ATOM      5  C   UNL d   1      31.920  16.867 -23.938  0.00  0.00     0.091 A 
ATOM      6  C   UNL d   1      31.830  16.037 -23.961  0.00  0.00     0.133 A 
ATOM      7  C   UNL d   1      32.394  15.538 -23.623  0.00  0.00     0.024 A 
ATOM      8  C   UNL d   1      33.073  15.847 -23.248  0.00  0.00     0.002 A 
ATOM      9  C   UNL d   1      33.157  16.668 -23.228  0.00  0.00     0.005 A 
BRANCH   5  10
ATOM     10  C   UNL d   1      31.365  17.358 -24.270  0.00  0.00     0.213 C 
ATOM     11  O   UNL d   1      31.437  17.618 -25.061  0.00  0.00    -0.644 OA
ATOM     12  O   UNL d   1      30.778  17.552 -23.782  0.00  0.00    -0.644 OA
ENDBRANCH   5  10
BRANCH   6  13
ATOM     13  N   UNL d   1      31.179  15.702 -24.319  0.00  0.00    -0.114 N 
ATOM     14  O   UNL d   1      30.455  15.570 -23.946  0.00  0.00    -0.532 OA
ATOM     15  O   UNL d   1      31.159  15.454 -25.095  0.00  0.00    -0.532 OA
ENDBRANCH   6  13
ENDBRANCH   2   4
BRANCH   1  16
ATOM     16  C   UNL d   1      32.958  19.248 -22.765  0.00  0.00     0.197 A 
ATOM     17  N   UNL d   1      32.746  19.634 -22.106  0.00  0.00    -0.221 NA
ATOM     18  C   UNL d   1      32.876  20.422 -22.233  0.00  0.00     0.090 A 
ATOM     19  C   UNL d   1      33.148  20.506 -22.918  0.00  0.00     0.058 A 
ATOM     20  S   UNL d   1      33.237  19.809 -23.340  0.00  0.00    -0.046 SA
BRANCH  18  21
ATOM     21  C   UNL d   1      32.752  21.064 -21.735  0.00  0.00     0.018 A 
ATOM     22  C   UNL d   1      32.434  20.937 -20.982  0.00  0.00     0.002 A 
ATOM     23  C   UNL d   1      32.304  21.583 -20.467  0.00  0.00     0.000 A 
ATOM     24  C   UNL d   1      32.497  22.353 -20.722  0.00  0.00     0.000 A 
ATOM     25  C   UNL d   1      32.811  22.475 -21.466  0.00  0.00     0.000 A 
ATOM     26  C   UNL d   1      32.941  21.828 -21.980  0.00  0.00     0.002 A 
ENDBRANCH  18  21
ENDBRANCH   1  16
TORSDOF 5
ENDMDL
MODEL 3
REMARK VINA RESULT:      -2.0      2.030      5.394
REMARK  5 active torsions:
REMARK  status: ('A' for Active; 'I' for Inactive)
REMARK    1  A    between atoms: C_11  and  C_1 
REMARK    2  A    between atoms: C_2  and  N_5 
REMARK    3  A    between atoms: N_3  and  C_7 
REMARK       I    between atoms: N_5  and  C_6 
REMARK    4  A    between atoms: C_6  and  C_9 
REMARK    5  A    between atoms: C_16  and  C_8 
ROOT
ATOM      1  N   UNL d   1      32.889  19.675 -22.176  0.00  0.00    -0.183 NA
ATOM      2  C   UNL d   1      33.034  19.299 -22.958  0.00  0.00     0.281 C 
ATOM      3  O   UNL d   1      33.241  19.779 -23.611  0.00  0.00    -0.265 OA
ENDROOT
BRANCH   2   4
ATOM      4  C   UNL d   1      32.956  18.429 -23.021  0.00  0.00     0.065 A 
ATOM      5  C   UNL d   1      32.594  18.145 -23.707  0.00  0.00     0.091 A 
ATOM      6  C   UNL d   1      32.511  17.317 -23.785  0.00  0.00     0.133 A 
ATOM      7  C   UNL d   1      32.781  16.805 -23.197  0.00  0.00     0.024 A 
ATOM      8  C   UNL d   1      33.148  17.098 -22.505  0.00  0.00     0.002 A 
ATOM      9  C   UNL d   1      33.227  17.917 -22.434  0.00  0.00     0.005 A 
BRANCH   5  10
ATOM     10  C   UNL d   1      32.327  18.649 -24.285  0.00  0.00     0.213 C 
ATOM     11  O   UNL d   1      32.771  18.781 -24.981  0.00  0.00    -0.644 OA
ATOM     12  O   UNL d   1      31.633  18.983 -24.122  0.00  0.00    -0.644 OA
ENDBRANCH   5  10
BRANCH   6  13
ATOM     13  N   UNL d   1      32.158  16.998 -24.446  0.00  0.00    -0.114 N 
ATOM     14  O   UNL d   1      32.568  16.697 -25.097  0.00  0.00    -0.532 OA
ATOM     15  O   UNL d   1      31.354  16.934 -24.552  0.00  0.00    -0.532 OA
ENDBRANCH   6  13
ENDBRANCH   2   4
BRANCH   1  16
ATOM     16  C   UNL d   1      32.960  20.493 -22.104  0.00  0.00     0.197 A 
ATOM     17  N   UNL d   1      32.744  20.841 -21.425  0.00  0.00    -0.221 NA
ATOM     18  C   UNL d   1      32.870  21.635 -21.507  0.00  0.00     0.090 A 
ATOM     19  C   UNL d   1      33.143  21.759 -22.186  0.00  0.00     0.058 A 
ATOM     20  S   UNL d   1      33.237  21.087 -22.646  0.00  0.00    -0.046 SA
BRANCH  18  21
ATOM     21  C   UNL d   1      32.741  22.247 -20.974  0.00  0.00     0.018 A 
ATOM     22  C   UNL d   1      32.792  22.095 -20.162  0.00  0.00     0.002 A 
ATOM     23  C   UNL d   1      32.663  22.711 -19.611  0.00  0.00     0.000 A 
ATOM     24  C   UNL d   1      32.483  23.476 -19.889  0.00  0.00     0.000 A 
ATOM     25  C   UNL d   1      32.433  23.622 -20.691  0.00  0.00     0.000 A 
ATOM     26  C   UNL d   1      32.563  23.006 -21.242  0.00  0.00     0.002 A 
ENDBRANCH  18  21
ENDBRANCH   1  16
TORSDOF 5
ENDMDL
