MODEL 1
REMARK VINA RESULT:     105.9      0.000      0.000
REMARK  5 active torsions:
REMARK  status: ('A' for Active; 'I' for Inactive)
REMARK    1  A    between atoms: C_12  and  C_1 
REMARK    2  A    between atoms: N_7  and  C_2 
REMARK    3  A    between atoms: C_3  and  C_6 
REMARK       I    between atoms: C_6  and  N_7 
REMARK    4  A    between atoms: O_18  and  C_12 
REMARK    5  A    between atoms: C_23  and  O_18 
ROOT
ATOM      1  C   UNL d   1     -56.082-101.387 -44.687  0.00  0.00     0.111 A 
ATOM      2  C   UNL d   1     -55.635-101.094 -44.102  0.00  0.00     0.096 A 
ATOM      3  S   UNL d   1     -56.116-100.799 -45.292  0.00  0.00    -0.080 SA
ATOM      4  C   UNL d   1     -55.373-100.341 -44.291  0.00  0.00     0.024 A 
ATOM      5  C   UNL d   1     -55.675-100.159 -45.036  0.00  0.00     0.031 A 
ATOM      6  C   UNL d   1     -54.899 -99.798 -43.885  0.00  0.00     0.002 A 
ATOM      7  C   UNL d   1     -55.510 -99.432 -45.387  0.00  0.00     0.006 A 
ATOM      8  C   UNL d   1     -54.732 -99.066 -44.235  0.00  0.00     0.000 A 
ATOM      9  C   UNL d   1     -55.034 -98.883 -44.980  0.00  0.00     0.001 A 
ENDROOT
BRANCH   2  10
ATOM     10  N   UNL d   1     -55.471-101.523 -43.395  0.00  0.00    -0.207 NA
ATOM     11  C   UNL d   1     -55.394-101.117 -42.681  0.00  0.00     0.284 C 
ATOM     12  O   UNL d   1     -55.489-100.250 -42.702  0.00  0.00    -0.265 OA
BRANCH  11  13
ATOM     13  C   UNL d   1     -55.235-101.577 -42.022  0.00  0.00     0.121 A 
ATOM     14  C   UNL d   1     -55.188-101.202 -41.290  0.00  0.00     0.204 A 
ATOM     15  C   UNL d   1     -55.029-101.634 -40.597  0.00  0.00     0.062 A 
ATOM     16  O   UNL d   1     -55.306-100.362 -41.247  0.00  0.00    -0.286 OA
ATOM     17  C   UNL d   1     -54.986-101.247 -39.878  0.00  0.00     0.005 A 
ATOM     18  C   UNL d   1     -54.915-102.455 -40.648  0.00  0.00     0.103 A 
ATOM     19  C   UNL d   1     -54.826-101.693 -39.199  0.00  0.00     0.000 A 
ATOM     20  C   UNL d   1     -54.711-102.505 -39.234  0.00  0.00     0.002 A 
ATOM     21  C   UNL d   1     -54.756-102.878 -39.951  0.00  0.00     0.025 A 
ATOM     22  O   UNL d   1     -54.960-102.837 -41.374  0.00  0.00    -0.305 OA
ATOM     23  C   UNL d   1     -55.119-102.404 -42.065  0.00  0.00     0.131 A 
ENDBRANCH  11  13
ENDBRANCH   2  10
BRANCH   1  24
ATOM     24  C   UNL d   1     -56.439-102.135 -44.683  0.00  0.00     0.308 C 
ATOM     25  O   UNL d   1     -57.051-102.309 -44.174  0.00  0.00    -0.258 OA
BRANCH  24  26
ATOM     26  O   UNL d   1     -56.147-102.661 -45.201  0.00  0.00    -0.271 OA
BRANCH  26  27
ATOM     27  C   UNL d   1     -56.304-102.661 -46.082  0.00  0.00     0.126 C 
ATOM     28  C   UNL d   1     -55.833-102.241 -46.578  0.00  0.00     0.029 C 
ENDBRANCH  26  27
ENDBRANCH  24  26
ENDBRANCH   1  24
TORSDOF 5
ENDMDL
