MODEL 1
REMARK VINA RESULT:       0.4      0.000      0.000
REMARK  5 active torsions:
REMARK  status: ('A' for Active; 'I' for Inactive)
REMARK    1  A    between atoms: C_5  and  N_1 
REMARK    2  A    between atoms: C_8  and  C_3 
REMARK    3  A    between atoms: C_7  and  C_4 
REMARK    4  A    between atoms: N_12  and  C_5 
REMARK    5  A    between atoms: N_11  and  C_10 
ROOT
ATOM      1  N   UNL d   1      32.435  18.143 -23.635  0.00  0.00    -0.203 N 
ATOM      2  N   UNL d   1      32.845  18.739 -23.240  0.00  0.00    -0.163 NA
ATOM      3  C   UNL d   1      32.340  19.241 -22.912  0.00  0.00     0.103 A 
ATOM      4  C   UNL d   1      31.632  18.277 -23.553  0.00  0.00     0.087 A 
ATOM      5  C   UNL d   1      31.555  18.974 -23.094  0.00  0.00     0.040 A 
ENDROOT
BRANCH   4   6
ATOM      6  C   UNL d   1      31.065  17.765 -23.895  0.00  0.00     0.018 A 
ATOM      7  C   UNL d   1      30.812  17.106 -23.479  0.00  0.00     0.003 A 
ATOM      8  C   UNL d   1      30.267  16.604 -23.796  0.00  0.00     0.018 A 
ATOM      9  C   UNL d   1      29.952  16.753 -24.559  0.00  0.00     0.064 A 
ATOM     10  C   UNL d   1      30.204  17.413 -24.975  0.00  0.00     0.018 A 
ATOM     11  C   UNL d   1      30.769  17.928 -24.641  0.00  0.00     0.003 A 
BRANCH   9  12
ATOM     12  N   UNL d   1      29.378  16.205 -24.864  0.00  0.00    -0.301 N 
ATOM     13  C   UNL d   1      28.580  16.460 -24.945  0.00  0.00     0.100 C 
ATOM     14  C   UNL d   1      29.486  15.453 -25.096  0.00  0.00     0.100 C 
ENDBRANCH   9  12
ENDBRANCH   4   6
BRANCH   1  15
ATOM     15  C   UNL d   1      32.784  17.495 -24.060  0.00  0.00     0.222 C 
ATOM     16  S   UNL d   1      32.889  17.568 -24.901  0.00  0.00    -0.037 SA
BRANCH  15  17
ATOM     17  N   UNL d   1      33.010  16.821 -23.662  0.00  0.00    -0.214 NA
ATOM     18  C   UNL d   1      33.164  16.097 -24.079  0.00  0.00     0.122 C 
ENDBRANCH  15  17
ENDBRANCH   1  15
BRANCH   3  19
ATOM     19  C   UNL d   1      32.563  19.902 -22.474  0.00  0.00     0.019 A 
ATOM     20  C   UNL d   1      32.410  19.951 -21.650  0.00  0.00     0.002 A 
ATOM     21  C   UNL d   1      32.633  20.612 -21.212  0.00  0.00     0.007 A 
ATOM     22  C   UNL d   1      33.010  21.224 -21.603  0.00  0.00     0.035 A 
ATOM     23  C   UNL d   1      33.170  21.193 -22.419  0.00  0.00     0.007 A 
ATOM     24 BR   UNL d   1      33.241  21.914 -21.137  0.00  0.00    -0.049 Br
ATOM     25  C   UNL d   1      32.945  20.530 -22.850  0.00  0.00     0.002 A 
ENDBRANCH   3  19
TORSDOF 5
ENDMDL
MODEL 2
REMARK VINA RESULT:       0.5      3.209      5.258
REMARK  5 active torsions:
REMARK  status: ('A' for Active; 'I' for Inactive)
REMARK    1  A    between atoms: C_5  and  N_1 
REMARK    2  A    between atoms: C_8  and  C_3 
REMARK    3  A    between atoms: C_7  and  C_4 
REMARK    4  A    between atoms: N_12  and  C_5 
REMARK    5  A    between atoms: N_11  and  C_10 
ROOT
ATOM      1  N   UNL d   1      32.651  22.682 -20.959  0.00  0.00    -0.203 N 
ATOM      2  N   UNL d   1      32.626  23.098 -20.248  0.00  0.00    -0.163 NA
ATOM      3  C   UNL d   1      32.732  22.609 -19.645  0.00  0.00     0.103 A 
ATOM      4  C   UNL d   1      32.779  21.890 -20.795  0.00  0.00     0.087 A 
ATOM      5  C   UNL d   1      32.833  21.827 -19.962  0.00  0.00     0.040 A 
ENDROOT
BRANCH   4   6
ATOM      6  C   UNL d   1      32.832  21.320 -21.406  0.00  0.00     0.018 A 
ATOM      7  C   UNL d   1      32.545  20.562 -21.278  0.00  0.00     0.003 A 
ATOM      8  C   UNL d   1      32.591  20.003 -21.857  0.00  0.00     0.018 A 
ATOM      9  C   UNL d   1      32.933  20.192 -22.599  0.00  0.00     0.064 A 
ATOM     10  C   UNL d   1      33.220  20.950 -22.727  0.00  0.00     0.018 A 
ATOM     11  C   UNL d   1      33.170  21.524 -22.124  0.00  0.00     0.003 A 
BRANCH   9  12
ATOM     12  N   UNL d   1      32.965  19.579 -23.187  0.00  0.00    -0.301 N 
ATOM     13  C   UNL d   1      33.237  18.816 -22.959  0.00  0.00     0.100 C 
ATOM     14  C   UNL d   1      32.768  19.619 -23.956  0.00  0.00     0.100 C 
ENDBRANCH   9  12
ENDBRANCH   4   6
BRANCH   1  15
ATOM     15  C   UNL d   1      32.559  23.014 -21.735  0.00  0.00     0.222 C 
ATOM     16  S   UNL d   1      33.240  23.061 -22.243  0.00  0.00    -0.037 SA
BRANCH  15  17
ATOM     17  N   UNL d   1      31.829  23.280 -21.981  0.00  0.00    -0.214 NA
ATOM     18  C   UNL d   1      31.723  23.618 -22.754  0.00  0.00     0.122 C 
ENDBRANCH  15  17
ENDBRANCH   1  15
BRANCH   3  19
ATOM     19  C   UNL d   1      32.739  22.842 -18.855  0.00  0.00     0.019 A 
ATOM     20  C   UNL d   1      33.234  23.466 -18.589  0.00  0.00     0.002 A 
ATOM     21  C   UNL d   1      33.241  23.699 -17.799  0.00  0.00     0.007 A 
ATOM     22  C   UNL d   1      32.751  23.305 -17.277  0.00  0.00     0.035 A 
ATOM     23  C   UNL d   1      32.253  22.684 -17.523  0.00  0.00     0.007 A 
ATOM     24 BR   UNL d   1      32.764  23.555 -16.450  0.00  0.00    -0.049 Br
ATOM     25  C   UNL d   1      32.252  22.457 -18.313  0.00  0.00     0.002 A 
ENDBRANCH   3  19
TORSDOF 5
ENDMDL
MODEL 3
REMARK VINA RESULT:       1.3      1.689      2.514
REMARK  5 active torsions:
REMARK  status: ('A' for Active; 'I' for Inactive)
REMARK    1  A    between atoms: C_5  and  N_1 
REMARK    2  A    between atoms: C_8  and  C_3 
REMARK    3  A    between atoms: C_7  and  C_4 
REMARK    4  A    between atoms: N_12  and  C_5 
REMARK    5  A    between atoms: N_11  and  C_10 
ROOT
ATOM      1  N   UNL d   1      32.672  19.774 -23.262  0.00  0.00    -0.203 N 
ATOM      2  N   UNL d   1      32.731  20.480 -22.841  0.00  0.00    -0.163 NA
ATOM      3  C   UNL d   1      32.759  20.334 -22.072  0.00  0.00     0.103 A 
ATOM      4  C   UNL d   1      32.662  19.152 -22.731  0.00  0.00     0.087 A 
ATOM      5  C   UNL d   1      32.716  19.491 -21.967  0.00  0.00     0.040 A 
ENDROOT
BRANCH   4   6
ATOM      6  C   UNL d   1      32.605  18.357 -22.988  0.00  0.00     0.018 A 
ATOM      7  C   UNL d   1      33.241  18.010 -23.373  0.00  0.00     0.003 A 
ATOM      8  C   UNL d   1      33.200  17.245 -23.626  0.00  0.00     0.018 A 
ATOM      9  C   UNL d   1      32.504  16.796 -23.497  0.00  0.00     0.064 A 
ATOM     10  C   UNL d   1      31.868  17.143 -23.112  0.00  0.00     0.018 A 
ATOM     11  C   UNL d   1      31.917  17.934 -22.852  0.00  0.00     0.003 A 
BRANCH   9  12
ATOM     12  N   UNL d   1      32.494  15.993 -23.776  0.00  0.00    -0.301 N 
ATOM     13  C   UNL d   1      33.213  15.655 -24.056  0.00  0.00     0.100 C 
ATOM     14  C   UNL d   1      31.881  15.489 -23.816  0.00  0.00     0.100 C 
ENDBRANCH   9  12
ENDBRANCH   4   6
BRANCH   1  15
ATOM     15  C   UNL d   1      32.629  19.698 -24.107  0.00  0.00     0.222 C 
ATOM     16  S   UNL d   1      31.943  19.330 -24.450  0.00  0.00    -0.037 SA
BRANCH  15  17
ATOM     17  N   UNL d   1      33.237  19.976 -24.573  0.00  0.00    -0.214 NA
ATOM     18  C   UNL d   1      33.217  20.762 -24.896  0.00  0.00     0.122 C 
ENDBRANCH  15  17
ENDBRANCH   1  15
BRANCH   3  19
ATOM     19  C   UNL d   1      32.818  20.915 -21.492  0.00  0.00     0.019 A 
ATOM     20  C   UNL d   1      32.713  21.728 -21.676  0.00  0.00     0.002 A 
ATOM     21  C   UNL d   1      32.773  22.309 -21.096  0.00  0.00     0.007 A 
ATOM     22  C   UNL d   1      32.938  22.074 -20.330  0.00  0.00     0.035 A 
ATOM     23  C   UNL d   1      33.045  21.273 -20.129  0.00  0.00     0.007 A 
ATOM     24 BR   UNL d   1      32.999  22.690 -19.727  0.00  0.00    -0.049 Br
ATOM     25  C   UNL d   1      32.984  20.698 -20.713  0.00  0.00     0.002 A 
ENDBRANCH   3  19
TORSDOF 5
ENDMDL
MODEL 4
REMARK VINA RESULT:       1.6      3.759      5.327
REMARK  5 active torsions:
REMARK  status: ('A' for Active; 'I' for Inactive)
REMARK    1  A    between atoms: C_5  and  N_1 
REMARK    2  A    between atoms: C_8  and  C_3 
REMARK    3  A    between atoms: C_7  and  C_4 
REMARK    4  A    between atoms: N_12  and  C_5 
REMARK    5  A    between atoms: N_11  and  C_10 
ROOT
ATOM      1  N   UNL d   1      32.716  21.472 -20.903  0.00  0.00    -0.203 N 
ATOM      2  N   UNL d   1      32.758  21.520 -20.081  0.00  0.00    -0.163 NA
ATOM      3  C   UNL d   1      32.854  22.265 -19.859  0.00  0.00     0.103 A 
ATOM      4  C   UNL d   1      32.789  22.225 -21.214  0.00  0.00     0.087 A 
ATOM      5  C   UNL d   1      32.878  22.743 -20.561  0.00  0.00     0.040 A 
ENDROOT
BRANCH   4   6
ATOM      6  C   UNL d   1      32.769  22.362 -22.039  0.00  0.00     0.018 A 
ATOM      7  C   UNL d   1      32.275  22.944 -22.341  0.00  0.00     0.003 A 
ATOM      8  C   UNL d   1      32.246  23.087 -23.134  0.00  0.00     0.018 A 
ATOM      9  C   UNL d   1      32.721  22.639 -23.660  0.00  0.00     0.064 A 
ATOM     10  C   UNL d   1      33.214  22.057 -23.358  0.00  0.00     0.018 A 
ATOM     11  C   UNL d   1      33.240  21.915 -22.537  0.00  0.00     0.003 A 
BRANCH   9  12
ATOM     12  N   UNL d   1      32.665  22.815 -24.490  0.00  0.00    -0.301 N 
ATOM     13  C   UNL d   1      33.172  22.405 -25.023  0.00  0.00     0.100 C 
ATOM     14  C   UNL d   1      32.186  23.332 -24.856  0.00  0.00     0.100 C 
ENDBRANCH   9  12
ENDBRANCH   4   6
BRANCH   1  15
ATOM     15  C   UNL d   1      32.614  20.761 -21.357  0.00  0.00     0.222 C 
ATOM     16  S   UNL d   1      31.886  20.650 -21.784  0.00  0.00    -0.037 SA
BRANCH  15  17
ATOM     17  N   UNL d   1      33.206  20.202 -21.377  0.00  0.00    -0.214 NA
ATOM     18  C   UNL d   1      33.047  19.404 -21.621  0.00  0.00     0.122 C 
ENDBRANCH  15  17
ENDBRANCH   1  15
BRANCH   3  19
ATOM     19  C   UNL d   1      32.917  22.510 -19.075  0.00  0.00     0.019 A 
ATOM     20  C   UNL d   1      33.178  23.284 -18.880  0.00  0.00     0.002 A 
ATOM     21  C   UNL d   1      33.241  23.530 -18.096  0.00  0.00     0.007 A 
ATOM     22  C   UNL d   1      33.041  22.997 -17.509  0.00  0.00     0.035 A 
ATOM     23  C   UNL d   1      32.780  22.226 -17.683  0.00  0.00     0.007 A 
ATOM     24 BR   UNL d   1      33.110  23.262 -16.689  0.00  0.00    -0.049 Br
ATOM     25  C   UNL d   1      32.720  21.988 -18.468  0.00  0.00     0.002 A 
ENDBRANCH   3  19
TORSDOF 5
ENDMDL
MODEL 5
REMARK VINA RESULT:       3.0      2.596      4.943
REMARK  5 active torsions:
REMARK  status: ('A' for Active; 'I' for Inactive)
REMARK    1  A    between atoms: C_5  and  N_1 
REMARK    2  A    between atoms: C_8  and  C_3 
REMARK    3  A    between atoms: C_7  and  C_4 
REMARK    4  A    between atoms: N_12  and  C_5 
REMARK    5  A    between atoms: N_11  and  C_10 
ROOT
ATOM      1  N   UNL d   1      30.370  16.117 -23.520  0.00  0.00    -0.203 N 
ATOM      2  N   UNL d   1      29.646  15.743 -23.402  0.00  0.00    -0.163 NA
ATOM      3  C   UNL d   1      29.058  16.240 -23.551  0.00  0.00     0.103 A 
ATOM      4  C   UNL d   1      30.232  16.888 -23.755  0.00  0.00     0.087 A 
ATOM      5  C   UNL d   1      29.400  16.983 -23.780  0.00  0.00     0.040 A 
ENDROOT
BRANCH   4   6
ATOM      6  C   UNL d   1      30.861  17.415 -23.920  0.00  0.00     0.018 A 
ATOM      7  C   UNL d   1      31.028  17.616 -24.697  0.00  0.00     0.003 A 
ATOM      8  C   UNL d   1      31.631  18.123 -24.870  0.00  0.00     0.018 A 
ATOM      9  C   UNL d   1      32.096  18.450 -24.253  0.00  0.00     0.064 A 
ATOM     10  C   UNL d   1      31.929  18.249 -23.476  0.00  0.00     0.018 A 
ATOM     11  C   UNL d   1      31.304  17.725 -23.303  0.00  0.00     0.003 A 
BRANCH   9  12
ATOM     12  N   UNL d   1      32.724  18.981 -24.470  0.00  0.00    -0.301 N 
ATOM     13  C   UNL d   1      33.241  18.758 -25.096  0.00  0.00     0.100 C 
ATOM     14  C   UNL d   1      32.906  19.688 -24.157  0.00  0.00     0.100 C 
ENDBRANCH   9  12
ENDBRANCH   4   6
BRANCH   1  15
ATOM     15  C   UNL d   1      31.136  15.765 -23.416  0.00  0.00     0.222 C 
ATOM     16  S   UNL d   1      31.604  15.593 -24.105  0.00  0.00    -0.037 SA
BRANCH  15  17
ATOM     17  N   UNL d   1      31.410  15.599 -22.666  0.00  0.00    -0.214 NA
ATOM     18  C   UNL d   1      32.241  15.510 -22.513  0.00  0.00     0.122 C 
ENDBRANCH  15  17
ENDBRANCH   1  15
BRANCH   3  19
ATOM     19  C   UNL d   1      28.260  16.046 -23.487  0.00  0.00     0.019 A 
ATOM     20  C   UNL d   1      27.843  15.699 -24.128  0.00  0.00     0.002 A 
ATOM     21  C   UNL d   1      27.045  15.505 -24.065  0.00  0.00     0.007 A 
ATOM     22  C   UNL d   1      26.666  15.660 -23.357  0.00  0.00     0.035 A 
ATOM     23  C   UNL d   1      27.063  16.003 -22.711  0.00  0.00     0.007 A 
ATOM     24 BR   UNL d   1      25.829  15.454 -23.298  0.00  0.00    -0.049 Br
ATOM     25  C   UNL d   1      27.860  16.194 -22.781  0.00  0.00     0.002 A 
ENDBRANCH   3  19
TORSDOF 5
ENDMDL
