MODEL 1
REMARK VINA RESULT:      -7.1      0.000      0.000
REMARK  4 active torsions:
REMARK  status: ('A' for Active; 'I' for Inactive)
REMARK    1  A    between atoms: N_2  and  S_1 
REMARK    2  A    between atoms: N_3  and  S_1 
REMARK    3  A    between atoms: C_8  and  N_3 
REMARK    4  A    between atoms: C_6  and  C_8 
ROOT
ATOM      1  S   UNL d   1      53.290  31.835  53.425  0.00  0.00     0.351 S 
ATOM      2  O   UNL d   1      52.859  31.894  52.722  0.00  0.00    -0.180 OA
ATOM      3  O   UNL d   1      53.719  31.777  54.123  0.00  0.00    -0.180 OA
ENDROOT
BRANCH   1   4
ATOM      4  N   UNL d   1      53.136  31.024  53.446  0.00  0.00    -0.211 N 
ATOM      5  C   UNL d   1      53.625  30.535  53.897  0.00  0.00     0.120 C 
ATOM      6  C   UNL d   1      53.471  29.728  53.917  0.00  0.00     0.142 C 
ATOM      7  O   UNL d   1      52.911  29.397  53.410  0.00  0.00    -0.300 OA
ATOM      8  C   UNL d   1      52.505  29.877  52.881  0.00  0.00     0.142 C 
ATOM      9  C   UNL d   1      52.658  30.688  52.860  0.00  0.00     0.120 C 
ENDBRANCH   1   4
BRANCH   1  10
ATOM     10  N   UNL d   1      53.477  32.634  53.459  0.00  0.00    -0.144 NA
BRANCH  10  11
ATOM     11  C   UNL d   1      52.916  33.190  53.729  0.00  0.00     0.121 C 
BRANCH  11  12
ATOM     12  C   UNL d   1      53.131  33.994  53.833  0.00  0.00     0.185 C 
ATOM     13  O   UNL d   1      53.153  34.333  54.631  0.00  0.00    -0.321 OA
ATOM     14  C   UNL d   1      53.143  35.151  54.545  0.00  0.00     0.117 C 
ATOM     15  C   UNL d   1      52.869  35.331  53.787  0.00  0.00     0.025 C 
ATOM     16  C   UNL d   1      52.708  34.618  53.401  0.00  0.00     0.012 C 
ENDBRANCH  11  12
ENDBRANCH  10  11
ENDBRANCH   1  10
TORSDOF 4
ENDMDL
MODEL 2
REMARK VINA RESULT:      -6.9      1.049      4.037
REMARK  4 active torsions:
REMARK  status: ('A' for Active; 'I' for Inactive)
REMARK    1  A    between atoms: N_2  and  S_1 
REMARK    2  A    between atoms: N_3  and  S_1 
REMARK    3  A    between atoms: C_8  and  N_3 
REMARK    4  A    between atoms: C_6  and  C_8 
ROOT
ATOM      1  S   UNL d   1      53.225  33.289  53.658  0.00  0.00     0.351 S 
ATOM      2  O   UNL d   1      52.401  33.234  53.624  0.00  0.00    -0.180 OA
ATOM      3  O   UNL d   1      54.044  33.344  53.691  0.00  0.00    -0.180 OA
ENDROOT
BRANCH   1   4
ATOM      4  N   UNL d   1      53.156  34.016  54.043  0.00  0.00    -0.211 N 
ATOM      5  C   UNL d   1      52.904  34.675  53.615  0.00  0.00     0.120 C 
ATOM      6  C   UNL d   1      52.836  35.398  53.999  0.00  0.00     0.142 C 
ATOM      7  O   UNL d   1      53.120  35.489  54.769  0.00  0.00    -0.300 OA
ATOM      8  C   UNL d   1      53.472  34.855  55.152  0.00  0.00     0.142 C 
ATOM      9  C   UNL d   1      53.541  34.128  54.767  0.00  0.00     0.120 C 
ENDBRANCH   1   4
BRANCH   1  10
ATOM     10  N   UNL d   1      53.359  32.573  53.279  0.00  0.00    -0.144 NA
BRANCH  10  11
ATOM     11  C   UNL d   1      52.934  31.889  53.499  0.00  0.00     0.121 C 
BRANCH  11  12
ATOM     12  C   UNL d   1      53.155  31.137  53.200  0.00  0.00     0.185 C 
ATOM     13  O   UNL d   1      52.673  30.762  52.585  0.00  0.00    -0.321 OA
ATOM     14  C   UNL d   1      52.874  29.963  52.577  0.00  0.00     0.117 C 
ATOM     15  C   UNL d   1      53.247  29.780  53.290  0.00  0.00     0.025 C 
ATOM     16  C   UNL d   1      53.277  30.471  53.744  0.00  0.00     0.012 C 
ENDBRANCH  11  12
ENDBRANCH  10  11
ENDBRANCH   1  10
TORSDOF 4
ENDMDL
MODEL 3
REMARK VINA RESULT:      -6.4      2.164      3.123
REMARK  4 active torsions:
REMARK  status: ('A' for Active; 'I' for Inactive)
REMARK    1  A    between atoms: N_2  and  S_1 
REMARK    2  A    between atoms: N_3  and  S_1 
REMARK    3  A    between atoms: C_8  and  N_3 
REMARK    4  A    between atoms: C_6  and  C_8 
ROOT
ATOM      1  S   UNL d   1      52.815  33.482  53.835  0.00  0.00     0.351 S 
ATOM      2  O   UNL d   1      52.797  34.284  54.034  0.00  0.00    -0.180 OA
ATOM      3  O   UNL d   1      52.833  32.685  53.637  0.00  0.00    -0.180 OA
ENDROOT
BRANCH   1   4
ATOM      4  N   UNL d   1      53.600  33.442  54.088  0.00  0.00    -0.211 N 
ATOM      5  C   UNL d   1      54.143  33.010  53.642  0.00  0.00     0.120 C 
ATOM      6  C   UNL d   1      54.924  32.970  53.895  0.00  0.00     0.142 C 
ATOM      7  O   UNL d   1      55.137  33.261  54.638  0.00  0.00    -0.300 OA
ATOM      8  C   UNL d   1      54.566  33.591  55.126  0.00  0.00     0.142 C 
ATOM      9  C   UNL d   1      53.781  33.632  54.873  0.00  0.00     0.120 C 
ENDBRANCH   1   4
BRANCH   1  10
ATOM     10  N   UNL d   1      52.039  33.459  53.568  0.00  0.00    -0.144 NA
BRANCH  10  11
ATOM     11  C   UNL d   1      51.708  34.109  53.163  0.00  0.00     0.121 C 
BRANCH  11  12
ATOM     12  C   UNL d   1      50.964  34.039  52.782  0.00  0.00     0.185 C 
ATOM     13  O   UNL d   1      50.906  34.170  51.927  0.00  0.00    -0.321 OA
ATOM     14  C   UNL d   1      50.111  34.300  51.758  0.00  0.00     0.117 C 
ATOM     15  C   UNL d   1      49.724  34.503  52.458  0.00  0.00     0.025 C 
ATOM     16  C   UNL d   1      50.284  34.499  53.066  0.00  0.00     0.012 C 
ENDBRANCH  11  12
ENDBRANCH  10  11
ENDBRANCH   1  10
TORSDOF 4
ENDMDL
MODEL 4
REMARK VINA RESULT:      -6.4      2.404      3.462
REMARK  4 active torsions:
REMARK  status: ('A' for Active; 'I' for Inactive)
REMARK    1  A    between atoms: N_2  and  S_1 
REMARK    2  A    between atoms: N_3  and  S_1 
REMARK    3  A    between atoms: C_8  and  N_3 
REMARK    4  A    between atoms: C_6  and  C_8 
ROOT
ATOM      1  S   UNL d   1      52.103  33.850  53.034  0.00  0.00     0.351 S 
ATOM      2  O   UNL d   1      52.324  34.643  53.101  0.00  0.00    -0.180 OA
ATOM      3  O   UNL d   1      51.884  33.060  52.966  0.00  0.00    -0.180 OA
ENDROOT
BRANCH   1   4
ATOM      4  N   UNL d   1      51.378  34.083  52.714  0.00  0.00    -0.211 N 
ATOM      5  C   UNL d   1      50.707  34.073  53.194  0.00  0.00     0.120 C 
ATOM      6  C   UNL d   1      49.986  34.305  52.875  0.00  0.00     0.142 C 
ATOM      7  O   UNL d   1      49.913  34.438  52.063  0.00  0.00    -0.300 OA
ATOM      8  C   UNL d   1      50.563  34.338  51.572  0.00  0.00     0.142 C 
ATOM      9  C   UNL d   1      51.288  34.105  51.892  0.00  0.00     0.120 C 
ENDBRANCH   1   4
BRANCH   1  10
ATOM     10  N   UNL d   1      52.804  33.555  53.345  0.00  0.00    -0.144 NA
BRANCH  10  11
ATOM     11  C   UNL d   1      53.093  33.831  54.077  0.00  0.00     0.121 C 
BRANCH  11  12
ATOM     12  C   UNL d   1      53.781  33.494  54.417  0.00  0.00     0.185 C 
ATOM     13  O   UNL d   1      53.707  32.972  55.106  0.00  0.00    -0.321 OA
ATOM     14  C   UNL d   1      54.453  32.923  55.451  0.00  0.00     0.117 C 
ATOM     15  C   UNL d   1      54.908  33.558  55.182  0.00  0.00     0.025 C 
ATOM     16  C   UNL d   1      54.440  34.002  54.666  0.00  0.00     0.012 C 
ENDBRANCH  11  12
ENDBRANCH  10  11
ENDBRANCH   1  10
TORSDOF 4
ENDMDL
MODEL 5
REMARK VINA RESULT:      -4.1     15.381     16.004
REMARK  4 active torsions:
REMARK  status: ('A' for Active; 'I' for Inactive)
REMARK    1  A    between atoms: N_2  and  S_1 
REMARK    2  A    between atoms: N_3  and  S_1 
REMARK    3  A    between atoms: C_8  and  N_3 
REMARK    4  A    between atoms: C_6  and  C_8 
ROOT
ATOM      1  S   UNL d   1      46.934  26.989  67.637  0.00  0.00     0.351 S 
ATOM      2  O   UNL d   1      47.280  26.295  67.351  0.00  0.00    -0.180 OA
ATOM      3  O   UNL d   1      46.591  27.679  67.921  0.00  0.00    -0.180 OA
ENDROOT
BRANCH   1   4
ATOM      4  N   UNL d   1      46.198  26.725  67.372  0.00  0.00    -0.211 N 
ATOM      5  C   UNL d   1      45.776  27.188  66.834  0.00  0.00     0.120 C 
ATOM      6  C   UNL d   1      45.043  26.925  66.572  0.00  0.00     0.142 C 
ATOM      7  O   UNL d   1      44.685  26.270  66.923  0.00  0.00    -0.300 OA
ATOM      8  C   UNL d   1      45.062  25.879  67.538  0.00  0.00     0.142 C 
ATOM      9  C   UNL d   1      45.799  26.142  67.803  0.00  0.00     0.120 C 
ENDBRANCH   1   4
BRANCH   1  10
ATOM     10  N   UNL d   1      47.637  27.305  67.921  0.00  0.00    -0.144 NA
BRANCH  10  11
ATOM     11  C   UNL d   1      48.317  27.334  67.439  0.00  0.00     0.121 C 
BRANCH  11  12
ATOM     12  C   UNL d   1      49.015  27.711  67.710  0.00  0.00     0.185 C 
ATOM     13  O   UNL d   1      49.232  28.490  67.394  0.00  0.00    -0.321 OA
ATOM     14  C   UNL d   1      50.028  28.606  67.569  0.00  0.00     0.117 C 
ATOM     15  C   UNL d   1      50.368  27.873  67.739  0.00  0.00     0.025 C 
ATOM     16  C   UNL d   1      49.778  27.299  67.669  0.00  0.00     0.012 C 
ENDBRANCH  11  12
ENDBRANCH  10  11
ENDBRANCH   1  10
TORSDOF 4
ENDMDL
