MODEL 1
REMARK VINA RESULT:      -5.3      0.000      0.000
REMARK  2 active torsions:
REMARK  status: ('A' for Active; 'I' for Inactive)
REMARK    1  A    between atoms: CA_2  and  C_1 
REMARK    2  A    between atoms: C_3  and  CA_2 
ROOT
ATOM      1  C   UNL d   1      56.358  -0.234  32.314  0.00  0.00     0.053 A 
ATOM      2  C   UNL d   1      56.033  -0.885  32.714  0.00  0.00     0.142 A 
ATOM      3  F   UNL d   1      56.262  -1.650  32.506  0.00  0.00    -0.204 F 
ATOM      4  C   UNL d   1      56.127   0.539  32.523  0.00  0.00     0.004 A 
ATOM      5  C   UNL d   1      55.482  -0.760  33.318  0.00  0.00     0.030 A 
ATOM      6  C   UNL d   1      55.573   0.653  33.132  0.00  0.00     0.000 A 
ATOM      7  C   UNL d   1      55.253   0.005  33.526  0.00  0.00     0.002 A 
ENDROOT
BRANCH   1   8
ATOM      8  CA  UNL d   1      56.907  -0.351  31.711  0.00  0.00     0.169 C 
ATOM      9  N   UNL d   1      57.051  -1.111  31.423  0.00  0.00    -0.142 N 
BRANCH   8  10
ATOM     10  C   UNL d   1      57.312   0.295  31.398  0.00  0.00     0.231 C 
ATOM     11  O   UNL d   1      57.030   0.682  30.729  0.00  0.00    -0.643 OA
ATOM     12  OXT UNL d   1      58.007   0.558  31.758  0.00  0.00    -0.643 OA
ENDBRANCH   8  10
ENDBRANCH   1   8
TORSDOF 2
ENDMDL
MODEL 2
REMARK VINA RESULT:      -3.6      8.690      9.300
REMARK  2 active torsions:
REMARK  status: ('A' for Active; 'I' for Inactive)
REMARK    1  A    between atoms: CA_2  and  C_1 
REMARK    2  A    between atoms: C_3  and  CA_2 
ROOT
ATOM      1  C   UNL d   1      60.070  -7.927  35.766  0.00  0.00     0.053 A 
ATOM      2  C   UNL d   1      59.795  -8.339  35.099  0.00  0.00     0.142 A 
ATOM      3  F   UNL d   1      59.129  -8.066  34.695  0.00  0.00    -0.204 F 
ATOM      4  C   UNL d   1      60.742  -8.202  36.174  0.00  0.00     0.004 A 
ATOM      5  C   UNL d   1      60.192  -9.019  34.846  0.00  0.00     0.030 A 
ATOM      6  C   UNL d   1      61.133  -8.886  35.911  0.00  0.00     0.000 A 
ATOM      7  C   UNL d   1      60.857  -9.291  35.250  0.00  0.00     0.002 A 
ENDROOT
BRANCH   1   8
ATOM      8  CA  UNL d   1      59.679  -7.249  36.023  0.00  0.00     0.169 C 
ATOM      9  N   UNL d   1      58.915  -7.301  36.330  0.00  0.00    -0.142 N 
BRANCH   8  10
ATOM     10  C   UNL d   1      60.057  -6.518  35.971  0.00  0.00     0.231 C 
ATOM     11  O   UNL d   1      60.798  -6.404  36.308  0.00  0.00    -0.643 OA
ATOM     12  OXT UNL d   1      59.687  -5.893  35.577  0.00  0.00    -0.643 OA
ENDBRANCH   8  10
ENDBRANCH   1   8
TORSDOF 2
ENDMDL
MODEL 3
REMARK VINA RESULT:      -3.5      1.641      2.276
REMARK  2 active torsions:
REMARK  status: ('A' for Active; 'I' for Inactive)
REMARK    1  A    between atoms: CA_2  and  C_1 
REMARK    2  A    between atoms: C_3  and  CA_2 
ROOT
ATOM      1  C   UNL d   1      56.259  -0.213  32.623  0.00  0.00     0.053 A 
ATOM      2  C   UNL d   1      56.476  -0.835  32.117  0.00  0.00     0.142 A 
ATOM      3  F   UNL d   1      56.164  -1.589  32.237  0.00  0.00    -0.204 F 
ATOM      4  C   UNL d   1      56.574   0.549  32.502  0.00  0.00     0.004 A 
ATOM      5  C   UNL d   1      57.005  -0.691  31.497  0.00  0.00     0.030 A 
ATOM      6  C   UNL d   1      57.104   0.682  31.876  0.00  0.00     0.000 A 
ATOM      7  C   UNL d   1      57.317   0.063  31.377  0.00  0.00     0.002 A 
ENDROOT
BRANCH   1   8
ATOM      8  CA  UNL d   1      55.734  -0.349  33.242  0.00  0.00     0.169 C 
ATOM      9  N   UNL d   1      55.497  -1.117  33.424  0.00  0.00    -0.142 N 
BRANCH   8  10
ATOM     10  C   UNL d   1      55.445   0.289  33.679  0.00  0.00     0.231 C 
ATOM     11  O   UNL d   1      54.756   0.676  33.451  0.00  0.00    -0.643 OA
ATOM     12  OXT UNL d   1      55.852   0.542  34.352  0.00  0.00    -0.643 OA
ENDBRANCH   8  10
ENDBRANCH   1   8
TORSDOF 2
ENDMDL
MODEL 4
REMARK VINA RESULT:      -2.8      3.888      4.761
REMARK  2 active torsions:
REMARK  status: ('A' for Active; 'I' for Inactive)
REMARK    1  A    between atoms: CA_2  and  C_1 
REMARK    2  A    between atoms: C_3  and  CA_2 
ROOT
ATOM      1  C   UNL d   1      59.176  -1.226  29.176  0.00  0.00     0.053 A 
ATOM      2  C   UNL d   1      59.829  -1.400  28.693  0.00  0.00     0.142 A 
ATOM      3  F   UNL d   1      60.336  -0.794  28.455  0.00  0.00    -0.204 F 
ATOM      4  C   UNL d   1      58.664  -1.838  29.417  0.00  0.00     0.004 A 
ATOM      5  C   UNL d   1      59.965  -2.180  28.455  0.00  0.00     0.030 A 
ATOM      6  C   UNL d   1      58.810  -2.618  29.172  0.00  0.00     0.000 A 
ATOM      7  C   UNL d   1      59.458  -2.786  28.693  0.00  0.00     0.002 A 
ENDROOT
BRANCH   1   8
ATOM      8  CA  UNL d   1      59.035  -0.452  29.417  0.00  0.00     0.169 C 
ATOM      9  N   UNL d   1      59.643  -0.002  29.746  0.00  0.00    -0.142 N 
BRANCH   8  10
ATOM     10  C   UNL d   1      58.281  -0.128  29.326  0.00  0.00     0.231 C 
ATOM     11  O   UNL d   1      58.038   0.170  28.599  0.00  0.00    -0.643 OA
ATOM     12  OXT UNL d   1      57.766  -0.103  29.971  0.00  0.00    -0.643 OA
ENDBRANCH   8  10
ENDBRANCH   1   8
TORSDOF 2
ENDMDL
