MODEL 1
REMARK VINA RESULT:      -5.2      0.000      0.000
REMARK  3 active torsions:
REMARK  status: ('A' for Active; 'I' for Inactive)
REMARK    1  A    between atoms: N_2  and  S_1 
REMARK    2  A    between atoms: C_8  and  S_1 
REMARK    3  A    between atoms: C_3  and  N_2 
ROOT
ATOM      1  C   UNL d   1     -41.641-123.038 -51.282  0.00  0.00     0.094 A 
ATOM      2  C   UNL d   1     -41.467-123.084 -52.101  0.00  0.00     0.021 A 
ATOM      3  C   UNL d   1     -41.313-122.395 -52.451  0.00  0.00     0.040 A 
ATOM      4  C   UNL d   1     -41.305-121.665 -52.110  0.00  0.00     0.196 A 
ATOM      5  C   UNL d   1     -41.649-122.332 -50.879  0.00  0.00     0.023 A 
ATOM      6  C   UNL d   1     -41.480-121.619 -51.287  0.00  0.00     0.044 A 
ATOM      7  O   UNL d   1     -41.126-120.929 -52.547  0.00  0.00    -0.287 OA
ATOM      8  C   UNL d   1     -41.466-123.772 -52.461  0.00  0.00     0.002 A 
ATOM      9  C   UNL d   1     -41.131-122.369 -53.267  0.00  0.00     0.003 A 
ATOM     10  C   UNL d   1     -41.123-123.105 -53.682  0.00  0.00     0.000 A 
ATOM     11  C   UNL d   1     -41.295-123.817 -53.265  0.00  0.00     0.000 A 
ENDROOT
BRANCH   1  12
ATOM     12  N   UNL d   1     -41.800-123.689 -50.895  0.00  0.00    -0.158 NA
BRANCH  12  13
ATOM     13  S   UNL d   1     -41.981-123.655 -50.078  0.00  0.00     0.285 S 
ATOM     14  O   UNL d   1     -41.149-123.775 -49.902  0.00  0.00    -0.198 OA
ATOM     15  O   UNL d   1     -42.737-123.546 -50.274  0.00  0.00    -0.198 OA
BRANCH  13  16
ATOM     16  C   UNL d   1     -42.154-123.621 -49.254  0.00  0.00     0.105 A 
ATOM     17  C   UNL d   1     -42.946-123.723 -49.008  0.00  0.00     0.013 A 
ATOM     18  C   UNL d   1     -43.135-123.695 -48.231  0.00  0.00     0.001 A 
ATOM     19  C   UNL d   1     -42.574-123.571 -47.690  0.00  0.00     0.000 A 
ATOM     20  C   UNL d   1     -41.772-123.468 -47.932  0.00  0.00     0.001 A 
ATOM     21  C   UNL d   1     -41.590-123.499 -48.737  0.00  0.00     0.013 A 
ENDBRANCH  13  16
ENDBRANCH  12  13
ENDBRANCH   1  12
TORSDOF 3
ENDMDL
MODEL 2
REMARK VINA RESULT:      -4.8      1.529      2.280
REMARK  3 active torsions:
REMARK  status: ('A' for Active; 'I' for Inactive)
REMARK    1  A    between atoms: N_2  and  S_1 
REMARK    2  A    between atoms: C_8  and  S_1 
REMARK    3  A    between atoms: C_3  and  N_2 
ROOT
ATOM      1  C   UNL d   1     -41.686-122.385 -52.837  0.00  0.00     0.094 A 
ATOM      2  C   UNL d   1     -41.899-122.117 -53.603  0.00  0.00     0.021 A 
ATOM      3  C   UNL d   1     -41.708-122.602 -54.193  0.00  0.00     0.040 A 
ATOM      4  C   UNL d   1     -41.337-123.316 -54.140  0.00  0.00     0.196 A 
ATOM      5  C   UNL d   1     -41.310-123.095 -52.715  0.00  0.00     0.023 A 
ATOM      6  C   UNL d   1     -41.123-123.585 -53.370  0.00  0.00     0.044 A 
ATOM      7  O   UNL d   1     -41.148-123.817 -54.832  0.00  0.00    -0.287 OA
ATOM      8  C   UNL d   1     -42.258-121.435 -53.691  0.00  0.00     0.002 A 
ATOM      9  C   UNL d   1     -41.891-122.397 -54.983  0.00  0.00     0.003 A 
ATOM     10  C   UNL d   1     -42.282-121.658 -55.107  0.00  0.00     0.000 A 
ATOM     11  C   UNL d   1     -42.467-121.171 -54.443  0.00  0.00     0.000 A 
ENDROOT
BRANCH   1  12
ATOM     12  N   UNL d   1     -41.853-121.942 -52.225  0.00  0.00    -0.158 NA
BRANCH  12  13
ATOM     13  S   UNL d   1     -41.803-122.263 -51.453  0.00  0.00     0.285 S 
ATOM     14  O   UNL d   1     -42.498-122.739 -51.621  0.00  0.00    -0.198 OA
ATOM     15  O   UNL d   1     -41.168-121.813 -51.331  0.00  0.00    -0.198 OA
BRANCH  13  16
ATOM     16  C   UNL d   1     -41.761-122.591 -50.678  0.00  0.00     0.105 A 
ATOM     17  C   UNL d   1     -42.378-122.423 -50.139  0.00  0.00     0.013 A 
ATOM     18  C   UNL d   1     -42.360-122.723 -49.398  0.00  0.00     0.001 A 
ATOM     19  C   UNL d   1     -41.759-123.181 -49.169  0.00  0.00     0.000 A 
ATOM     20  C   UNL d   1     -41.134-123.355 -49.709  0.00  0.00     0.001 A 
ATOM     21  C   UNL d   1     -41.165-123.039 -50.471  0.00  0.00     0.013 A 
ENDBRANCH  13  16
ENDBRANCH  12  13
ENDBRANCH   1  12
TORSDOF 3
ENDMDL
MODEL 3
REMARK VINA RESULT:      -4.6      1.294      4.007
REMARK  3 active torsions:
REMARK  status: ('A' for Active; 'I' for Inactive)
REMARK    1  A    between atoms: N_2  and  S_1 
REMARK    2  A    between atoms: C_8  and  S_1 
REMARK    3  A    between atoms: C_3  and  N_2 
ROOT
ATOM      1  C   UNL d   1     -41.724-122.614 -51.148  0.00  0.00     0.094 A 
ATOM      2  C   UNL d   1     -41.714-122.980 -50.393  0.00  0.00     0.021 A 
ATOM      3  C   UNL d   1     -42.322-122.803 -49.925  0.00  0.00     0.040 A 
ATOM      4  C   UNL d   1     -42.942-122.315 -50.093  0.00  0.00     0.196 A 
ATOM      5  C   UNL d   1     -42.319-122.112 -51.378  0.00  0.00     0.023 A 
ATOM      6  C   UNL d   1     -42.952-121.947 -50.852  0.00  0.00     0.044 A 
ATOM      7  O   UNL d   1     -43.595-122.152 -49.535  0.00  0.00    -0.287 OA
ATOM      8  C   UNL d   1     -41.132-123.456 -50.198  0.00  0.00     0.002 A 
ATOM      9  C   UNL d   1     -42.376-123.133 -49.159  0.00  0.00     0.003 A 
ATOM     10  C   UNL d   1     -41.754-123.655 -48.922  0.00  0.00     0.000 A 
ATOM     11  C   UNL d   1     -41.122-123.815 -49.457  0.00  0.00     0.000 A 
ENDROOT
BRANCH   1  12
ATOM     12  N   UNL d   1     -41.146-122.759 -51.642  0.00  0.00    -0.158 NA
BRANCH  12  13
ATOM     13  S   UNL d   1     -41.278-122.696 -52.466  0.00  0.00     0.285 S 
ATOM     14  O   UNL d   1     -41.438-123.539 -52.492  0.00  0.00    -0.198 OA
ATOM     15  O   UNL d   1     -41.126-121.924 -52.408  0.00  0.00    -0.198 OA
BRANCH  13  16
ATOM     16  C   UNL d   1     -41.413-122.642 -53.297  0.00  0.00     0.105 A 
ATOM     17  C   UNL d   1     -41.192-123.287 -53.780  0.00  0.00     0.013 A 
ATOM     18  C   UNL d   1     -41.310-123.258 -54.570  0.00  0.00     0.001 A 
ATOM     19  C   UNL d   1     -41.637-122.620 -54.901  0.00  0.00     0.000 A 
ATOM     20  C   UNL d   1     -41.863-121.966 -54.418  0.00  0.00     0.001 A 
ATOM     21  C   UNL d   1     -41.735-122.008 -53.603  0.00  0.00     0.013 A 
ENDBRANCH  13  16
ENDBRANCH  12  13
ENDBRANCH   1  12
TORSDOF 3
ENDMDL
MODEL 4
REMARK VINA RESULT:      -3.9      1.831      4.338
REMARK  3 active torsions:
REMARK  status: ('A' for Active; 'I' for Inactive)
REMARK    1  A    between atoms: N_2  and  S_1 
REMARK    2  A    between atoms: C_8  and  S_1 
REMARK    3  A    between atoms: C_3  and  N_2 
ROOT
ATOM      1  C   UNL d   1     -41.607-122.514 -52.322  0.00  0.00     0.094 A 
ATOM      2  C   UNL d   1     -41.608-122.794 -51.531  0.00  0.00     0.021 A 
ATOM      3  C   UNL d   1     -41.452-122.252 -50.983  0.00  0.00     0.040 A 
ATOM      4  C   UNL d   1     -41.295-121.469 -51.099  0.00  0.00     0.196 A 
ATOM      5  C   UNL d   1     -41.456-121.738 -52.507  0.00  0.00     0.023 A 
ATOM      6  C   UNL d   1     -41.294-121.188 -51.894  0.00  0.00     0.044 A 
ATOM      7  O   UNL d   1     -41.127-120.907 -50.450  0.00  0.00    -0.287 OA
ATOM      8  C   UNL d   1     -41.756-123.542 -51.384  0.00  0.00     0.002 A 
ATOM      9  C   UNL d   1     -41.438-122.462 -50.174  0.00  0.00     0.003 A 
ATOM     10  C   UNL d   1     -41.595-123.271 -49.985  0.00  0.00     0.000 A 
ATOM     11  C   UNL d   1     -41.757-123.817 -50.607  0.00  0.00     0.000 A 
ENDROOT
BRANCH   1  12
ATOM     12  N   UNL d   1     -41.755-123.012 -52.896  0.00  0.00    -0.158 NA
BRANCH  12  13
ATOM     13  S   UNL d   1     -41.870-122.726 -53.675  0.00  0.00     0.285 S 
ATOM     14  O   UNL d   1     -42.679-122.525 -53.468  0.00  0.00    -0.198 OA
ATOM     15  O   UNL d   1     -41.123-122.922 -53.833  0.00  0.00    -0.198 OA
BRANCH  13  16
ATOM     16  C   UNL d   1     -41.995-122.436 -54.457  0.00  0.00     0.105 A 
ATOM     17  C   UNL d   1     -41.422-122.606 -55.041  0.00  0.00     0.013 A 
ATOM     18  C   UNL d   1     -41.518-122.341 -55.790  0.00  0.00     0.001 A 
ATOM     19  C   UNL d   1     -42.156-121.918 -55.983  0.00  0.00     0.000 A 
ATOM     20  C   UNL d   1     -42.738-121.744 -55.397  0.00  0.00     0.001 A 
ATOM     21  C   UNL d   1     -42.626-122.023 -54.628  0.00  0.00     0.013 A 
ENDBRANCH  13  16
ENDBRANCH  12  13
ENDBRANCH   1  12
TORSDOF 3
ENDMDL
