MODEL 1
REMARK VINA RESULT:       7.3      0.000      0.000
REMARK  6 active torsions:
REMARK  status: ('A' for Active; 'I' for Inactive)
REMARK       I    between atoms: C_3  and  N_1 
REMARK    1  A    between atoms: C_5  and  N_1 
REMARK    2  A    between atoms: C_2  and  C_3 
REMARK    3  A    between atoms: N_9  and  C_5 
REMARK    4  A    between atoms: C_13  and  N_9 
REMARK    5  A    between atoms: C_11  and  C_13 
REMARK    6  A    between atoms: C_15  and  C_11 
ROOT
ATOM      1  C   UNL d   1      45.922 -16.461  44.384  0.00  0.00     0.224 C 
ATOM      2  S   UNL d   1      45.399 -16.761  44.954  0.00  0.00    -0.037 SA
ENDROOT
BRANCH   1   3
ATOM      3  N   UNL d   1      46.018 -15.646  44.305  0.00  0.00    -0.177 NA
ATOM      4  C   UNL d   1      45.367 -15.142  44.424  0.00  0.00     0.304 C 
ATOM      5  O   UNL d   1      44.637 -15.451  44.618  0.00  0.00    -0.263 OA
BRANCH   4   6
ATOM      6  C   UNL d   1      45.463 -14.327  44.344  0.00  0.00     0.158 A 
ATOM      7  O   UNL d   1      45.173 -13.860  43.730  0.00  0.00    -0.296 OA
ATOM      8  C   UNL d   1      45.391 -13.086  43.863  0.00  0.00     0.134 A 
ATOM      9 BR   UNL d   1      45.217 -12.440  43.388  0.00  0.00    -0.022 Br
ATOM     10  C   UNL d   1      45.822 -13.065  44.565  0.00  0.00     0.034 A 
ATOM     11  C   UNL d   1      45.867 -13.840  44.866  0.00  0.00     0.032 A 
ENDBRANCH   4   6
ENDBRANCH   1   3
BRANCH   1  12
ATOM     12  N   UNL d   1      46.340 -16.982  43.903  0.00  0.00    -0.212 NA
BRANCH  12  13
ATOM     13  C   UNL d   1      45.981 -17.667  43.644  0.00  0.00     0.143 C 
BRANCH  13  14
ATOM     14  C   UNL d   1      46.358 -18.390  43.755  0.00  0.00     0.215 C 
ATOM     15  O   UNL d   1      46.645 -18.611  44.492  0.00  0.00    -0.285 OA
BRANCH  14  16
ATOM     16  C   UNL d   1      46.455 -18.912  43.118  0.00  0.00     0.041 A 
ATOM     17  C   UNL d   1      46.468 -19.727  43.258  0.00  0.00     0.003 A 
ATOM     18  C   UNL d   1      46.563 -20.253  42.630  0.00  0.00     0.000 A 
ATOM     19  C   UNL d   1      46.647 -19.963  41.856  0.00  0.00     0.000 A 
ATOM     20  C   UNL d   1      46.634 -19.148  41.716  0.00  0.00     0.000 A 
ATOM     21  C   UNL d   1      46.538 -18.623  42.350  0.00  0.00     0.003 A 
ENDBRANCH  14  16
ENDBRANCH  13  14
ENDBRANCH  12  13
ENDBRANCH   1  12
TORSDOF 6
ENDMDL
MODEL 2
REMARK VINA RESULT:       7.9      1.727      5.107
REMARK  6 active torsions:
REMARK  status: ('A' for Active; 'I' for Inactive)
REMARK       I    between atoms: C_3  and  N_1 
REMARK    1  A    between atoms: C_5  and  N_1 
REMARK    2  A    between atoms: C_2  and  C_3 
REMARK    3  A    between atoms: N_9  and  C_5 
REMARK    4  A    between atoms: C_13  and  N_9 
REMARK    5  A    between atoms: C_11  and  C_13 
REMARK    6  A    between atoms: C_15  and  C_11 
ROOT
ATOM      1  C   UNL d   1      46.053 -16.740  44.194  0.00  0.00     0.224 C 
ATOM      2  S   UNL d   1      46.346 -16.890  44.955  0.00  0.00    -0.037 SA
ENDROOT
BRANCH   1   3
ATOM      3  N   UNL d   1      46.206 -17.272  43.583  0.00  0.00    -0.177 NA
ATOM      4  C   UNL d   1      46.213 -18.089  43.741  0.00  0.00     0.304 C 
ATOM      5  O   UNL d   1      46.070 -18.363  44.496  0.00  0.00    -0.263 OA
BRANCH   4   6
ATOM      6  C   UNL d   1      46.366 -18.620  43.130  0.00  0.00     0.158 A 
ATOM      7  O   UNL d   1      46.387 -18.444  42.324  0.00  0.00    -0.296 OA
ATOM      8  C   UNL d   1      46.557 -19.125  41.911  0.00  0.00     0.134 A 
ATOM      9 BR   UNL d   1      46.630 -19.198  41.097  0.00  0.00    -0.022 Br
ATOM     10  C   UNL d   1      46.642 -19.735  42.458  0.00  0.00     0.034 A 
ATOM     11  C   UNL d   1      46.523 -19.420  43.219  0.00  0.00     0.032 A 
ENDBRANCH   4   6
ENDBRANCH   1   3
BRANCH   1  12
ATOM     12  N   UNL d   1      45.611 -16.059  44.057  0.00  0.00    -0.212 NA
BRANCH  12  13
ATOM     13  C   UNL d   1      45.523 -15.509  44.654  0.00  0.00     0.143 C 
BRANCH  13  14
ATOM     14  C   UNL d   1      44.991 -14.888  44.558  0.00  0.00     0.215 C 
ATOM     15  O   UNL d   1      44.181 -15.010  44.613  0.00  0.00    -0.285 OA
BRANCH  14  16
ATOM     16  C   UNL d   1      45.269 -14.122  44.404  0.00  0.00     0.041 A 
ATOM     17  C   UNL d   1      45.066 -13.752  43.693  0.00  0.00     0.003 A 
ATOM     18  C   UNL d   1      45.338 -12.990  43.532  0.00  0.00     0.000 A 
ATOM     19  C   UNL d   1      45.817 -12.596  44.085  0.00  0.00     0.000 A 
ATOM     20  C   UNL d   1      46.020 -12.966  44.795  0.00  0.00     0.000 A 
ATOM     21  C   UNL d   1      45.744 -13.732  44.953  0.00  0.00     0.003 A 
ENDBRANCH  14  16
ENDBRANCH  13  14
ENDBRANCH  12  13
ENDBRANCH   1  12
TORSDOF 6
ENDMDL
