MODEL 1
REMARK VINA RESULT:      58.2      0.000      0.000
REMARK  3 active torsions:
REMARK  status: ('A' for Active; 'I' for Inactive)
REMARK    1  A    between atoms: C_8  and  C_1 
REMARK    2  A    between atoms: N_4  and  C_2 
REMARK       I    between atoms: C_6  and  N_4 
REMARK    3  A    between atoms: C_10  and  C_6 
ROOT
ATOM      1  C   UNL d   1     -51.834  24.436  33.658  0.00  0.00     0.177 A 
ATOM      2  C   UNL d   1     -51.558  25.199  33.464  0.00  0.00     0.114 A 
ATOM      3  O   UNL d   1     -51.175  23.961  33.767  0.00  0.00    -0.301 OA
ATOM      4  C   UNL d   1     -50.737  25.179  33.458  0.00  0.00     0.043 A 
ATOM      5  C   UNL d   1     -50.496  24.417  33.644  0.00  0.00     0.102 A 
ATOM      6  C   UNL d   1     -50.175  25.763  33.306  0.00  0.00     0.004 A 
ATOM      7  C   UNL d   1     -49.693  24.230  33.680  0.00  0.00     0.025 A 
ATOM      8  C   UNL d   1     -49.365  25.580  33.340  0.00  0.00     0.000 A 
ATOM      9  C   UNL d   1     -49.136  24.811  33.528  0.00  0.00     0.002 A 
ENDROOT
BRANCH   2  10
ATOM     10  N   UNL d   1     -52.030  25.860  33.307  0.00  0.00    -0.206 NA
ATOM     11  C   UNL d   1     -52.062  26.483  33.846  0.00  0.00     0.279 C 
ATOM     12  O   UNL d   1     -52.536  27.147  33.688  0.00  0.00    -0.265 OA
BRANCH  11  13
ATOM     13  C   UNL d   1     -51.622  26.446  34.543  0.00  0.00     0.058 A 
ATOM     14  C   UNL d   1     -50.902  26.846  34.597  0.00  0.00     0.005 A 
ATOM     15  C   UNL d   1     -50.463  26.809  35.294  0.00  0.00     0.000 A 
ATOM     16  C   UNL d   1     -50.743  26.372  35.938  0.00  0.00     0.000 A 
ATOM     17  C   UNL d   1     -51.463  25.973  35.884  0.00  0.00     0.000 A 
ATOM     18  C   UNL d   1     -51.902  26.009  35.187  0.00  0.00     0.005 A 
ENDBRANCH  11  13
ENDBRANCH   2  10
BRANCH   1  19
ATOM     19  C   UNL d   1     -52.628  24.184  33.731  0.00  0.00     0.321 C 
ATOM     20  O   UNL d   1     -52.814  23.548  34.235  0.00  0.00    -0.261 OA
ATOM     21  N   UNL d   1     -53.213  24.560  33.313  0.00  0.00    -0.101 N 
ENDBRANCH   1  19
TORSDOF 3
ENDMDL
MODEL 2
REMARK VINA RESULT:      59.6      1.224      2.301
REMARK  3 active torsions:
REMARK  status: ('A' for Active; 'I' for Inactive)
REMARK    1  A    between atoms: C_8  and  C_1 
REMARK    2  A    between atoms: N_4  and  C_2 
REMARK       I    between atoms: C_6  and  N_4 
REMARK    3  A    between atoms: C_10  and  C_6 
ROOT
ATOM      1  C   UNL d   1     -50.179  25.347  33.399  0.00  0.00     0.177 A 
ATOM      2  C   UNL d   1     -50.787  25.916  33.348  0.00  0.00     0.114 A 
ATOM      3  O   UNL d   1     -50.537  24.611  33.428  0.00  0.00    -0.301 OA
ATOM      4  C   UNL d   1     -51.507  25.519  33.346  0.00  0.00     0.043 A 
ATOM      5  C   UNL d   1     -51.357  24.714  33.395  0.00  0.00     0.102 A 
ATOM      6  C   UNL d   1     -52.284  25.792  33.306  0.00  0.00     0.004 A 
ATOM      7  C   UNL d   1     -51.981  24.174  33.405  0.00  0.00     0.025 A 
ATOM      8  C   UNL d   1     -52.915  25.254  33.315  0.00  0.00     0.000 A 
ATOM      9  C   UNL d   1     -52.753  24.447  33.365  0.00  0.00     0.002 A 
ENDROOT
BRANCH   2  10
ATOM     10  N   UNL d   1     -50.683  26.735  33.306  0.00  0.00    -0.206 NA
ATOM     11  C   UNL d   1     -50.765  27.197  33.985  0.00  0.00     0.279 C 
ATOM     12  O   UNL d   1     -50.660  28.020  33.943  0.00  0.00    -0.265 OA
BRANCH  11  13
ATOM     13  C   UNL d   1     -50.951  26.840  34.705  0.00  0.00     0.058 A 
ATOM     14  C   UNL d   1     -51.737  26.671  34.889  0.00  0.00     0.005 A 
ATOM     15  C   UNL d   1     -51.924  26.315  35.609  0.00  0.00     0.000 A 
ATOM     16  C   UNL d   1     -51.323  26.127  36.146  0.00  0.00     0.000 A 
ATOM     17  C   UNL d   1     -50.537  26.296  35.962  0.00  0.00     0.000 A 
ATOM     18  C   UNL d   1     -50.351  26.653  35.242  0.00  0.00     0.005 A 
ENDBRANCH  11  13
ENDBRANCH   2  10
BRANCH   1  19
ATOM     19  C   UNL d   1     -49.354  25.483  33.418  0.00  0.00     0.321 C 
ATOM     20  O   UNL d   1     -48.828  24.840  33.365  0.00  0.00    -0.261 OA
ATOM     21  N   UNL d   1     -49.070  26.240  33.488  0.00  0.00    -0.101 N 
ENDBRANCH   1  19
TORSDOF 3
ENDMDL
MODEL 3
REMARK VINA RESULT:      60.0      1.277      2.105
REMARK  3 active torsions:
REMARK  status: ('A' for Active; 'I' for Inactive)
REMARK    1  A    between atoms: C_8  and  C_1 
REMARK    2  A    between atoms: N_4  and  C_2 
REMARK       I    between atoms: C_6  and  N_4 
REMARK    3  A    between atoms: C_10  and  C_6 
ROOT
ATOM      1  C   UNL d   1     -52.033  26.221  33.311  0.00  0.00     0.177 A 
ATOM      2  C   UNL d   1     -51.267  25.889  33.310  0.00  0.00     0.114 A 
ATOM      3  O   UNL d   1     -52.566  25.599  33.314  0.00  0.00    -0.301 OA
ATOM      4  C   UNL d   1     -51.345  25.071  33.313  0.00  0.00     0.043 A 
ATOM      5  C   UNL d   1     -52.144  24.887  33.315  0.00  0.00     0.102 A 
ATOM      6  C   UNL d   1     -50.783  24.467  33.313  0.00  0.00     0.004 A 
ATOM      7  C   UNL d   1     -52.391  24.100  33.318  0.00  0.00     0.025 A 
ATOM      8  C   UNL d   1     -51.026  23.673  33.316  0.00  0.00     0.000 A 
ATOM      9  C   UNL d   1     -51.832  23.501  33.318  0.00  0.00     0.002 A 
ENDROOT
BRANCH   2  10
ATOM     10  N   UNL d   1     -50.556  26.311  33.307  0.00  0.00    -0.206 NA
ATOM     11  C   UNL d   1     -50.247  26.604  34.014  0.00  0.00     0.279 C 
ATOM     12  O   UNL d   1     -49.532  27.028  34.011  0.00  0.00    -0.265 OA
BRANCH  11  13
ATOM     13  C   UNL d   1     -50.649  26.477  34.723  0.00  0.00     0.058 A 
ATOM     14  C   UNL d   1     -50.313  25.999  35.305  0.00  0.00     0.005 A 
ATOM     15  C   UNL d   1     -50.715  25.871  36.014  0.00  0.00     0.000 A 
ATOM     16  C   UNL d   1     -51.453  26.222  36.141  0.00  0.00     0.000 A 
ATOM     17  C   UNL d   1     -51.789  26.699  35.558  0.00  0.00     0.000 A 
ATOM     18  C   UNL d   1     -51.387  26.827  34.849  0.00  0.00     0.005 A 
ENDBRANCH  11  13
ENDBRANCH   2  10
BRANCH   1  19
ATOM     19  C   UNL d   1     -52.237  27.032  33.309  0.00  0.00     0.321 C 
ATOM     20  O   UNL d   1     -53.039  27.255  33.311  0.00  0.00    -0.261 OA
ATOM     21  N   UNL d   1     -51.654  27.596  33.306  0.00  0.00    -0.101 N 
ENDBRANCH   1  19
TORSDOF 3
ENDMDL
