MODEL 1
REMARK VINA RESULT:      -2.2      0.000      0.000
REMARK  4 active torsions:
REMARK  status: ('A' for Active; 'I' for Inactive)
REMARK    1  A    between atoms: N_6  and  C_1 
REMARK       I    between atoms: C_9  and  N_6 
REMARK    2  A    between atoms: C_12  and  C_9 
REMARK    3  A    between atoms: O_11  and  C_12 
REMARK    4  A    between atoms: C_15  and  O_11 
ROOT
ATOM      1  C   UNL d   1      58.858   0.676  30.251  0.00  0.00     0.124 A 
ATOM      2  C   UNL d   1      58.676   0.670  31.062  0.00  0.00     0.093 A 
ATOM      3  S   UNL d   1      59.683   0.681  30.178  0.00  0.00    -0.067 SA
ATOM      4  C   UNL d   1      59.392   0.671  31.478  0.00  0.00     0.018 A 
ATOM      5  C   UNL d   1      59.998   0.678  30.935  0.00  0.00     0.032 A 
ATOM      6  C   UNL d   1      57.910   0.663  31.386  0.00  0.00     0.103 C 
ATOM      7  N   UNL d   1      57.164   0.657  31.708  0.00  0.00    -0.191 NA
ATOM      8  C   UNL d   1      59.466   0.666  32.303  0.00  0.00     0.001 C 
ATOM      9  C   UNL d   1      60.809   0.681  31.117  0.00  0.00     0.007 C 
ENDROOT
BRANCH   1  10
ATOM     10  N   UNL d   1      58.318   0.677  29.637  0.00  0.00    -0.199 NA
ATOM     11  C   UNL d   1      58.342   0.078  29.076  0.00  0.00     0.305 C 
ATOM     12  O   UNL d   1      57.796   0.079  28.455  0.00  0.00    -0.263 OA
BRANCH  11  13
ATOM     13  C   UNL d   1      58.891  -0.515  29.121  0.00  0.00     0.185 C 
BRANCH  13  14
ATOM     14  O   UNL d   1      58.964  -1.070  28.532  0.00  0.00    -0.300 OA
BRANCH  14  15
ATOM     15  C   UNL d   1      59.173  -1.852  28.704  0.00  0.00     0.100 A 
ATOM     16  C   UNL d   1      59.969  -2.070  28.655  0.00  0.00     0.025 A 
ATOM     17  C   UNL d   1      60.173  -2.841  28.826  0.00  0.00     0.002 A 
ATOM     18  C   UNL d   1      59.595  -3.389  29.042  0.00  0.00     0.000 A 
ATOM     19  C   UNL d   1      58.809  -3.164  29.088  0.00  0.00     0.002 A 
ATOM     20  C   UNL d   1      58.603  -2.389  28.917  0.00  0.00     0.025 A 
ENDBRANCH  14  15
ENDBRANCH  13  14
ENDBRANCH  11  13
ENDBRANCH   1  10
TORSDOF 4
ENDMDL
MODEL 2
REMARK VINA RESULT:      -1.1      8.927     10.065
REMARK  4 active torsions:
REMARK  status: ('A' for Active; 'I' for Inactive)
REMARK    1  A    between atoms: N_6  and  C_1 
REMARK       I    between atoms: C_9  and  N_6 
REMARK    2  A    between atoms: C_12  and  C_9 
REMARK    3  A    between atoms: O_11  and  C_12 
REMARK    4  A    between atoms: C_15  and  O_11 
ROOT
ATOM      1  C   UNL d   1      59.055  -9.726  33.307  0.00  0.00     0.124 A 
ATOM      2  C   UNL d   1      58.875  -9.524  32.521  0.00  0.00     0.093 A 
ATOM      3  S   UNL d   1      59.876  -9.817  33.363  0.00  0.00    -0.067 SA
ATOM      4  C   UNL d   1      59.589  -9.493  32.102  0.00  0.00     0.018 A 
ATOM      5  C   UNL d   1      60.191  -9.672  32.619  0.00  0.00     0.032 A 
ATOM      6  C   UNL d   1      58.113  -9.381  32.221  0.00  0.00     0.103 C 
ATOM      7  N   UNL d   1      57.371  -9.240  31.922  0.00  0.00    -0.191 NA
ATOM      8  C   UNL d   1      59.663  -9.311  31.298  0.00  0.00     0.001 C 
ATOM      9  C   UNL d   1      60.999  -9.703  32.426  0.00  0.00     0.007 C 
ENDROOT
BRANCH   1  10
ATOM     10  N   UNL d   1      58.516  -9.818  33.916  0.00  0.00    -0.199 NA
ATOM     11  C   UNL d   1      58.704  -9.546  34.667  0.00  0.00     0.305 C 
ATOM     12  O   UNL d   1      58.159  -9.639  35.282  0.00  0.00    -0.263 OA
BRANCH  11  13
ATOM     13  C   UNL d   1      59.415  -9.187  34.817  0.00  0.00     0.185 C 
BRANCH  13  14
ATOM     14  O   UNL d   1      59.605  -8.918  35.559  0.00  0.00    -0.300 OA
BRANCH  14  15
ATOM     15  C   UNL d   1      59.972  -8.185  35.667  0.00  0.00     0.100 A 
ATOM     16  C   UNL d   1      59.514  -7.498  35.612  0.00  0.00     0.025 A 
ATOM     17  C   UNL d   1      59.878  -6.777  35.719  0.00  0.00     0.002 A 
ATOM     18  C   UNL d   1      60.687  -6.736  35.878  0.00  0.00     0.000 A 
ATOM     19  C   UNL d   1      61.133  -7.420  35.932  0.00  0.00     0.002 A 
ATOM     20  C   UNL d   1      60.768  -8.147  35.824  0.00  0.00     0.025 A 
ENDBRANCH  14  15
ENDBRANCH  13  14
ENDBRANCH  11  13
ENDBRANCH   1  10
TORSDOF 4
ENDMDL
