MODEL 1
REMARK VINA RESULT:      40.0      0.000      0.000
REMARK  3 active torsions:
REMARK  status: ('A' for Active; 'I' for Inactive)
REMARK    1  A    between atoms: C_7  and  C_1 
REMARK    2  A    between atoms: C_6  and  C_2 
REMARK    3  A    between atoms: C_3  and  C_6 
REMARK       I    between atoms: N_4  and  C_3 
ROOT
ATOM      1  C   UNL d   1      13.228  13.451  -4.492  0.00  0.00     0.038 A 
ATOM      2  C   UNL d   1      13.675  12.525  -3.604  0.00  0.00     0.043 A 
ATOM      3  C   UNL d   1      13.654  13.379  -3.791  0.00  0.00     0.016 A 
ATOM      4  C   UNL d   1      12.950  14.011  -5.041  0.00  0.00    -0.023 A 
ATOM      5  C   UNL d   1      12.965  12.694  -4.780  0.00  0.00     0.013 A 
ATOM      6  C   UNL d   1      13.018  13.108  -4.769  0.00  0.00    -0.012 A 
ATOM      7  C   UNL d   1      13.003  11.843  -4.567  0.00  0.00     0.023 A 
ATOM      8  C   UNL d   1      13.426  11.784  -3.874  0.00  0.00     0.013 A 
ATOM      9  C   UNL d   1      13.407  13.029  -4.127  0.00  0.00    -0.023 A 
ATOM     10  C   UNL d   1      12.769  12.402  -5.045  0.00  0.00    -0.027 A 
ENDROOT
BRANCH   2  11
ATOM     11  C   UNL d   1      14.035  12.154  -2.958  0.00  0.00     0.038 C 
BRANCH  11  12
ATOM     12  C   UNL d   1      13.592  11.978  -2.284  0.00  0.00     0.261 C 
ATOM     13  N   UNL d   1      13.959  11.967  -1.543  0.00  0.00    -0.268 N 
ATOM     14  C   UNL d   1      13.517  11.791  -0.870  0.00  0.00     0.110 A 
ATOM     15  C   UNL d   1      14.770  12.134  -1.482  0.00  0.00     0.110 A 
ATOM     16  C   UNL d   1      13.878  11.780  -0.130  0.00  0.00     0.142 A 
ATOM     17  O   UNL d   1      14.685  11.944  -0.058  0.00  0.00    -0.300 OA
ATOM     18  C   UNL d   1      15.128  12.120  -0.732  0.00  0.00     0.142 A 
ATOM     19  O   UNL d   1      12.787  11.813  -2.353  0.00  0.00    -0.267 OA
ENDBRANCH  11  12
ENDBRANCH   2  11
BRANCH   1  20
ATOM     20  C   UNL d   1      13.533  14.124  -4.119  0.00  0.00    -0.019 A 
ATOM     21  C   UNL d   1      14.247  14.436  -4.381  0.00  0.00    -0.004 A 
ATOM     22  C   UNL d   1      14.557  15.104  -4.016  0.00  0.00    -0.000 A 
ATOM     23  C   UNL d   1      14.157  15.456  -3.396  0.00  0.00    -0.000 A 
ATOM     24  C   UNL d   1      13.434  15.138  -3.133  0.00  0.00    -0.000 A 
ATOM     25  C   UNL d   1      14.460  16.129  -3.022  0.00  0.00    -0.000 C 
ATOM     26  C   UNL d   1      13.130  14.468  -3.503  0.00  0.00    -0.004 A 
ENDBRANCH   1  20
TORSDOF 3
ENDMDL
