MODEL 1
REMARK VINA RESULT:     -10.1      0.000      0.000
REMARK  6 active torsions:
REMARK  status: ('A' for Active; 'I' for Inactive)
REMARK    1  A    between atoms: S_2  and  N_1 
REMARK    2  A    between atoms: C_11  and  S_2 
REMARK    3  A    between atoms: C_6  and  C_4 
REMARK    4  A    between atoms: C_12  and  C_5 
REMARK    5  A    between atoms: O_14  and  C_8 
REMARK    6  A    between atoms: O_16  and  C_13 
ROOT
ATOM      1  N   UNL d   1      52.480  32.450  53.264  0.00  0.00    -0.152 N 
ATOM      2  N   UNL d   1      51.716  32.631  52.967  0.00  0.00    -0.155 NA
ATOM      3  C   UNL d   1      52.917  33.147  53.333  0.00  0.00     0.098 A 
ATOM      4  C   UNL d   1      51.683  33.446  52.853  0.00  0.00     0.104 A 
ATOM      5  C   UNL d   1      52.427  33.755  53.081  0.00  0.00     0.041 A 
ENDROOT
BRANCH   3   6
ATOM      6  C   UNL d   1      53.694  33.217  53.603  0.00  0.00     0.043 A 
ATOM      7  C   UNL d   1      53.847  33.561  54.337  0.00  0.00     0.118 A 
ATOM      8  C   UNL d   1      54.623  33.631  54.607  0.00  0.00     0.116 A 
ATOM      9  C   UNL d   1      55.222  33.353  54.133  0.00  0.00     0.026 A 
ATOM     10  C   UNL d   1      55.097  33.008  53.402  0.00  0.00     0.002 A 
ATOM     11  C   UNL d   1      54.321  32.939  53.132  0.00  0.00     0.004 A 
BRANCH   7  12
ATOM     12  O   UNL d   1      53.222  33.836  54.801  0.00  0.00    -0.326 OA
ATOM     13  C   UNL d   1      53.298  34.546  55.214  0.00  0.00     0.181 C 
ENDBRANCH   7  12
BRANCH   8  14
ATOM     14  O   UNL d   1      54.750  33.973  55.332  0.00  0.00    -0.326 OA
ATOM     15  C   UNL d   1      55.474  33.987  55.697  0.00  0.00     0.181 C 
ENDBRANCH   8  14
ENDBRANCH   3   6
BRANCH   1  16
ATOM     16  S   UNL d   1      52.742  31.686  53.454  0.00  0.00     0.286 S 
ATOM     17  O   UNL d   1      53.151  31.378  54.102  0.00  0.00    -0.198 OA
ATOM     18  O   UNL d   1      52.552  31.127  52.873  0.00  0.00    -0.198 OA
BRANCH  16  19
ATOM     19  C   UNL d   1      52.927  30.882  53.482  0.00  0.00     0.105 A 
ATOM     20  C   UNL d   1      52.987  30.475  52.795  0.00  0.00     0.013 A 
ATOM     21  C   UNL d   1      53.173  29.667  52.821  0.00  0.00     0.001 A 
ATOM     22  C   UNL d   1      53.291  29.296  53.548  0.00  0.00     0.000 A 
ATOM     23  C   UNL d   1      53.224  29.732  54.249  0.00  0.00     0.001 A 
ATOM     24  C   UNL d   1      53.045  30.510  54.209  0.00  0.00     0.013 A 
ENDBRANCH  16  19
ENDBRANCH   1  16
BRANCH   4  25
ATOM     25  C   UNL d   1      51.044  33.851  52.573  0.00  0.00     0.019 A 
ATOM     26  C   UNL d   1      50.446  34.082  53.098  0.00  0.00     0.002 A 
ATOM     27  C   UNL d   1      49.780  34.499  52.833  0.00  0.00     0.000 A 
ATOM     28  C   UNL d   1      49.718  34.683  52.042  0.00  0.00     0.000 A 
ATOM     29  C   UNL d   1      50.307  34.461  51.499  0.00  0.00     0.000 A 
ATOM     30  C   UNL d   1      50.980  34.035  51.787  0.00  0.00     0.002 A 
ENDBRANCH   4  25
TORSDOF 6
ENDMDL
MODEL 2
REMARK VINA RESULT:      -8.9      0.925      3.022
REMARK  6 active torsions:
REMARK  status: ('A' for Active; 'I' for Inactive)
REMARK    1  A    between atoms: S_2  and  N_1 
REMARK    2  A    between atoms: C_11  and  S_2 
REMARK    3  A    between atoms: C_6  and  C_4 
REMARK    4  A    between atoms: C_12  and  C_5 
REMARK    5  A    between atoms: O_14  and  C_8 
REMARK    6  A    between atoms: O_16  and  C_13 
ROOT
ATOM      1  N   UNL d   1      52.819  33.045  53.653  0.00  0.00    -0.152 N 
ATOM      2  N   UNL d   1      52.265  33.652  53.485  0.00  0.00    -0.155 NA
ATOM      3  C   UNL d   1      52.648  32.384  53.188  0.00  0.00     0.098 A 
ATOM      4  C   UNL d   1      51.749  33.363  52.912  0.00  0.00     0.104 A 
ATOM      5  C   UNL d   1      51.992  32.582  52.736  0.00  0.00     0.041 A 
ENDROOT
BRANCH   3   6
ATOM      6  C   UNL d   1      53.056  31.667  53.181  0.00  0.00     0.043 A 
ATOM      7  C   UNL d   1      52.694  30.983  53.468  0.00  0.00     0.118 A 
ATOM      8  C   UNL d   1      53.102  30.266  53.462  0.00  0.00     0.116 A 
ATOM      9  C   UNL d   1      53.860  30.257  53.168  0.00  0.00     0.026 A 
ATOM     10  C   UNL d   1      54.241  30.920  52.878  0.00  0.00     0.002 A 
ATOM     11  C   UNL d   1      53.832  31.637  52.885  0.00  0.00     0.004 A 
BRANCH   7  12
ATOM     12  O   UNL d   1      51.924  31.016  53.761  0.00  0.00    -0.326 OA
ATOM     13  C   UNL d   1      51.404  30.390  53.626  0.00  0.00     0.181 C 
ENDBRANCH   7  12
BRANCH   8  14
ATOM     14  O   UNL d   1      52.727  29.606  53.748  0.00  0.00    -0.326 OA
ATOM     15  C   UNL d   1      53.118  28.989  54.102  0.00  0.00     0.181 C 
ENDBRANCH   8  14
ENDBRANCH   3   6
BRANCH   1  16
ATOM     16  S   UNL d   1      53.438  33.110  54.203  0.00  0.00     0.286 S 
ATOM     17  O   UNL d   1      53.687  32.632  54.827  0.00  0.00    -0.198 OA
ATOM     18  O   UNL d   1      53.891  33.796  54.096  0.00  0.00    -0.198 OA
BRANCH  16  19
ATOM     19  C   UNL d   1      54.089  33.332  54.659  0.00  0.00     0.105 A 
ATOM     20  C   UNL d   1      54.087  33.166  55.442  0.00  0.00     0.013 A 
ATOM     21  C   UNL d   1      54.740  33.388  55.901  0.00  0.00     0.001 A 
ATOM     22  C   UNL d   1      55.379  33.774  55.549  0.00  0.00     0.000 A 
ATOM     23  C   UNL d   1      55.364  33.938  54.737  0.00  0.00     0.001 A 
ATOM     24  C   UNL d   1      54.727  33.718  54.307  0.00  0.00     0.013 A 
ENDBRANCH  16  19
ENDBRANCH   1  16
BRANCH   4  25
ATOM     25  C   UNL d   1      51.131  33.772  52.594  0.00  0.00     0.019 A 
ATOM     26  C   UNL d   1      50.503  34.007  53.081  0.00  0.00     0.002 A 
ATOM     27  C   UNL d   1      49.857  34.427  52.776  0.00  0.00     0.000 A 
ATOM     28  C   UNL d   1      49.844  34.612  51.983  0.00  0.00     0.000 A 
ATOM     29  C   UNL d   1      50.464  34.386  51.476  0.00  0.00     0.000 A 
ATOM     30  C   UNL d   1      51.116  33.956  51.805  0.00  0.00     0.002 A 
ENDBRANCH   4  25
TORSDOF 6
ENDMDL
MODEL 3
REMARK VINA RESULT:      -7.9      1.327      3.716
REMARK  6 active torsions:
REMARK  status: ('A' for Active; 'I' for Inactive)
REMARK    1  A    between atoms: S_2  and  N_1 
REMARK    2  A    between atoms: C_11  and  S_2 
REMARK    3  A    between atoms: C_6  and  C_4 
REMARK    4  A    between atoms: C_12  and  C_5 
REMARK    5  A    between atoms: O_14  and  C_8 
REMARK    6  A    between atoms: O_16  and  C_13 
ROOT
ATOM      1  N   UNL d   1      52.029  33.072  52.912  0.00  0.00    -0.152 N 
ATOM      2  N   UNL d   1      52.015  32.233  52.881  0.00  0.00    -0.155 NA
ATOM      3  C   UNL d   1      52.738  33.320  53.256  0.00  0.00     0.098 A 
ATOM      4  C   UNL d   1      52.721  31.963  53.209  0.00  0.00     0.104 A 
ATOM      5  C   UNL d   1      53.159  32.639  53.437  0.00  0.00     0.041 A 
ENDROOT
BRANCH   3   6
ATOM      6  C   UNL d   1      52.973  34.099  53.390  0.00  0.00     0.043 A 
ATOM      7  C   UNL d   1      53.009  34.393  54.161  0.00  0.00     0.118 A 
ATOM      8  C   UNL d   1      53.244  35.172  54.295  0.00  0.00     0.116 A 
ATOM      9  C   UNL d   1      53.436  35.632  53.654  0.00  0.00     0.026 A 
ATOM     10  C   UNL d   1      53.409  35.366  52.881  0.00  0.00     0.002 A 
ATOM     11  C   UNL d   1      53.174  34.587  52.747  0.00  0.00     0.004 A 
BRANCH   7  12
ATOM     12  O   UNL d   1      52.809  33.906  54.797  0.00  0.00    -0.326 OA
ATOM     13  C   UNL d   1      53.276  33.906  55.477  0.00  0.00     0.181 C 
ENDBRANCH   7  12
BRANCH   8  14
ATOM     14  O   UNL d   1      53.273  35.439  55.061  0.00  0.00    -0.326 OA
ATOM     15  C   UNL d   1      53.192  36.220  55.263  0.00  0.00     0.181 C 
ENDBRANCH   8  14
ENDBRANCH   3   6
BRANCH   1  16
ATOM     16  S   UNL d   1      51.419  33.563  52.636  0.00  0.00     0.286 S 
ATOM     17  O   UNL d   1      51.395  34.164  52.072  0.00  0.00    -0.198 OA
ATOM     18  O   UNL d   1      50.693  33.412  53.007  0.00  0.00    -0.198 OA
BRANCH  16  19
ATOM     19  C   UNL d   1      50.710  33.957  52.483  0.00  0.00     0.105 A 
ATOM     20  C   UNL d   1      50.505  34.104  51.724  0.00  0.00     0.013 A 
ATOM     21  C   UNL d   1      49.793  34.500  51.569  0.00  0.00     0.001 A 
ATOM     22  C   UNL d   1      49.310  34.736  52.194  0.00  0.00     0.000 A 
ATOM     23  C   UNL d   1      49.538  34.577  52.974  0.00  0.00     0.001 A 
ATOM     24  C   UNL d   1      50.226  34.194  53.108  0.00  0.00     0.013 A 
ENDBRANCH  16  19
ENDBRANCH   1  16
BRANCH   4  25
ATOM     25  C   UNL d   1      52.932  31.189  53.287  0.00  0.00     0.019 A 
ATOM     26  C   UNL d   1      52.374  30.596  53.128  0.00  0.00     0.002 A 
ATOM     27  C   UNL d   1      52.568  29.794  53.201  0.00  0.00     0.000 A 
ATOM     28  C   UNL d   1      53.321  29.589  53.434  0.00  0.00     0.000 A 
ATOM     29  C   UNL d   1      53.895  30.167  53.599  0.00  0.00     0.000 A 
ATOM     30  C   UNL d   1      53.680  30.982  53.519  0.00  0.00     0.002 A 
ENDBRANCH   4  25
TORSDOF 6
ENDMDL
MODEL 4
REMARK VINA RESULT:      -7.7      1.139      3.988
REMARK  6 active torsions:
REMARK  status: ('A' for Active; 'I' for Inactive)
REMARK    1  A    between atoms: S_2  and  N_1 
REMARK    2  A    between atoms: C_11  and  S_2 
REMARK    3  A    between atoms: C_6  and  C_4 
REMARK    4  A    between atoms: C_12  and  C_5 
REMARK    5  A    between atoms: O_14  and  C_8 
REMARK    6  A    between atoms: O_16  and  C_13 
ROOT
ATOM      1  N   UNL d   1      53.557  32.197  53.756  0.00  0.00    -0.152 N 
ATOM      2  N   UNL d   1      53.668  31.375  53.880  0.00  0.00    -0.155 NA
ATOM      3  C   UNL d   1      52.915  32.311  53.248  0.00  0.00     0.098 A 
ATOM      4  C   UNL d   1      53.090  30.979  53.446  0.00  0.00     0.104 A 
ATOM      5  C   UNL d   1      52.631  31.564  53.061  0.00  0.00     0.041 A 
ENDROOT
BRANCH   3   6
ATOM      6  C   UNL d   1      52.619  33.034  52.983  0.00  0.00     0.043 A 
ATOM      7  C   UNL d   1      51.857  33.271  53.195  0.00  0.00     0.118 A 
ATOM      8  C   UNL d   1      51.561  33.994  52.930  0.00  0.00     0.116 A 
ATOM      9  C   UNL d   1      52.036  34.457  52.462  0.00  0.00     0.026 A 
ATOM     10  C   UNL d   1      52.794  34.246  52.238  0.00  0.00     0.002 A 
ATOM     11  C   UNL d   1      53.090  33.522  52.503  0.00  0.00     0.004 A 
BRANCH   7  12
ATOM     12  O   UNL d   1      51.392  32.784  53.672  0.00  0.00    -0.326 OA
ATOM     13  C   UNL d   1      50.571  32.794  53.593  0.00  0.00     0.181 C 
ENDBRANCH   7  12
BRANCH   8  14
ATOM     14  O   UNL d   1      50.809  34.207  53.151  0.00  0.00    -0.326 OA
ATOM     15  C   UNL d   1      50.416  34.843  52.838  0.00  0.00     0.181 C 
ENDBRANCH   8  14
ENDBRANCH   3   6
BRANCH   1  16
ATOM     16  S   UNL d   1      54.025  32.793  54.095  0.00  0.00     0.286 S 
ATOM     17  O   UNL d   1      54.393  33.463  53.784  0.00  0.00    -0.198 OA
ATOM     18  O   UNL d   1      54.142  32.685  54.908  0.00  0.00    -0.198 OA
BRANCH  16  19
ATOM     19  C   UNL d   1      54.464  33.289  54.588  0.00  0.00     0.105 A 
ATOM     20  C   UNL d   1      55.162  33.577  54.324  0.00  0.00     0.013 A 
ATOM     21  C   UNL d   1      55.604  34.075  54.817  0.00  0.00     0.001 A 
ATOM     22  C   UNL d   1      55.321  34.267  55.568  0.00  0.00     0.000 A 
ATOM     23  C   UNL d   1      54.595  33.960  55.825  0.00  0.00     0.001 A 
ATOM     24  C   UNL d   1      54.180  33.480  55.338  0.00  0.00     0.013 A 
ENDBRANCH  16  19
ENDBRANCH   1  16
BRANCH   4  25
ATOM     25  C   UNL d   1      53.000  30.179  53.413  0.00  0.00     0.019 A 
ATOM     26  C   UNL d   1      53.228  29.715  54.060  0.00  0.00     0.002 A 
ATOM     27  C   UNL d   1      53.145  28.891  54.048  0.00  0.00     0.000 A 
ATOM     28  C   UNL d   1      52.833  28.534  53.386  0.00  0.00     0.000 A 
ATOM     29  C   UNL d   1      52.598  28.981  52.725  0.00  0.00     0.000 A 
ATOM     30  C   UNL d   1      52.690  29.822  52.755  0.00  0.00     0.002 A 
ENDBRANCH   4  25
TORSDOF 6
ENDMDL
