MODEL 1
REMARK VINA RESULT:      15.5      0.000      0.000
REMARK  1 active torsions:
REMARK  status: ('A' for Active; 'I' for Inactive)
REMARK    1  A    between atoms: C_6  and  C_1 
ROOT
ATOM      1  C   UNL d   1     -54.732-102.076 -38.475  0.00  0.00     0.111 A 
ATOM      2  N   UNL d   1     -54.721-101.375 -38.048  0.00  0.00    -0.239 NA
ATOM      3  S   UNL d   1     -54.745-102.701 -37.947  0.00  0.00    -0.066 SA
ATOM      4  C   UNL d   1     -54.726-101.566 -37.240  0.00  0.00     0.088 A 
ATOM      5  C   UNL d   1     -54.741-102.386 -37.173  0.00  0.00     0.049 A 
ATOM      6  C   UNL d   1     -54.720-101.101 -36.561  0.00  0.00     0.020 A 
ATOM      7  C   UNL d   1     -54.749-102.740 -36.430  0.00  0.00     0.008 A 
ATOM      8  C   UNL d   1     -54.742-102.275 -35.750  0.00  0.00     0.001 A 
ATOM      9  C   UNL d   1     -54.728-101.455 -35.817  0.00  0.00     0.002 A 
ENDROOT
BRANCH   1  10
ATOM     10  C   UNL d   1     -54.731-102.105 -39.306  0.00  0.00     0.024 A 
ATOM     11  C   UNL d   1     -54.719-101.406 -39.746  0.00  0.00     0.004 A 
ATOM     12  C   UNL d   1     -54.718-101.442 -40.573  0.00  0.00     0.021 A 
ATOM     13  C   UNL d   1     -54.728-102.176 -40.962  0.00  0.00     0.103 A 
ATOM     14  C   UNL d   1     -54.740-102.871 -40.514  0.00  0.00     0.021 A 
ATOM     15  N   UNL d   1     -54.727-102.208 -41.791  0.00  0.00    -0.148 N 
ATOM     16  C   UNL d   1     -54.741-102.836 -39.687  0.00  0.00     0.004 A 
ENDBRANCH   1  10
TORSDOF 1
ENDMDL
