MODEL 1
REMARK VINA RESULT:      -1.4      0.000      0.000
REMARK  2 active torsions:
REMARK  status: ('A' for Active; 'I' for Inactive)
REMARK    1  A    between atoms: C_12  and  C_9 
REMARK    2  A    between atoms: N_15  and  C_12 
ROOT
ATOM      1  C   UNL d   1     -41.567-122.726 -51.600  0.00  0.00     0.176 A 
ATOM      2  C   UNL d   1     -41.412-121.928 -51.457  0.00  0.00     0.174 A 
ATOM      3  N   UNL d   1     -41.599-123.009 -52.391  0.00  0.00    -0.240 N 
ATOM      4  N   UNL d   1     -41.321-121.692 -52.874  0.00  0.00    -0.223 N 
ATOM      5  C   UNL d   1     -41.479-122.502 -53.019  0.00  0.00     0.343 A 
ATOM      6  C   UNL d   1     -41.287-121.401 -52.103  0.00  0.00     0.289 A 
ATOM      7  N   UNL d   1     -41.691-123.252 -50.984  0.00  0.00    -0.206 NA
ATOM      8  N   UNL d   1     -41.503-122.167 -50.049  0.00  0.00    -0.217 NA
ATOM      9  C   UNL d   1     -41.659-122.975 -50.207  0.00  0.00     0.182 A 
ATOM     10  O   UNL d   1     -41.510-122.782 -53.801  0.00  0.00    -0.245 OA
ATOM     11  O   UNL d   1     -41.131-120.600 -51.959  0.00  0.00    -0.265 OA
ATOM     12  C   UNL d   1     -41.756-123.815 -52.535  0.00  0.00     0.105 C 
ATOM     13  C   UNL d   1     -41.192-121.148 -53.548  0.00  0.00     0.107 C 
ENDROOT
BRANCH   9  14
ATOM     14  C   UNL d   1     -41.804-123.630 -49.745  0.00  0.00     0.120 C 
BRANCH  14  15
ATOM     15  N   UNL d   1     -41.993-123.743 -48.976  0.00  0.00    -0.297 N 
ATOM     16  C   UNL d   1     -41.414-123.804 -48.418  0.00  0.00     0.100 C 
ATOM     17  C   UNL d   1     -42.768-123.797 -48.760  0.00  0.00     0.100 C 
ENDBRANCH  14  15
ENDBRANCH   9  14
TORSDOF 2
ENDMDL
MODEL 2
REMARK VINA RESULT:      -1.4      1.771      3.827
REMARK  2 active torsions:
REMARK  status: ('A' for Active; 'I' for Inactive)
REMARK    1  A    between atoms: C_12  and  C_9 
REMARK    2  A    between atoms: N_15  and  C_12 
ROOT
ATOM      1  C   UNL d   1     -42.362-122.637 -50.580  0.00  0.00     0.176 A 
ATOM      2  C   UNL d   1     -41.743-123.100 -50.292  0.00  0.00     0.174 A 
ATOM      3  N   UNL d   1     -42.992-122.419 -50.069  0.00  0.00    -0.240 N 
ATOM      4  N   UNL d   1     -42.369-123.130 -48.996  0.00  0.00    -0.223 N 
ATOM      5  C   UNL d   1     -42.998-122.660 -49.290  0.00  0.00     0.343 A 
ATOM      6  C   UNL d   1     -41.745-123.351 -49.487  0.00  0.00     0.289 A 
ATOM      7  N   UNL d   1     -42.376-122.385 -51.359  0.00  0.00    -0.206 NA
ATOM      8  N   UNL d   1     -41.123-123.068 -51.581  0.00  0.00    -0.217 NA
ATOM      9  C   UNL d   1     -41.757-122.599 -51.862  0.00  0.00     0.182 A 
ATOM     10  O   UNL d   1     -43.621-122.444 -48.784  0.00  0.00    -0.245 OA
ATOM     11  O   UNL d   1     -41.123-123.816 -49.197  0.00  0.00    -0.265 OA
ATOM     12  C   UNL d   1     -43.617-121.951 -50.361  0.00  0.00     0.105 C 
ATOM     13  C   UNL d   1     -42.375-123.389 -48.160  0.00  0.00     0.107 C 
ENDROOT
BRANCH   9  14
ATOM     14  C   UNL d   1     -41.943-122.261 -52.579  0.00  0.00     0.120 C 
BRANCH  14  15
ATOM     15  N   UNL d   1     -41.648-122.319 -53.321  0.00  0.00    -0.297 N 
ATOM     16  C   UNL d   1     -41.209-122.961 -53.536  0.00  0.00     0.100 C 
ATOM     17  C   UNL d   1     -41.790-121.732 -53.854  0.00  0.00     0.100 C 
ENDBRANCH  14  15
ENDBRANCH   9  14
TORSDOF 2
ENDMDL
MODEL 3
REMARK VINA RESULT:      -1.3      1.564      4.111
REMARK  2 active torsions:
REMARK  status: ('A' for Active; 'I' for Inactive)
REMARK    1  A    between atoms: C_12  and  C_9 
REMARK    2  A    between atoms: N_15  and  C_12 
ROOT
ATOM      1  C   UNL d   1     -41.885-121.959 -52.517  0.00  0.00     0.176 A 
ATOM      2  C   UNL d   1     -42.029-122.749 -52.327  0.00  0.00     0.174 A 
ATOM      3  N   UNL d   1     -41.634-121.425 -51.918  0.00  0.00    -0.240 N 
ATOM      4  N   UNL d   1     -41.675-122.483 -50.957  0.00  0.00    -0.223 N 
ATOM      5  C   UNL d   1     -41.530-121.681 -51.150  0.00  0.00     0.343 A 
ATOM      6  C   UNL d   1     -41.923-123.017 -51.535  0.00  0.00     0.289 A 
ATOM      7  N   UNL d   1     -41.984-121.681 -53.281  0.00  0.00    -0.206 NA
ATOM      8  N   UNL d   1     -42.380-123.009 -53.689  0.00  0.00    -0.217 NA
ATOM      9  C   UNL d   1     -42.231-122.204 -53.870  0.00  0.00     0.182 A 
ATOM     10  O   UNL d   1     -41.281-121.153 -50.558  0.00  0.00    -0.245 OA
ATOM     11  O   UNL d   1     -42.067-123.811 -51.344  0.00  0.00    -0.265 OA
ATOM     12  C   UNL d   1     -41.489-120.628 -52.110  0.00  0.00     0.105 C 
ATOM     13  C   UNL d   1     -41.564-122.758 -50.133  0.00  0.00     0.107 C 
ENDROOT
BRANCH   9  14
ATOM     14  C   UNL d   1     -42.270-121.754 -54.547  0.00  0.00     0.120 C 
BRANCH  14  15
ATOM     15  N   UNL d   1     -42.228-121.914 -55.330  0.00  0.00    -0.297 N 
ATOM     16  C   UNL d   1     -42.896-122.087 -55.748  0.00  0.00     0.100 C 
ATOM     17  C   UNL d   1     -41.513-121.901 -55.702  0.00  0.00     0.100 C 
ENDBRANCH  14  15
ENDBRANCH   9  14
TORSDOF 2
ENDMDL
