MODEL 1
REMARK VINA RESULT:      83.6      0.000      0.000
REMARK  6 active torsions:
REMARK  status: ('A' for Active; 'I' for Inactive)
REMARK    1  A    between atoms: C_3  and  N_1 
REMARK       I    between atoms: C_2  and  N_6 
REMARK       I    between atoms: N_7  and  C_2 
REMARK    2  A    between atoms: C_5  and  C_3 
REMARK    3  A    between atoms: C_8  and  C_3 
REMARK    4  A    between atoms: N_6  and  C_5 
REMARK    5  A    between atoms: C_20  and  N_7 
REMARK    6  A    between atoms: N_12  and  C_9 
ROOT
ATOM      1  C   UNL d   1     -48.147  30.069  35.078  0.00  0.00     0.084 C 
ENDROOT
BRANCH   1   2
ATOM      2  N   UNL d   1     -47.566  29.772  35.583  0.00  0.00    -0.300 N 
ATOM      3  C   UNL d   1     -47.557  29.980  36.385  0.00  0.00     0.100 A 
ATOM      4  C   UNL d   1     -46.974  29.680  36.886  0.00  0.00     0.100 A 
ATOM      5  N   UNL d   1     -46.399  29.172  36.582  0.00  0.00    -0.299 N 
ATOM      6  C   UNL d   1     -46.403  28.961  35.785  0.00  0.00     0.100 A 
ATOM      7  C   UNL d   1     -45.812  28.874  37.101  0.00  0.00     0.100 C 
ATOM      8  C   UNL d   1     -46.984  29.258  35.280  0.00  0.00     0.100 A 
ENDBRANCH   1   2
BRANCH   1   9
ATOM      9  C   UNL d   1     -48.816  29.612  34.929  0.00  0.00     0.121 C 
BRANCH   9  10
ATOM     10  N   UNL d   1     -48.890  29.207  34.209  0.00  0.00    -0.188 NA
ATOM     11  C   UNL d   1     -49.318  28.505  34.172  0.00  0.00     0.369 C 
ATOM     12  N   UNL d   1     -49.392  28.100  33.453  0.00  0.00    -0.191 NA
ATOM     13  O   UNL d   1     -49.673  28.202  34.845  0.00  0.00    -0.242 OA
BRANCH  12  14
ATOM     14  C   UNL d   1     -49.820  27.399  33.417  0.00  0.00     0.086 A 
ATOM     15  C   UNL d   1     -50.646  27.417  33.426  0.00  0.00     0.022 A 
ATOM     16  C   UNL d   1     -51.074  26.715  33.390  0.00  0.00     0.031 A 
ATOM     17  C   UNL d   1     -50.676  25.985  33.344  0.00  0.00     0.140 A 
ATOM     18  C   UNL d   1     -49.864  25.968  33.335  0.00  0.00     0.031 A 
ATOM     19  F   UNL d   1     -51.106  25.277  33.308  0.00  0.00    -0.204 F 
ATOM     20  C   UNL d   1     -49.425  26.676  33.372  0.00  0.00     0.022 A 
ENDBRANCH  12  14
ENDBRANCH   9  10
ENDBRANCH   1   9
BRANCH   1  21
ATOM     21  C   UNL d   1     -48.053  30.815  34.730  0.00  0.00     0.018 A 
ATOM     22  C   UNL d   1     -48.598  31.076  34.168  0.00  0.00     0.003 A 
ATOM     23  C   UNL d   1     -48.500  31.815  33.827  0.00  0.00     0.018 A 
ATOM     24  C   UNL d   1     -47.868  32.302  34.035  0.00  0.00     0.064 A 
ATOM     25  C   UNL d   1     -47.327  32.033  34.598  0.00  0.00     0.018 A 
ATOM     26  C   UNL d   1     -47.417  31.295  34.945  0.00  0.00     0.003 A 
BRANCH  24  27
ATOM     27  N   UNL d   1     -47.771  33.046  33.690  0.00  0.00    -0.301 N 
ATOM     28  C   UNL d   1     -48.387  33.591  33.740  0.00  0.00     0.100 C 
ATOM     29  C   UNL d   1     -47.084  33.244  33.308  0.00  0.00     0.100 C 
ENDBRANCH  24  27
ENDBRANCH   1  21
TORSDOF 6
ENDMDL
MODEL 2
REMARK VINA RESULT:      83.7      2.311      6.230
REMARK  6 active torsions:
REMARK  status: ('A' for Active; 'I' for Inactive)
REMARK    1  A    between atoms: C_3  and  N_1 
REMARK       I    between atoms: C_2  and  N_6 
REMARK       I    between atoms: N_7  and  C_2 
REMARK    2  A    between atoms: C_5  and  C_3 
REMARK    3  A    between atoms: C_8  and  C_3 
REMARK    4  A    between atoms: N_6  and  C_5 
REMARK    5  A    between atoms: C_20  and  N_7 
REMARK    6  A    between atoms: N_12  and  C_9 
ROOT
ATOM      1  C   UNL d   1     -50.516  26.907  33.621  0.00  0.00     0.084 C 
ENDROOT
BRANCH   1   2
ATOM      2  N   UNL d   1     -51.235  27.303  33.543  0.00  0.00    -0.300 N 
ATOM      3  C   UNL d   1     -51.948  26.883  33.511  0.00  0.00     0.100 A 
ATOM      4  C   UNL d   1     -52.665  27.284  33.433  0.00  0.00     0.100 A 
ATOM      5  N   UNL d   1     -52.667  28.108  33.386  0.00  0.00    -0.299 N 
ATOM      6  C   UNL d   1     -51.961  28.532  33.417  0.00  0.00     0.100 A 
ATOM      7  C   UNL d   1     -53.401  28.503  33.306  0.00  0.00     0.100 C 
ATOM      8  C   UNL d   1     -51.242  28.135  33.495  0.00  0.00     0.100 A 
ENDBRANCH   1   2
BRANCH   1   9
ATOM      9  C   UNL d   1     -49.826  27.348  33.711  0.00  0.00     0.121 C 
BRANCH   9  10
ATOM     10  N   UNL d   1     -49.575  27.576  34.467  0.00  0.00    -0.188 NA
ATOM     11  C   UNL d   1     -49.015  28.173  34.554  0.00  0.00     0.369 C 
ATOM     12  N   UNL d   1     -48.764  28.401  35.311  0.00  0.00    -0.191 NA
ATOM     13  O   UNL d   1     -48.703  28.546  33.896  0.00  0.00    -0.242 OA
BRANCH  12  14
ATOM     14  C   UNL d   1     -48.204  28.997  35.397  0.00  0.00     0.086 A 
ATOM     15  C   UNL d   1     -47.813  29.097  36.118  0.00  0.00     0.022 A 
ATOM     16  C   UNL d   1     -47.253  29.694  36.204  0.00  0.00     0.031 A 
ATOM     17  C   UNL d   1     -47.080  30.199  35.564  0.00  0.00     0.140 A 
ATOM     18  C   UNL d   1     -47.464  30.100  34.856  0.00  0.00     0.031 A 
ATOM     19  F   UNL d   1     -46.516  30.801  35.649  0.00  0.00    -0.204 F 
ATOM     20  C   UNL d   1     -48.032  29.497  34.763  0.00  0.00     0.022 A 
ENDBRANCH  12  14
ENDBRANCH   9  10
ENDBRANCH   1   9
BRANCH   1  21
ATOM     21  C   UNL d   1     -50.495  26.079  33.609  0.00  0.00     0.018 A 
ATOM     22  C   UNL d   1     -51.144  25.649  33.882  0.00  0.00     0.003 A 
ATOM     23  C   UNL d   1     -51.118  24.830  33.868  0.00  0.00     0.018 A 
ATOM     24  C   UNL d   1     -50.455  24.428  33.586  0.00  0.00     0.064 A 
ATOM     25  C   UNL d   1     -49.810  24.865  33.316  0.00  0.00     0.018 A 
ATOM     26  C   UNL d   1     -49.827  25.685  33.326  0.00  0.00     0.003 A 
BRANCH  24  27
ATOM     27  N   UNL d   1     -50.431  23.602  33.573  0.00  0.00    -0.301 N 
ATOM     28  C   UNL d   1     -51.095  23.188  33.314  0.00  0.00     0.100 C 
ATOM     29  C   UNL d   1     -49.769  23.199  33.810  0.00  0.00     0.100 C 
ENDBRANCH  24  27
ENDBRANCH   1  21
TORSDOF 6
ENDMDL
