MODEL 1
REMARK VINA RESULT:      65.3      0.000      0.000
REMARK  5 active torsions:
REMARK  status: ('A' for Active; 'I' for Inactive)
REMARK    1  A    between atoms: C_2  and  C_1 
REMARK       I    between atoms: N_3  and  C_2 
REMARK    2  A    between atoms: C_6  and  N_3 
REMARK    3  A    between atoms: O_15  and  C_5 
REMARK    4  A    between atoms: O_17  and  C_11 
REMARK    5  A    between atoms: O_18  and  C_14 
ROOT
ATOM      1  C   UNL d   1     -51.320  26.475  33.654  0.00  0.00     0.281 C 
ATOM      2  N   UNL d   1     -51.085  25.672  33.727  0.00  0.00    -0.206 NA
ATOM      3  O   UNL d   1     -52.079  26.656  33.446  0.00  0.00    -0.265 OA
ENDROOT
BRANCH   1   4
ATOM      4  C   UNL d   1     -50.767  27.082  33.796  0.00  0.00     0.080 A 
ATOM      5  C   UNL d   1     -50.031  26.912  34.104  0.00  0.00     0.007 A 
ATOM      6  C   UNL d   1     -49.465  27.497  34.254  0.00  0.00     0.000 A 
ATOM      7  C   UNL d   1     -48.746  27.322  34.556  0.00  0.00     0.000 A 
ATOM      8  C   UNL d   1     -49.661  28.301  34.081  0.00  0.00     0.002 A 
ATOM      9  C   UNL d   1     -48.187  27.905  34.704  0.00  0.00     0.000 A 
ATOM     10  C   UNL d   1     -48.383  28.709  34.531  0.00  0.00     0.000 A 
ATOM     11  C   UNL d   1     -49.129  28.895  34.217  0.00  0.00     0.000 A 
ATOM     12  C   UNL d   1     -50.414  28.485  33.765  0.00  0.00     0.024 A 
ATOM     13  C   UNL d   1     -50.963  27.885  33.623  0.00  0.00     0.099 A 
BRANCH  13  14
ATOM     14  O   UNL d   1     -51.709  28.071  33.310  0.00  0.00    -0.328 OA
ATOM     15  C   UNL d   1     -52.017  28.854  33.391  0.00  0.00     0.181 C 
ENDBRANCH  13  14
ENDBRANCH   1   4
BRANCH   2  16
ATOM     16  C   UNL d   1     -51.638  25.065  33.584  0.00  0.00     0.109 A 
ATOM     17  C   UNL d   1     -52.419  25.263  33.518  0.00  0.00     0.045 A 
ATOM     18  C   UNL d   1     -52.946  24.656  33.378  0.00  0.00     0.096 A 
ATOM     19  C   UNL d   1     -52.707  23.874  33.306  0.00  0.00     0.026 A 
ATOM     20  C   UNL d   1     -51.921  23.700  33.375  0.00  0.00     0.028 A 
ATOM     21  C   UNL d   1     -51.375  24.272  33.513  0.00  0.00     0.112 A 
BRANCH  18  22
ATOM     22  O   UNL d   1     -53.763  24.836  33.306  0.00  0.00    -0.328 OA
ATOM     23  C   UNL d   1     -54.300  24.245  33.321  0.00  0.00     0.181 C 
ENDBRANCH  18  22
BRANCH  21  24
ATOM     24  O   UNL d   1     -50.558  24.065  33.582  0.00  0.00    -0.327 OA
ATOM     25  C   UNL d   1     -50.302  23.318  33.349  0.00  0.00     0.181 C 
ENDBRANCH  21  24
ENDBRANCH   2  16
TORSDOF 5
ENDMDL
