MODEL 1
REMARK VINA RESULT:      -5.4      0.000      0.000
REMARK  3 active torsions:
REMARK  status: ('A' for Active; 'I' for Inactive)
REMARK    1  A    between atoms: C_6  and  N_2 
REMARK    2  A    between atoms: C_7  and  C_6 
REMARK    3  A    between atoms: C_8  and  C_7 
ROOT
ATOM      1  N   UNL d   1      58.851   0.679  29.850  0.00  0.00    -0.224 NA
ATOM      2  N   UNL d   1      57.996  -0.097  30.498  0.00  0.00    -0.287 N 
ATOM      3  C   UNL d   1      58.295   0.637  30.417  0.00  0.00     0.183 A 
ATOM      4  C   UNL d   1      58.392  -0.577  29.934  0.00  0.00     0.083 A 
ATOM      5  C   UNL d   1      58.906  -0.111  29.545  0.00  0.00     0.099 A 
ATOM      6  C   UNL d   1      58.350  -1.369  29.729  0.00  0.00     0.019 A 
ATOM      7  C   UNL d   1      59.423  -0.394  28.916  0.00  0.00     0.021 A 
ATOM      8  C   UNL d   1      58.812  -1.700  29.143  0.00  0.00     0.002 A 
ATOM      9  C   UNL d   1      59.326  -1.234  28.754  0.00  0.00     0.002 A 
ENDROOT
BRANCH   2  10
ATOM     10  C   UNL d   1      57.406  -0.375  31.026  0.00  0.00     0.082 C 
BRANCH  10  11
ATOM     11  C   UNL d   1      57.232   0.053  31.683  0.00  0.00     0.019 C 
BRANCH  11  12
ATOM     12  C   UNL d   1      56.631  -0.221  32.197  0.00  0.00     0.002 A 
ATOM     13  C   UNL d   1      56.130   0.343  32.568  0.00  0.00     0.000 A 
ATOM     14  C   UNL d   1      55.526   0.071  33.084  0.00  0.00     0.000 A 
ATOM     15  C   UNL d   1      55.444  -0.735  33.211  0.00  0.00     0.000 A 
ATOM     16  C   UNL d   1      55.947  -1.296  32.839  0.00  0.00     0.000 A 
ATOM     17  C   UNL d   1      56.530  -1.026  32.340  0.00  0.00     0.000 A 
ENDBRANCH  11  12
ENDBRANCH  10  11
ENDBRANCH   2  10
TORSDOF 3
ENDMDL
MODEL 2
REMARK VINA RESULT:      -5.0      1.005      3.978
REMARK  3 active torsions:
REMARK  status: ('A' for Active; 'I' for Inactive)
REMARK    1  A    between atoms: C_6  and  N_2 
REMARK    2  A    between atoms: C_7  and  C_6 
REMARK    3  A    between atoms: C_8  and  C_7 
ROOT
ATOM      1  N   UNL d   1      56.932   0.682  32.972  0.00  0.00    -0.224 NA
ATOM      2  N   UNL d   1      57.191   0.017  31.856  0.00  0.00    -0.287 N 
ATOM      3  C   UNL d   1      57.319   0.681  32.277  0.00  0.00     0.183 A 
ATOM      4  C   UNL d   1      56.674  -0.458  32.317  0.00  0.00     0.083 A 
ATOM      5  C   UNL d   1      56.518  -0.059  32.987  0.00  0.00     0.099 A 
ATOM      6  C   UNL d   1      56.330  -1.194  32.211  0.00  0.00     0.019 A 
ATOM      7  C   UNL d   1      56.006  -0.360  33.611  0.00  0.00     0.021 A 
ATOM      8  C   UNL d   1      55.835  -1.535  32.763  0.00  0.00     0.002 A 
ATOM      9  C   UNL d   1      55.680  -1.136  33.433  0.00  0.00     0.002 A 
ENDROOT
BRANCH   2  10
ATOM     10  C   UNL d   1      57.491  -0.201  31.103  0.00  0.00     0.082 C 
BRANCH  10  11
ATOM     11  C   UNL d   1      57.996   0.294  30.722  0.00  0.00     0.019 C 
BRANCH  11  12
ATOM     12  C   UNL d   1      58.280   0.079  29.965  0.00  0.00     0.002 A 
ATOM     13  C   UNL d   1      58.143   0.600  29.320  0.00  0.00     0.000 A 
ATOM     14  C   UNL d   1      58.427   0.385  28.559  0.00  0.00     0.000 A 
ATOM     15  C   UNL d   1      58.829  -0.324  28.469  0.00  0.00     0.000 A 
ATOM     16  C   UNL d   1      58.963  -0.842  29.116  0.00  0.00     0.000 A 
ATOM     17  C   UNL d   1      58.686  -0.630  29.851  0.00  0.00     0.000 A 
ENDBRANCH  11  12
ENDBRANCH  10  11
ENDBRANCH   2  10
TORSDOF 3
ENDMDL
MODEL 3
REMARK VINA RESULT:      -4.7      0.889      1.633
REMARK  3 active torsions:
REMARK  status: ('A' for Active; 'I' for Inactive)
REMARK    1  A    between atoms: C_6  and  N_2 
REMARK    2  A    between atoms: C_7  and  C_6 
REMARK    3  A    between atoms: C_8  and  C_7 
ROOT
ATOM      1  N   UNL d   1      57.764  -1.559  30.331  0.00  0.00    -0.224 NA
ATOM      2  N   UNL d   1      57.373  -0.614  31.173  0.00  0.00    -0.287 N 
ATOM      3  C   UNL d   1      57.307  -1.378  30.957  0.00  0.00     0.183 A 
ATOM      4  C   UNL d   1      57.921  -0.264  30.640  0.00  0.00     0.083 A 
ATOM      5  C   UNL d   1      58.156  -0.832  30.135  0.00  0.00     0.099 A 
ATOM      6  C   UNL d   1      58.231   0.489  30.554  0.00  0.00     0.019 A 
ATOM      7  C   UNL d   1      58.721  -0.697  29.498  0.00  0.00     0.021 A 
ATOM      8  C   UNL d   1      58.770   0.682  29.972  0.00  0.00     0.002 A 
ATOM      9  C   UNL d   1      59.005   0.115  29.467  0.00  0.00     0.002 A 
ENDROOT
BRANCH   2  10
ATOM     10  C   UNL d   1      56.991  -0.203  31.797  0.00  0.00     0.082 C 
BRANCH  10  11
ATOM     11  C   UNL d   1      56.584  -0.619  32.351  0.00  0.00     0.019 C 
BRANCH  11  12
ATOM     12  C   UNL d   1      56.235  -0.208  32.990  0.00  0.00     0.002 A 
ATOM     13  C   UNL d   1      55.411  -0.300  33.127  0.00  0.00     0.000 A 
ATOM     14  C   UNL d   1      55.058   0.112  33.769  0.00  0.00     0.000 A 
ATOM     15  C   UNL d   1      55.527   0.591  34.241  0.00  0.00     0.000 A 
ATOM     16  C   UNL d   1      56.351   0.681  34.101  0.00  0.00     0.000 A 
ATOM     17  C   UNL d   1      56.687   0.279  33.478  0.00  0.00     0.000 A 
ENDBRANCH  11  12
ENDBRANCH  10  11
ENDBRANCH   2  10
TORSDOF 3
ENDMDL
MODEL 4
REMARK VINA RESULT:      -2.9      2.013      3.343
REMARK  3 active torsions:
REMARK  status: ('A' for Active; 'I' for Inactive)
REMARK    1  A    between atoms: C_6  and  N_2 
REMARK    2  A    between atoms: C_7  and  C_6 
REMARK    3  A    between atoms: C_8  and  C_7 
ROOT
ATOM      1  N   UNL d   1      58.831  -3.665  28.455  0.00  0.00    -0.224 NA
ATOM      2  N   UNL d   1      59.049  -2.540  29.120  0.00  0.00    -0.287 N 
ATOM      3  C   UNL d   1      58.521  -2.980  28.716  0.00  0.00     0.183 A 
ATOM      4  C   UNL d   1      59.767  -2.977  29.123  0.00  0.00     0.083 A 
ATOM      5  C   UNL d   1      59.636  -3.652  28.724  0.00  0.00     0.099 A 
ATOM      6  C   UNL d   1      60.512  -2.845  29.435  0.00  0.00     0.019 A 
ATOM      7  C   UNL d   1      60.239  -4.256  28.600  0.00  0.00     0.021 A 
ATOM      8  C   UNL d   1      61.127  -3.377  29.354  0.00  0.00     0.002 A 
ATOM      9  C   UNL d   1      60.996  -4.052  28.954  0.00  0.00     0.002 A 
ENDROOT
BRANCH   2  10
ATOM     10  C   UNL d   1      58.948  -1.791  29.483  0.00  0.00     0.082 C 
BRANCH  10  11
ATOM     11  C   UNL d   1      58.206  -1.513  29.615  0.00  0.00     0.019 C 
BRANCH  11  12
ATOM     12  C   UNL d   1      58.111  -0.770  29.988  0.00  0.00     0.002 A 
ATOM     13  C   UNL d   1      57.700  -0.736  30.720  0.00  0.00     0.000 A 
ATOM     14  C   UNL d   1      57.604   0.009  31.096  0.00  0.00     0.000 A 
ATOM     15  C   UNL d   1      57.914   0.679  30.738  0.00  0.00     0.000 A 
ATOM     16  C   UNL d   1      58.324   0.640  30.006  0.00  0.00     0.000 A 
ATOM     17  C   UNL d   1      58.414  -0.084  29.646  0.00  0.00     0.000 A 
ENDBRANCH  11  12
ENDBRANCH  10  11
ENDBRANCH   2  10
TORSDOF 3
ENDMDL
MODEL 5
REMARK VINA RESULT:      -2.6      9.348      9.818
REMARK  3 active torsions:
REMARK  status: ('A' for Active; 'I' for Inactive)
REMARK    1  A    between atoms: C_6  and  N_2 
REMARK    2  A    between atoms: C_7  and  C_6 
REMARK    3  A    between atoms: C_8  and  C_7 
ROOT
ATOM      1  N   UNL d   1      58.418  -9.793  31.959  0.00  0.00    -0.224 NA
ATOM      2  N   UNL d   1      59.286  -9.778  32.960  0.00  0.00    -0.287 N 
ATOM      3  C   UNL d   1      58.518  -9.780  32.749  0.00  0.00     0.183 A 
ATOM      4  C   UNL d   1      59.727  -9.791  32.245  0.00  0.00     0.083 A 
ATOM      5  C   UNL d   1      59.206  -9.800  31.644  0.00  0.00     0.099 A 
ATOM      6  C   UNL d   1      60.527  -9.796  32.069  0.00  0.00     0.019 A 
ATOM      7  C   UNL d   1      59.437  -9.814  30.814  0.00  0.00     0.021 A 
ATOM      8  C   UNL d   1      60.812  -9.809  31.304  0.00  0.00     0.002 A 
ATOM      9  C   UNL d   1      60.291  -9.818  30.703  0.00  0.00     0.002 A 
ENDROOT
BRANCH   2  10
ATOM     10  C   UNL d   1      59.626  -9.767  33.727  0.00  0.00     0.082 C 
BRANCH  10  11
ATOM     11  C   UNL d   1      59.229  -9.413  34.328  0.00  0.00     0.019 C 
BRANCH  11  12
ATOM     12  C   UNL d   1      59.656  -9.161  35.003  0.00  0.00     0.002 A 
ATOM     13  C   UNL d   1      60.157  -9.712  35.392  0.00  0.00     0.000 A 
ATOM     14  C   UNL d   1      60.586  -9.461  36.069  0.00  0.00     0.000 A 
ATOM     15  C   UNL d   1      60.503  -8.688  36.330  0.00  0.00     0.000 A 
ATOM     16  C   UNL d   1      60.001  -8.140  35.937  0.00  0.00     0.000 A 
ATOM     17  C   UNL d   1      59.588  -8.388  35.282  0.00  0.00     0.000 A 
ENDBRANCH  11  12
ENDBRANCH  10  11
ENDBRANCH   2  10
TORSDOF 3
ENDMDL
