MODEL 1
REMARK VINA RESULT:      45.6      0.000      0.000
REMARK  7 active torsions:
REMARK  status: ('A' for Active; 'I' for Inactive)
REMARK    1  A    between atoms: N_4  and  C_2 
REMARK    2  A    between atoms: S_9  and  C_3 
REMARK    3  A    between atoms: C_8  and  C_13 
REMARK    4  A    between atoms: O_11  and  C_8 
REMARK    5  A    between atoms: C_13  and  S_9 
REMARK    6  A    between atoms: C_14  and  O_11 
REMARK    7  A    between atoms: C_17  and  C_14 
ROOT
ATOM      1  N   UNL d   1     -50.607  25.999  33.309  0.00  0.00    -0.203 NA
ATOM      2  C   UNL d   1     -51.354  25.653  33.310  0.00  0.00     0.152 A 
ATOM      3  C   UNL d   1     -50.532  26.825  33.307  0.00  0.00     0.196 A 
ATOM      4  C   UNL d   1     -52.026  26.127  33.309  0.00  0.00     0.057 A 
ATOM      5  N   UNL d   1     -51.205  27.300  33.306  0.00  0.00    -0.221 NA
ATOM      6  C   UNL d   1     -51.951  26.953  33.307  0.00  0.00     0.087 A 
ATOM      7  C   UNL d   1     -52.628  27.429  33.306  0.00  0.00     0.021 C 
ENDROOT
BRANCH   3   8
ATOM      8  S   UNL d   1     -49.777  27.171  33.306  0.00  0.00    -0.043 SA
BRANCH   8   9
ATOM      9  C   UNL d   1     -49.552  27.667  33.925  0.00  0.00     0.107 C 
BRANCH   9  10
ATOM     10  C   UNL d   1     -48.781  27.636  34.213  0.00  0.00     0.307 C 
ATOM     11  O   UNL d   1     -48.252  27.075  33.931  0.00  0.00    -0.258 OA
BRANCH  10  12
ATOM     12  O   UNL d   1     -48.537  28.177  34.793  0.00  0.00    -0.271 OA
BRANCH  12  13
ATOM     13  C   UNL d   1     -47.915  28.695  34.639  0.00  0.00     0.126 C 
BRANCH  13  14
ATOM     14  C   UNL d   1     -47.742  29.302  35.170  0.00  0.00     0.025 A 
ATOM     15  C   UNL d   1     -47.110  29.209  35.703  0.00  0.00     0.002 A 
ATOM     16  C   UNL d   1     -46.936  29.816  36.234  0.00  0.00     0.000 A 
ATOM     17  C   UNL d   1     -47.395  30.512  36.229  0.00  0.00     0.000 A 
ATOM     18  C   UNL d   1     -48.020  30.589  35.693  0.00  0.00     0.000 A 
ATOM     19  C   UNL d   1     -48.192  29.988  35.167  0.00  0.00     0.002 A 
ENDBRANCH  13  14
ENDBRANCH  12  13
ENDBRANCH  10  12
ENDBRANCH   9  10
ENDBRANCH   8   9
ENDBRANCH   3   8
BRANCH   2  20
ATOM     20  N   UNL d   1     -51.433  24.831  33.312  0.00  0.00    -0.285 N 
ATOM     21  C   UNL d   1     -52.187  24.492  33.307  0.00  0.00     0.108 A 
ATOM     22  C   UNL d   1     -52.269  23.675  33.309  0.00  0.00     0.142 A 
ATOM     23  O   UNL d   1     -51.601  23.194  33.316  0.00  0.00    -0.300 OA
ATOM     24  C   UNL d   1     -50.847  23.533  33.321  0.00  0.00     0.142 A 
ATOM     25  C   UNL d   1     -50.765  24.354  33.319  0.00  0.00     0.108 A 
ENDBRANCH   2  20
TORSDOF 7
ENDMDL
MODEL 2
REMARK VINA RESULT:      46.3      1.129      1.794
REMARK  7 active torsions:
REMARK  status: ('A' for Active; 'I' for Inactive)
REMARK    1  A    between atoms: N_4  and  C_2 
REMARK    2  A    between atoms: S_9  and  C_3 
REMARK    3  A    between atoms: C_8  and  C_13 
REMARK    4  A    between atoms: O_11  and  C_8 
REMARK    5  A    between atoms: C_13  and  S_9 
REMARK    6  A    between atoms: C_14  and  O_11 
REMARK    7  A    between atoms: C_17  and  C_14 
ROOT
ATOM      1  N   UNL d   1     -51.366  25.628  33.444  0.00  0.00    -0.203 NA
ATOM      2  C   UNL d   1     -51.386  24.806  33.414  0.00  0.00     0.152 A 
ATOM      3  C   UNL d   1     -50.638  26.026  33.428  0.00  0.00     0.196 A 
ATOM      4  C   UNL d   1     -50.685  24.379  33.368  0.00  0.00     0.057 A 
ATOM      5  N   UNL d   1     -49.935  25.599  33.382  0.00  0.00    -0.221 NA
ATOM      6  C   UNL d   1     -49.957  24.777  33.352  0.00  0.00     0.087 A 
ATOM      7  C   UNL d   1     -49.252  24.346  33.306  0.00  0.00     0.021 C 
ENDROOT
BRANCH   3   8
ATOM      8  S   UNL d   1     -50.620  26.856  33.459  0.00  0.00    -0.043 SA
BRANCH   8   9
ATOM      9  C   UNL d   1     -50.059  27.237  33.928  0.00  0.00     0.107 C 
BRANCH   9  10
ATOM     10  C   UNL d   1     -49.820  28.002  33.737  0.00  0.00     0.307 C 
ATOM     11  O   UNL d   1     -50.313  28.499  33.308  0.00  0.00    -0.258 OA
BRANCH  10  12
ATOM     12  O   UNL d   1     -49.075  28.272  33.981  0.00  0.00    -0.271 OA
BRANCH  12  13
ATOM     13  C   UNL d   1     -48.998  29.016  34.327  0.00  0.00     0.126 C 
BRANCH  13  14
ATOM     14  C   UNL d   1     -48.399  29.157  34.877  0.00  0.00     0.025 A 
ATOM     15  C   UNL d   1     -48.589  29.200  35.686  0.00  0.00     0.002 A 
ATOM     16  C   UNL d   1     -47.989  29.340  36.235  0.00  0.00     0.000 A 
ATOM     17  C   UNL d   1     -47.204  29.437  35.972  0.00  0.00     0.000 A 
ATOM     18  C   UNL d   1     -47.032  29.391  35.165  0.00  0.00     0.000 A 
ATOM     19  C   UNL d   1     -47.625  29.252  34.621  0.00  0.00     0.002 A 
ENDBRANCH  13  14
ENDBRANCH  12  13
ENDBRANCH  10  12
ENDBRANCH   9  10
ENDBRANCH   8   9
ENDBRANCH   3   8
BRANCH   2  20
ATOM     20  N   UNL d   1     -52.109  24.406  33.429  0.00  0.00    -0.285 N 
ATOM     21  C   UNL d   1     -52.122  23.591  33.566  0.00  0.00     0.108 A 
ATOM     22  C   UNL d   1     -52.839  23.190  33.582  0.00  0.00     0.142 A 
ATOM     23  O   UNL d   1     -53.543  23.600  33.463  0.00  0.00    -0.300 OA
ATOM     24  C   UNL d   1     -53.529  24.415  33.326  0.00  0.00     0.142 A 
ATOM     25  C   UNL d   1     -52.809  24.818  33.310  0.00  0.00     0.108 A 
ENDBRANCH   2  20
TORSDOF 7
ENDMDL
