MODEL 1
REMARK VINA RESULT:      85.2      0.000      0.000
REMARK  6 active torsions:
REMARK  status: ('A' for Active; 'I' for Inactive)
REMARK    1  A    between atoms: C_3  and  N_1 
REMARK       I    between atoms: C_4  and  N_1 
REMARK    2  A    between atoms: C_6  and  N_1 
REMARK    3  A    between atoms: N_2  and  C_3 
REMARK    4  A    between atoms: C_7  and  C_4 
REMARK    5  A    between atoms: O_22  and  C_15 
REMARK    6  A    between atoms: C_24  and  O_22 
ROOT
ATOM      1  N   UNL d   1     -57.073 -99.015 -44.623  0.00  0.00    -0.258 N 
ATOM      2  C   UNL d   1     -57.886 -98.908 -44.747  0.00  0.00     0.266 C 
ATOM      3  O   UNL d   1     -58.180 -98.776 -45.449  0.00  0.00    -0.267 OA
ENDROOT
BRANCH   1   4
ATOM      4  C   UNL d   1     -56.776 -99.155 -43.865  0.00  0.00     0.171 C 
BRANCH   4   5
ATOM      5  N   UNL d   1     -56.204 -99.689 -43.604  0.00  0.00    -0.257 N 
ATOM      6  C   UNL d   1     -55.424 -99.524 -43.399  0.00  0.00     0.266 A 
ATOM      7  O   UNL d   1     -55.066 -98.773 -43.419  0.00  0.00    -0.267 OA
ATOM      8  C   UNL d   1     -55.052-100.233 -43.169  0.00  0.00     0.063 A 
ATOM      9  C   UNL d   1     -55.609-100.840 -43.232  0.00  0.00     0.024 A 
ATOM     10  C   UNL d   1     -56.321-100.516 -43.499  0.00  0.00     0.085 A 
ENDBRANCH   4   5
ENDBRANCH   1   4
BRANCH   1  11
ATOM     11  C   UNL d   1     -56.550 -98.980 -45.267  0.00  0.00     0.068 A 
ATOM     12  C   UNL d   1     -56.826 -99.130 -46.036  0.00  0.00     0.018 A 
ATOM     13  C   UNL d   1     -56.297 -99.092 -46.659  0.00  0.00     0.002 A 
ATOM     14  C   UNL d   1     -55.513 -98.911 -46.535  0.00  0.00     0.000 A 
ATOM     15  C   UNL d   1     -55.241 -98.764 -45.778  0.00  0.00     0.002 A 
ATOM     16  C   UNL d   1     -54.987 -98.875 -47.171  0.00  0.00     0.000 C 
ATOM     17  C   UNL d   1     -55.752 -98.797 -45.139  0.00  0.00     0.018 A 
ENDBRANCH   1  11
BRANCH   2  18
ATOM     18  C   UNL d   1     -58.394 -98.945 -44.101  0.00  0.00     0.057 A 
ATOM     19  C   UNL d   1     -59.193 -98.782 -44.203  0.00  0.00     0.007 A 
ATOM     20  C   UNL d   1     -59.705 -98.817 -43.562  0.00  0.00     0.025 A 
ATOM     21  C   UNL d   1     -59.410 -99.017 -42.808  0.00  0.00     0.100 A 
ATOM     22  C   UNL d   1     -58.613 -99.178 -42.710  0.00  0.00     0.025 A 
ATOM     23  C   UNL d   1     -58.089 -99.145 -43.354  0.00  0.00     0.007 A 
BRANCH  21  24
ATOM     24  O   UNL d   1     -59.931 -99.047 -42.184  0.00  0.00    -0.305 OA
BRANCH  24  25
ATOM     25  C   UNL d   1     -59.715 -98.779 -41.432  0.00  0.00     0.123 C 
ATOM     26  C   UNL d   1     -59.950 -99.197 -40.765  0.00  0.00     0.029 C 
ENDBRANCH  24  25
ENDBRANCH  21  24
ENDBRANCH   2  18
TORSDOF 6
ENDMDL
MODEL 2
REMARK VINA RESULT:      85.4      2.690      3.946
REMARK  6 active torsions:
REMARK  status: ('A' for Active; 'I' for Inactive)
REMARK    1  A    between atoms: C_3  and  N_1 
REMARK       I    between atoms: C_4  and  N_1 
REMARK    2  A    between atoms: C_6  and  N_1 
REMARK    3  A    between atoms: N_2  and  C_3 
REMARK    4  A    between atoms: C_7  and  C_4 
REMARK    5  A    between atoms: O_22  and  C_15 
REMARK    6  A    between atoms: C_24  and  O_22 
ROOT
ATOM      1  N   UNL d   1     -55.226-100.936 -43.926  0.00  0.00    -0.258 N 
ATOM      2  C   UNL d   1     -55.080-100.656 -43.160  0.00  0.00     0.266 C 
ATOM      3  O   UNL d   1     -55.029 -99.902 -43.002  0.00  0.00    -0.267 OA
ENDROOT
BRANCH   1   4
ATOM      4  C   UNL d   1     -55.277-101.747 -44.077  0.00  0.00     0.171 C 
BRANCH   4   5
ATOM      5  N   UNL d   1     -55.738-102.162 -44.621  0.00  0.00    -0.257 N 
ATOM      6  C   UNL d   1     -55.492-102.489 -45.335  0.00  0.00     0.266 A 
ATOM      7  O   UNL d   1     -54.720-102.459 -45.643  0.00  0.00    -0.267 OA
ATOM      8  C   UNL d   1     -56.145-102.856 -45.700  0.00  0.00     0.063 A 
ATOM      9  C   UNL d   1     -56.799-102.754 -45.206  0.00  0.00     0.024 A 
ATOM     10  C   UNL d   1     -56.559-102.328 -44.539  0.00  0.00     0.085 A 
ENDBRANCH   4   5
ENDBRANCH   1   4
BRANCH   1  11
ATOM     11  C   UNL d   1     -55.321-100.398 -44.551  0.00  0.00     0.068 A 
ATOM     12  C   UNL d   1     -54.712-100.291 -45.105  0.00  0.00     0.018 A 
ATOM     13  C   UNL d   1     -54.822 -99.756 -45.714  0.00  0.00     0.002 A 
ATOM     14  C   UNL d   1     -55.514 -99.333 -45.783  0.00  0.00     0.000 A 
ATOM     15  C   UNL d   1     -56.114 -99.438 -45.237  0.00  0.00     0.002 A 
ATOM     16  C   UNL d   1     -55.616 -98.796 -46.401  0.00  0.00     0.000 C 
ATOM     17  C   UNL d   1     -56.026 -99.967 -44.619  0.00  0.00     0.018 A 
ENDBRANCH   1  11
BRANCH   2  18
ATOM     18  C   UNL d   1     -54.987-101.200 -42.550  0.00  0.00     0.057 A 
ATOM     19  C   UNL d   1     -54.955-102.003 -42.723  0.00  0.00     0.007 A 
ATOM     20  C   UNL d   1     -54.863-102.550 -42.117  0.00  0.00     0.025 A 
ATOM     21  C   UNL d   1     -54.802-102.288 -41.329  0.00  0.00     0.100 A 
ATOM     22  C   UNL d   1     -54.835-101.487 -41.160  0.00  0.00     0.025 A 
ATOM     23  C   UNL d   1     -54.928-100.927 -41.767  0.00  0.00     0.007 A 
BRANCH  21  24
ATOM     24  O   UNL d   1     -54.711-102.844 -40.742  0.00  0.00    -0.305 OA
BRANCH  24  25
ATOM     25  C   UNL d   1     -55.203-102.850 -40.077  0.00  0.00     0.123 C 
ATOM     26  C   UNL d   1     -56.013-102.753 -40.164  0.00  0.00     0.029 C 
ENDBRANCH  24  25
ENDBRANCH  21  24
ENDBRANCH   2  18
TORSDOF 6
ENDMDL
