MODEL 1
REMARK VINA RESULT:       7.2      0.000      0.000
REMARK  4 active torsions:
REMARK  status: ('A' for Active; 'I' for Inactive)
REMARK    1  A    between atoms: N_10  and  C_3 
REMARK    2  A    between atoms: C_12  and  C_5 
REMARK    3  A    between atoms: C_15  and  C_9 
REMARK    4  A    between atoms: C_19  and  N_11 
ROOT
ATOM      1  N   UNL d   1     -41.831-122.620 -52.179  0.00  0.00    -0.196 N 
ATOM      2  C   UNL d   1     -41.791-122.220 -52.904  0.00  0.00     0.167 A 
ATOM      3  C   UNL d   1     -41.671-122.212 -51.491  0.00  0.00     0.152 A 
ATOM      4  N   UNL d   1     -42.188-123.815 -52.858  0.00  0.00    -0.163 NA
ATOM      5  C   UNL d   1     -41.947-122.615 -53.589  0.00  0.00     0.055 A 
ATOM      6  N   UNL d   1     -41.592-121.427 -52.914  0.00  0.00    -0.227 NA
ATOM      7  C   UNL d   1     -41.467-121.395 -51.513  0.00  0.00     0.057 A 
ATOM      8  C   UNL d   1     -42.148-123.415 -53.583  0.00  0.00     0.104 A 
ATOM      9  C   UNL d   1     -41.435-121.028 -52.227  0.00  0.00     0.086 A 
ATOM     10  C   UNL d   1     -42.303-123.807 -54.266  0.00  0.00     0.023 C 
ENDROOT
BRANCH   3  11
ATOM     11  N   UNL d   1     -41.711-122.619 -50.746  0.00  0.00    -0.286 N 
ATOM     12  C   UNL d   1     -41.122-123.169 -50.473  0.00  0.00     0.101 A 
ATOM     13  C   UNL d   1     -41.211-123.546 -49.724  0.00  0.00     0.100 A 
ATOM     14  N   UNL d   1     -41.887-123.380 -49.236  0.00  0.00    -0.300 N 
ATOM     15  C   UNL d   1     -42.478-122.826 -49.511  0.00  0.00     0.100 A 
ATOM     16  C   UNL d   1     -42.391-122.448 -50.260  0.00  0.00     0.101 A 
BRANCH  14  17
ATOM     17  C   UNL d   1     -41.975-123.759 -48.483  0.00  0.00     0.080 C 
ATOM     18  C   UNL d   1     -42.463-123.415 -47.891  0.00  0.00     0.021 C 
ENDBRANCH  14  17
ENDBRANCH   3  11
BRANCH   9  19
ATOM     19  C   UNL d   1     -41.226-120.195 -52.244  0.00  0.00     0.018 C 
ATOM     20  C   UNL d   1     -41.123-119.771 -51.499  0.00  0.00     0.002 C 
ATOM     21  C   UNL d   1     -41.123-119.790 -52.992  0.00  0.00     0.002 C 
ENDBRANCH   9  19
BRANCH   5  22
ATOM     22  C   UNL d   1     -41.907-122.211 -54.321  0.00  0.00     0.004 A 
ATOM     23  C   UNL d   1     -41.251-122.301 -54.798  0.00  0.00     0.000 A 
ATOM     24  C   UNL d   1     -41.211-121.903 -55.520  0.00  0.00     0.000 A 
ATOM     25  C   UNL d   1     -41.828-121.424 -55.748  0.00  0.00     0.000 A 
ATOM     26  C   UNL d   1     -42.488-121.336 -55.263  0.00  0.00     0.000 A 
ATOM     27  C   UNL d   1     -42.519-121.732 -54.554  0.00  0.00     0.000 A 
ENDBRANCH   5  22
TORSDOF 4
ENDMDL
