MODEL 1
REMARK VINA RESULT:      11.0      0.000      0.000
REMARK  5 active torsions:
REMARK  status: ('A' for Active; 'I' for Inactive)
REMARK    1  A    between atoms: N_2  and  C_7 
REMARK    2  A    between atoms: N_8  and  C_3 
REMARK    3  A    between atoms: C_11  and  C_4 
REMARK    4  A    between atoms: N_9  and  N_8 
REMARK    5  A    between atoms: C_17  and  N_9 
ROOT
ATOM      1  N   UNL d   1      46.162 -16.685  43.766  0.00  0.00    -0.219 NA
ATOM      2  C   UNL d   1      46.107 -17.475  44.014  0.00  0.00     0.215 A 
ATOM      3  C   UNL d   1      45.780 -16.211  44.347  0.00  0.00     0.090 A 
ATOM      4  S   UNL d   1      45.707 -17.486  44.721  0.00  0.00    -0.045 SA
ATOM      5  C   UNL d   1      45.504 -16.709  44.930  0.00  0.00     0.058 A 
ENDROOT
BRANCH   3   6
ATOM      6  C   UNL d   1      45.720 -15.380  44.292  0.00  0.00     0.018 A 
ATOM      7  C   UNL d   1      45.021 -15.004  44.500  0.00  0.00     0.003 A 
ATOM      8  C   UNL d   1      44.954 -14.203  44.450  0.00  0.00     0.024 A 
ATOM      9  C   UNL d   1      45.601 -13.752  44.184  0.00  0.00     0.127 A 
ATOM     10  C   UNL d   1      46.293 -14.119  43.978  0.00  0.00     0.024 A 
ATOM     11  C   UNL d   1      46.359 -14.960  44.032  0.00  0.00     0.003 A 
BRANCH   9  12
ATOM     12  N   UNL d   1      45.549 -12.942  44.128  0.00  0.00    -0.114 N 
ATOM     13  O   UNL d   1      45.747 -12.418  44.726  0.00  0.00    -0.532 OA
ATOM     14  O   UNL d   1      45.291 -12.564  43.466  0.00  0.00    -0.532 OA
ENDBRANCH   9  12
ENDBRANCH   3   6
BRANCH   2  15
ATOM     15  N   UNL d   1      46.400 -18.163  43.631  0.00  0.00    -0.122 NA
BRANCH  15  16
ATOM     16  N   UNL d   1      46.395 -18.189  42.801  0.00  0.00    -0.146 NA
BRANCH  16  17
ATOM     17  C   UNL d   1      46.540 -18.924  42.421  0.00  0.00     0.103 C 
ATOM     18  C   UNL d   1      46.624 -18.938  41.596  0.00  0.00     0.022 C 
ATOM     19  C   UNL d   1      46.598 -19.619  42.862  0.00  0.00     0.022 C 
ENDBRANCH  16  17
ENDBRANCH  15  16
ENDBRANCH   2  15
TORSDOF 5
ENDMDL
MODEL 2
REMARK VINA RESULT:      11.6      2.677      4.816
REMARK  5 active torsions:
REMARK  status: ('A' for Active; 'I' for Inactive)
REMARK    1  A    between atoms: N_2  and  C_7 
REMARK    2  A    between atoms: N_8  and  C_3 
REMARK    3  A    between atoms: C_11  and  C_4 
REMARK    4  A    between atoms: N_9  and  N_8 
REMARK    5  A    between atoms: C_17  and  N_9 
ROOT
ATOM      1  N   UNL d   1      46.171 -15.967  43.880  0.00  0.00    -0.219 NA
ATOM      2  C   UNL d   1      45.888 -15.349  44.357  0.00  0.00     0.215 A 
ATOM      3  C   UNL d   1      45.886 -16.688  44.208  0.00  0.00     0.090 A 
ATOM      4  S   UNL d   1      45.447 -15.677  44.955  0.00  0.00    -0.045 SA
ATOM      5  C   UNL d   1      45.444 -16.503  44.866  0.00  0.00     0.058 A 
ENDROOT
BRANCH   3   6
ATOM      6  C   UNL d   1      46.056 -17.437  43.880  0.00  0.00     0.018 A 
ATOM      7  C   UNL d   1      46.005 -17.551  43.070  0.00  0.00     0.003 A 
ATOM      8  C   UNL d   1      46.166 -18.269  42.744  0.00  0.00     0.024 A 
ATOM      9  C   UNL d   1      46.387 -18.903  43.236  0.00  0.00     0.127 A 
ATOM     10  C   UNL d   1      46.438 -18.795  44.037  0.00  0.00     0.024 A 
ATOM     11  C   UNL d   1      46.268 -18.040  44.375  0.00  0.00     0.003 A 
BRANCH   9  12
ATOM     12  N   UNL d   1      46.553 -19.635  42.922  0.00  0.00    -0.114 N 
ATOM     13  O   UNL d   1      46.645 -19.792  42.123  0.00  0.00    -0.532 OA
ATOM     14  O   UNL d   1      46.647 -20.296  43.374  0.00  0.00    -0.532 OA
ENDBRANCH   9  12
ENDBRANCH   3   6
BRANCH   2  15
ATOM     15  N   UNL d   1      46.014 -14.522  44.268  0.00  0.00    -0.122 NA
BRANCH  15  16
ATOM     16  N   UNL d   1      45.363 -14.011  44.332  0.00  0.00    -0.146 NA
BRANCH  16  17
ATOM     17  C   UNL d   1      45.450 -13.214  44.082  0.00  0.00     0.103 C 
ATOM     18  C   UNL d   1      45.922 -12.703  44.532  0.00  0.00     0.022 C 
ATOM     19  C   UNL d   1      45.072 -12.947  43.398  0.00  0.00     0.022 C 
ENDBRANCH  16  17
ENDBRANCH  15  16
ENDBRANCH   2  15
TORSDOF 5
ENDMDL
