MODEL 1
REMARK VINA RESULT:      15.8      0.000      0.000
REMARK  5 active torsions:
REMARK  status: ('A' for Active; 'I' for Inactive)
REMARK       I    between atoms: C_2  and  N_1 
REMARK    1  A    between atoms: C_10  and  C_2 
REMARK    2  A    between atoms: C_7  and  C_3 
REMARK       I    between atoms: C_5  and  N_8 
REMARK    3  A    between atoms: C_15  and  C_5 
REMARK    4  A    between atoms: N_8  and  C_7 
REMARK    5  A    between atoms: N_9  and  C_10 
ROOT
ATOM      1  N   UNL d   1     -41.790-121.287 -50.943  0.00  0.00    -0.271 N 
ATOM      2  C   UNL d   1     -41.446-120.749 -51.477  0.00  0.00     0.282 C 
ATOM      3  C   UNL d   1     -42.077-121.998 -51.240  0.00  0.00     0.086 A 
ATOM      4  C   UNL d   1     -42.412-122.533 -50.746  0.00  0.00     0.018 A 
ATOM      5  C   UNL d   1     -41.851-121.126 -50.117  0.00  0.00     0.083 A 
ATOM      6  C   UNL d   1     -42.471-122.376 -49.943  0.00  0.00     0.003 A 
ATOM      7  O   UNL d   1     -41.387-120.906 -52.281  0.00  0.00    -0.265 OA
ATOM      8  C   UNL d   1     -42.196-121.683 -49.627  0.00  0.00     0.019 A 
ATOM      9  C   UNL d   1     -42.702-123.251 -51.042  0.00  0.00     0.002 A 
ATOM     10  C   UNL d   1     -42.821-122.936 -49.429  0.00  0.00     0.000 A 
ATOM     11  C   UNL d   1     -43.048-123.807 -50.544  0.00  0.00     0.000 A 
ATOM     12  C   UNL d   1     -43.109-123.645 -49.718  0.00  0.00     0.000 A 
ENDROOT
BRANCH   3  13
ATOM     13  C   UNL d   1     -42.017-122.156 -52.048  0.00  0.00     0.120 C 
BRANCH  13  14
ATOM     14  N   UNL d   1     -41.564-122.793 -52.309  0.00  0.00    -0.205 NA
ATOM     15  C   UNL d   1     -41.571-123.006 -53.121  0.00  0.00     0.279 C 
ATOM     16  O   UNL d   1     -41.125-123.638 -53.396  0.00  0.00    -0.265 OA
BRANCH  15  17
ATOM     17  C   UNL d   1     -42.031-122.572 -53.634  0.00  0.00     0.058 A 
ATOM     18  C   UNL d   1     -42.818-122.726 -53.753  0.00  0.00     0.005 A 
ATOM     19  C   UNL d   1     -43.288-122.290 -54.270  0.00  0.00     0.000 A 
ATOM     20  C   UNL d   1     -42.931-121.654 -54.695  0.00  0.00     0.000 A 
ATOM     21  C   UNL d   1     -42.123-121.491 -54.578  0.00  0.00     0.000 A 
ATOM     22  C   UNL d   1     -41.697-121.945 -54.059  0.00  0.00     0.005 A 
ENDBRANCH  15  17
ENDBRANCH  13  14
ENDBRANCH   3  13
BRANCH   2  23
ATOM     23  C   UNL d   1     -41.143-120.012 -51.205  0.00  0.00     0.142 C 
BRANCH  23  24
ATOM     24  N   UNL d   1     -41.146-119.370 -51.724  0.00  0.00    -0.295 N 
ATOM     25  C   UNL d   1     -41.172-119.519 -52.539  0.00  0.00     0.107 A 
ATOM     26  C   UNL d   1     -41.176-118.890 -53.086  0.00  0.00     0.142 A 
ATOM     27  O   UNL d   1     -41.153-118.117 -52.797  0.00  0.00    -0.300 OA
ATOM     28  C   UNL d   1     -41.126-117.953 -51.975  0.00  0.00     0.142 A 
ATOM     29  C   UNL d   1     -41.123-118.591 -51.440  0.00  0.00     0.107 A 
ENDBRANCH  23  24
ENDBRANCH   2  23
TORSDOF 5
ENDMDL
MODEL 2
REMARK VINA RESULT:      16.5      2.148      3.684
REMARK  5 active torsions:
REMARK  status: ('A' for Active; 'I' for Inactive)
REMARK       I    between atoms: C_2  and  N_1 
REMARK    1  A    between atoms: C_10  and  C_2 
REMARK    2  A    between atoms: C_7  and  C_3 
REMARK       I    between atoms: C_5  and  N_8 
REMARK    3  A    between atoms: C_15  and  C_5 
REMARK    4  A    between atoms: N_8  and  C_7 
REMARK    5  A    between atoms: N_9  and  C_10 
ROOT
ATOM      1  N   UNL d   1     -41.825-123.337 -49.623  0.00  0.00    -0.271 N 
ATOM      2  C   UNL d   1     -41.840-123.192 -50.443  0.00  0.00     0.282 C 
ATOM      3  C   UNL d   1     -42.523-123.240 -49.199  0.00  0.00     0.086 A 
ATOM      4  C   UNL d   1     -42.534-123.374 -48.409  0.00  0.00     0.018 A 
ATOM      5  C   UNL d   1     -41.123-123.579 -49.220  0.00  0.00     0.083 A 
ATOM      6  C   UNL d   1     -41.852-123.609 -48.018  0.00  0.00     0.003 A 
ATOM      7  O   UNL d   1     -42.522-122.957 -50.834  0.00  0.00    -0.265 OA
ATOM      8  C   UNL d   1     -41.153-123.711 -48.413  0.00  0.00     0.019 A 
ATOM      9  C   UNL d   1     -43.236-123.277 -47.979  0.00  0.00     0.002 A 
ATOM     10  C   UNL d   1     -41.866-123.748 -47.193  0.00  0.00     0.000 A 
ATOM     11  C   UNL d   1     -43.259-123.412 -47.168  0.00  0.00     0.000 A 
ATOM     12  C   UNL d   1     -42.557-123.653 -46.765  0.00  0.00     0.000 A 
ENDROOT
BRANCH   3  13
ATOM     13  C   UNL d   1     -43.208-123.004 -49.593  0.00  0.00     0.120 C 
BRANCH  13  14
ATOM     14  N   UNL d   1     -43.812-123.549 -49.726  0.00  0.00    -0.205 NA
ATOM     15  C   UNL d   1     -44.560-123.284 -50.002  0.00  0.00     0.279 C 
ATOM     16  O   UNL d   1     -45.171-123.815 -50.140  0.00  0.00    -0.265 OA
BRANCH  15  17
ATOM     17  C   UNL d   1     -44.669-122.487 -50.130  0.00  0.00     0.058 A 
ATOM     18  C   UNL d   1     -44.911-121.979 -49.547  0.00  0.00     0.005 A 
ATOM     19  C   UNL d   1     -45.023-121.172 -49.672  0.00  0.00     0.000 A 
ATOM     20  C   UNL d   1     -44.877-120.864 -50.444  0.00  0.00     0.000 A 
ATOM     21  C   UNL d   1     -44.628-121.380 -51.047  0.00  0.00     0.000 A 
ATOM     22  C   UNL d   1     -44.531-122.167 -50.882  0.00  0.00     0.005 A 
ENDBRANCH  15  17
ENDBRANCH  13  14
ENDBRANCH   3  13
BRANCH   2  23
ATOM     23  C   UNL d   1     -41.141-123.282 -50.905  0.00  0.00     0.142 C 
BRANCH  23  24
ATOM     24  N   UNL d   1     -41.137-122.979 -51.672  0.00  0.00    -0.295 N 
ATOM     25  C   UNL d   1     -41.128-122.157 -51.774  0.00  0.00     0.107 A 
ATOM     26  C   UNL d   1     -41.124-121.823 -52.538  0.00  0.00     0.142 A 
ATOM     27  O   UNL d   1     -41.127-122.330 -53.189  0.00  0.00    -0.300 OA
ATOM     28  C   UNL d   1     -41.136-123.164 -53.100  0.00  0.00     0.142 A 
ATOM     29  C   UNL d   1     -41.140-123.484 -52.331  0.00  0.00     0.107 A 
ENDBRANCH  23  24
ENDBRANCH   2  23
TORSDOF 5
ENDMDL
MODEL 3
REMARK VINA RESULT:      17.8      1.321      4.108
REMARK  5 active torsions:
REMARK  status: ('A' for Active; 'I' for Inactive)
REMARK       I    between atoms: C_2  and  N_1 
REMARK    1  A    between atoms: C_10  and  C_2 
REMARK    2  A    between atoms: C_7  and  C_3 
REMARK       I    between atoms: C_5  and  N_8 
REMARK    3  A    between atoms: C_15  and  C_5 
REMARK    4  A    between atoms: N_8  and  C_7 
REMARK    5  A    between atoms: N_9  and  C_10 
ROOT
ATOM      1  N   UNL d   1     -41.545-123.029 -52.215  0.00  0.00    -0.271 N 
ATOM      2  C   UNL d   1     -41.356-122.954 -51.408  0.00  0.00     0.282 C 
ATOM      3  C   UNL d   1     -41.517-122.355 -52.684  0.00  0.00     0.086 A 
ATOM      4  C   UNL d   1     -41.695-122.401 -53.464  0.00  0.00     0.018 A 
ATOM      5  C   UNL d   1     -41.762-123.768 -52.561  0.00  0.00     0.083 A 
ATOM      6  C   UNL d   1     -41.906-123.119 -53.800  0.00  0.00     0.003 A 
ATOM      7  O   UNL d   1     -41.145-122.236 -51.071  0.00  0.00    -0.265 OA
ATOM      8  C   UNL d   1     -41.941-123.797 -53.359  0.00  0.00     0.019 A 
ATOM      9  C   UNL d   1     -41.667-121.723 -53.940  0.00  0.00     0.002 A 
ATOM     10  C   UNL d   1     -42.091-123.166 -54.615  0.00  0.00     0.000 A 
ATOM     11  C   UNL d   1     -41.848-121.759 -54.742  0.00  0.00     0.000 A 
ATOM     12  C   UNL d   1     -42.065-122.498 -55.087  0.00  0.00     0.000 A 
ENDROOT
BRANCH   3  13
ATOM     13  C   UNL d   1     -41.305-121.632 -52.346  0.00  0.00     0.120 C 
BRANCH  13  14
ATOM     14  N   UNL d   1     -41.249-121.564 -51.527  0.00  0.00    -0.205 NA
ATOM     15  C   UNL d   1     -41.183-120.804 -51.175  0.00  0.00     0.279 C 
ATOM     16  O   UNL d   1     -41.127-120.720 -50.360  0.00  0.00    -0.265 OA
BRANCH  15  17
ATOM     17  C   UNL d   1     -41.175-120.149 -51.659  0.00  0.00     0.058 A 
ATOM     18  C   UNL d   1     -41.131-120.203 -52.467  0.00  0.00     0.005 A 
ATOM     19  C   UNL d   1     -41.123-119.544 -52.961  0.00  0.00     0.000 A 
ATOM     20  C   UNL d   1     -41.162-118.778 -52.607  0.00  0.00     0.000 A 
ATOM     21  C   UNL d   1     -41.206-118.716 -51.779  0.00  0.00     0.000 A 
ATOM     22  C   UNL d   1     -41.212-119.390 -51.329  0.00  0.00     0.005 A 
ENDBRANCH  15  17
ENDBRANCH  13  14
ENDBRANCH   3  13
BRANCH   2  23
ATOM     23  C   UNL d   1     -41.376-123.627 -50.900  0.00  0.00     0.142 C 
BRANCH  23  24
ATOM     24  N   UNL d   1     -41.749-123.555 -50.168  0.00  0.00    -0.295 N 
ATOM     25  C   UNL d   1     -41.279-123.468 -49.490  0.00  0.00     0.107 A 
ATOM     26  C   UNL d   1     -41.629-123.393 -48.737  0.00  0.00     0.142 A 
ATOM     27  O   UNL d   1     -42.453-123.407 -48.683  0.00  0.00    -0.300 OA
ATOM     28  C   UNL d   1     -42.939-123.494 -49.361  0.00  0.00     0.142 A 
ATOM     29  C   UNL d   1     -42.576-123.568 -50.106  0.00  0.00     0.107 A 
ENDBRANCH  23  24
ENDBRANCH   2  23
TORSDOF 5
ENDMDL
