MODEL 1
REMARK VINA RESULT:      50.1      0.000      0.000
REMARK  5 active torsions:
REMARK  status: ('A' for Active; 'I' for Inactive)
REMARK    1  A    between atoms: C_11  and  N_1 
REMARK    2  A    between atoms: S_8  and  C_4 
REMARK    3  A    between atoms: C_6  and  S_8 
REMARK    4  A    between atoms: C_9  and  C_7 
REMARK    5  A    between atoms: N_10  and  C_13 
ROOT
ATOM      1  N   UNL d   1      45.380 -17.490  39.755  0.00  0.00    -0.241 N 
ATOM      2  C   UNL d   1      44.618 -17.495  39.442  0.00  0.00     0.268 A 
ATOM      3  C   UNL d   1      45.851 -17.034  39.275  0.00  0.00     0.273 A 
ATOM      4  C   UNL d   1      45.377 -16.748  38.651  0.00  0.00     0.092 A 
ATOM      5  C   UNL d   1      44.621 -17.040  38.767  0.00  0.00     0.072 A 
ATOM      6  O   UNL d   1      43.950 -17.882  39.736  0.00  0.00    -0.267 OA
ATOM      7  O   UNL d   1      46.647 -16.879  39.381  0.00  0.00    -0.266 OA
ENDROOT
BRANCH   1   8
ATOM      8  C   UNL d   1      45.594 -17.894  40.445  0.00  0.00     0.070 A 
ATOM      9  C   UNL d   1      45.014 -18.160  40.952  0.00  0.00     0.019 A 
ATOM     10  C   UNL d   1      45.232 -18.571  41.655  0.00  0.00     0.019 A 
ATOM     11  C   UNL d   1      46.019 -18.698  41.820  0.00  0.00     0.064 A 
ATOM     12  C   UNL d   1      46.616 -18.423  41.295  0.00  0.00     0.019 A 
ATOM     13  C   UNL d   1      46.385 -18.020  40.609  0.00  0.00     0.019 A 
BRANCH  11  14
ATOM     14  N   UNL d   1      46.219 -19.099  42.505  0.00  0.00    -0.300 N 
ATOM     15  C   UNL d   1      46.232 -19.939  42.519  0.00  0.00     0.107 A 
ATOM     16  C   UNL d   1      46.437 -20.330  43.220  0.00  0.00     0.142 A 
ATOM     17  O   UNL d   1      46.629 -19.918  43.906  0.00  0.00    -0.300 OA
ATOM     18  C   UNL d   1      46.617 -19.077  43.892  0.00  0.00     0.142 A 
ATOM     19  C   UNL d   1      46.410 -18.682  43.186  0.00  0.00     0.107 A 
ENDBRANCH  11  14
ENDBRANCH   1   8
BRANCH   4  20
ATOM     20  S   UNL d   1      45.606 -16.262  38.024  0.00  0.00    -0.063 SA
BRANCH  20  21
ATOM     21  C   UNL d   1      45.047 -15.943  37.504  0.00  0.00     0.117 A 
ATOM     22  C   UNL d   1      45.253 -15.320  36.999  0.00  0.00     0.088 A 
ATOM     23  C   UNL d   1      44.696 -15.012  36.489  0.00  0.00     0.010 A 
ATOM     24  C   UNL d   1      43.941 -15.309  36.471  0.00  0.00     0.021 A 
ATOM     25  C   UNL d   1      43.723 -15.923  36.964  0.00  0.00     0.100 A 
ATOM     26  N   UNL d   1      44.290 -16.241  37.487  0.00  0.00    -0.237 NA
BRANCH  22  27
ATOM     27  C   UNL d   1      46.024 -15.016  37.015  0.00  0.00     0.213 C 
ATOM     28  O   UNL d   1      46.606 -15.366  36.549  0.00  0.00    -0.644 OA
ATOM     29  O   UNL d   1      46.201 -14.367  37.498  0.00  0.00    -0.644 OA
ENDBRANCH  22  27
ENDBRANCH  20  21
ENDBRANCH   4  20
TORSDOF 5
ENDMDL
