MODEL 1
REMARK VINA RESULT:      -4.5      0.000      0.000
REMARK  6 active torsions:
REMARK  status: ('A' for Active; 'I' for Inactive)
REMARK    1  A    between atoms: C_4  and  C_2 
REMARK       I    between atoms: N_13  and  C_4 
REMARK    2  A    between atoms: O_17  and  C_8 
REMARK    3  A    between atoms: O_18  and  C_9 
REMARK    4  A    between atoms: C_19  and  N_13 
REMARK    5  A    between atoms: C_15  and  C_20 
REMARK    6  A    between atoms: C_20  and  C_19 
ROOT
ATOM      1  C   UNL d   1     -41.979-122.397 -50.573  0.00  0.00     0.102 C 
ENDROOT
BRANCH   1   2
ATOM      2  N   UNL d   1     -42.798-122.385 -50.469  0.00  0.00    -0.205 NA
ATOM      3  C   UNL d   1     -43.135-122.652 -49.755  0.00  0.00     0.299 C 
ATOM      4  O   UNL d   1     -43.958-122.635 -49.661  0.00  0.00    -0.263 OA
BRANCH   3   5
ATOM      5  C   UNL d   1     -42.647-122.934 -49.137  0.00  0.00     0.161 A 
ATOM      6  N   UNL d   1     -42.076-123.501 -49.304  0.00  0.00    -0.140 NA
ATOM      7  N   UNL d   1     -41.597-123.780 -48.703  0.00  0.00    -0.105 NA
ATOM      8  C   UNL d   1     -41.685-123.495 -47.934  0.00  0.00     0.297 A 
ATOM      9  C   UNL d   1     -42.252-122.931 -47.765  0.00  0.00     0.066 A 
ATOM     10  O   UNL d   1     -41.189-123.787 -47.326  0.00  0.00    -0.264 OA
ATOM     11  C   UNL d   1     -42.735-122.649 -48.368  0.00  0.00     0.031 A 
ENDBRANCH   3   5
ENDBRANCH   1   2
BRANCH   1  12
ATOM     12  C   UNL d   1     -41.630-121.925 -51.154  0.00  0.00     0.021 C 
BRANCH  12  13
ATOM     13  C   UNL d   1     -41.538-122.213 -51.918  0.00  0.00     0.004 A 
ATOM     14  C   UNL d   1     -41.743-121.743 -52.555  0.00  0.00     0.026 A 
ATOM     15  C   UNL d   1     -41.651-122.031 -53.323  0.00  0.00     0.116 A 
ATOM     16  C   UNL d   1     -41.353-122.790 -53.445  0.00  0.00     0.116 A 
ATOM     17  C   UNL d   1     -41.146-123.262 -52.800  0.00  0.00     0.026 A 
ATOM     18  C   UNL d   1     -41.239-122.972 -52.041  0.00  0.00     0.002 A 
BRANCH  15  19
ATOM     19  O   UNL d   1     -41.862-121.550 -53.976  0.00  0.00    -0.326 OA
ATOM     20  C   UNL d   1     -42.655-121.441 -54.173  0.00  0.00     0.181 C 
ENDBRANCH  15  19
BRANCH  16  21
ATOM     21  O   UNL d   1     -41.260-123.081 -54.223  0.00  0.00    -0.326 OA
ATOM     22  C   UNL d   1     -41.571-123.817 -54.427  0.00  0.00     0.181 C 
ENDBRANCH  16  21
ENDBRANCH  12  13
ENDBRANCH   1  12
TORSDOF 6
ENDMDL
MODEL 2
REMARK VINA RESULT:      -4.3      1.275      1.782
REMARK  6 active torsions:
REMARK  status: ('A' for Active; 'I' for Inactive)
REMARK    1  A    between atoms: C_4  and  C_2 
REMARK       I    between atoms: N_13  and  C_4 
REMARK    2  A    between atoms: O_17  and  C_8 
REMARK    3  A    between atoms: O_18  and  C_9 
REMARK    4  A    between atoms: C_19  and  N_13 
REMARK    5  A    between atoms: C_15  and  C_20 
REMARK    6  A    between atoms: C_20  and  C_19 
ROOT
ATOM      1  C   UNL d   1     -41.569-122.802 -51.505  0.00  0.00     0.102 C 
ENDROOT
BRANCH   1   2
ATOM      2  N   UNL d   1     -41.194-122.327 -50.945  0.00  0.00    -0.205 NA
ATOM      3  C   UNL d   1     -41.514-122.248 -50.179  0.00  0.00     0.299 C 
ATOM      4  O   UNL d   1     -41.128-121.767 -49.623  0.00  0.00    -0.263 OA
BRANCH   3   5
ATOM      5  C   UNL d   1     -42.217-122.649 -49.971  0.00  0.00     0.161 A 
ATOM      6  N   UNL d   1     -42.941-122.340 -50.209  0.00  0.00    -0.140 NA
ATOM      7  N   UNL d   1     -43.631-122.728 -50.009  0.00  0.00    -0.105 NA
ATOM      8  C   UNL d   1     -43.604-123.426 -49.570  0.00  0.00     0.297 A 
ATOM      9  C   UNL d   1     -42.886-123.736 -49.332  0.00  0.00     0.066 A 
ATOM     10  O   UNL d   1     -44.317-123.817 -49.370  0.00  0.00    -0.264 OA
ATOM     11  C   UNL d   1     -42.190-123.347 -49.532  0.00  0.00     0.031 A 
ENDBRANCH   3   5
ENDBRANCH   1   2
BRANCH   1  12
ATOM     12  C   UNL d   1     -41.123-123.194 -52.079  0.00  0.00     0.021 C 
BRANCH  12  13
ATOM     13  C   UNL d   1     -41.322-123.127 -52.873  0.00  0.00     0.004 A 
ATOM     14  C   UNL d   1     -41.342-122.389 -53.224  0.00  0.00     0.026 A 
ATOM     15  C   UNL d   1     -41.542-122.319 -54.021  0.00  0.00     0.116 A 
ATOM     16  C   UNL d   1     -41.721-122.993 -54.461  0.00  0.00     0.116 A 
ATOM     17  C   UNL d   1     -41.700-123.737 -54.104  0.00  0.00     0.026 A 
ATOM     18  C   UNL d   1     -41.501-123.801 -53.313  0.00  0.00     0.002 A 
BRANCH  15  19
ATOM     19  O   UNL d   1     -41.563-121.562 -54.381  0.00  0.00    -0.326 OA
ATOM     20  C   UNL d   1     -42.032-120.963 -54.062  0.00  0.00     0.181 C 
ENDBRANCH  15  19
BRANCH  16  21
ATOM     21  O   UNL d   1     -41.924-122.923 -55.269  0.00  0.00    -0.326 OA
ATOM     22  C   UNL d   1     -42.681-123.130 -55.523  0.00  0.00     0.181 C 
ENDBRANCH  16  21
ENDBRANCH  12  13
ENDBRANCH   1  12
TORSDOF 6
ENDMDL
MODEL 3
REMARK VINA RESULT:      -3.9      1.533      4.825
REMARK  6 active torsions:
REMARK  status: ('A' for Active; 'I' for Inactive)
REMARK    1  A    between atoms: C_4  and  C_2 
REMARK       I    between atoms: N_13  and  C_4 
REMARK    2  A    between atoms: O_17  and  C_8 
REMARK    3  A    between atoms: O_18  and  C_9 
REMARK    4  A    between atoms: C_19  and  N_13 
REMARK    5  A    between atoms: C_15  and  C_20 
REMARK    6  A    between atoms: C_20  and  C_19 
ROOT
ATOM      1  C   UNL d   1     -41.501-122.431 -52.245  0.00  0.00     0.102 C 
ENDROOT
BRANCH   1   2
ATOM      2  N   UNL d   1     -41.267-123.103 -52.663  0.00  0.00    -0.205 NA
ATOM      3  C   UNL d   1     -41.362-123.137 -53.491  0.00  0.00     0.299 C 
ATOM      4  O   UNL d   1     -41.123-123.817 -53.901  0.00  0.00    -0.263 OA
BRANCH   3   5
ATOM      5  C   UNL d   1     -41.695-122.492 -53.905  0.00  0.00     0.161 A 
ATOM      6  N   UNL d   1     -42.495-122.327 -53.815  0.00  0.00    -0.140 NA
ATOM      7  N   UNL d   1     -42.825-121.697 -54.218  0.00  0.00    -0.105 NA
ATOM      8  C   UNL d   1     -42.359-121.228 -54.712  0.00  0.00     0.297 A 
ATOM      9  C   UNL d   1     -41.563-121.390 -54.803  0.00  0.00     0.066 A 
ATOM     10  O   UNL d   1     -42.707-120.585 -55.120  0.00  0.00    -0.264 OA
ATOM     11  C   UNL d   1     -41.229-122.023 -54.399  0.00  0.00     0.031 A 
ENDBRANCH   3   5
ENDBRANCH   1   2
BRANCH   1  12
ATOM     12  C   UNL d   1     -41.188-122.282 -51.496  0.00  0.00     0.021 C 
BRANCH  12  13
ATOM     13  C   UNL d   1     -41.551-122.595 -50.828  0.00  0.00     0.004 A 
ATOM     14  C   UNL d   1     -42.338-122.430 -50.681  0.00  0.00     0.026 A 
ATOM     15  C   UNL d   1     -42.704-122.743 -50.011  0.00  0.00     0.116 A 
ATOM     16  C   UNL d   1     -42.276-123.221 -49.493  0.00  0.00     0.116 A 
ATOM     17  C   UNL d   1     -41.481-123.385 -49.644  0.00  0.00     0.026 A 
ATOM     18  C   UNL d   1     -41.123-123.073 -50.310  0.00  0.00     0.002 A 
BRANCH  15  19
ATOM     19  O   UNL d   1     -43.511-122.574 -49.860  0.00  0.00    -0.326 OA
ATOM     20  C   UNL d   1     -43.869-121.915 -50.203  0.00  0.00     0.181 C 
ENDBRANCH  15  19
BRANCH  16  21
ATOM     21  O   UNL d   1     -42.647-123.538 -48.814  0.00  0.00    -0.326 OA
ATOM     22  C   UNL d   1     -42.234-123.578 -48.101  0.00  0.00     0.181 C 
ENDBRANCH  16  21
ENDBRANCH  12  13
ENDBRANCH   1  12
TORSDOF 6
ENDMDL
