MODEL 1
REMARK VINA RESULT:      -6.3      0.000      0.000
REMARK  5 active torsions:
REMARK  status: ('A' for Active; 'I' for Inactive)
REMARK    1  A    between atoms: S_2  and  C_1 
REMARK    2  A    between atoms: C_5  and  C_1 
REMARK    3  A    between atoms: C_10  and  S_2 
REMARK       I    between atoms: N_9  and  C_5 
REMARK    4  A    between atoms: C_19  and  N_9 
REMARK    5  A    between atoms: C_18  and  C_19 
ROOT
ATOM      1  C   UNL d   1      58.417   0.202  30.141  0.00  0.00     0.277 C 
ATOM      2  N   UNL d   1      57.749   0.013  30.604  0.00  0.00    -0.209 NA
ATOM      3  O   UNL d   1      59.015   0.677  30.472  0.00  0.00    -0.268 OA
ENDROOT
BRANCH   1   4
ATOM      4  C   UNL d   1      58.492  -0.072  29.366  0.00  0.00     0.207 A 
ATOM      5  C   UNL d   1      58.569  -0.347  28.600  0.00  0.00    -0.001 A 
ATOM      6  C   UNL d   1      58.175   0.368  28.734  0.00  0.00    -0.001 A 
BRANCH   4   7
ATOM      7  S   UNL d   1      58.881  -0.782  29.212  0.00  0.00     0.203 S 
ATOM      8  O   UNL d   1      59.615  -0.414  29.420  0.00  0.00    -0.221 OA
ATOM      9  O   UNL d   1      58.165  -1.126  29.015  0.00  0.00    -0.221 OA
BRANCH   7  10
ATOM     10  C   UNL d   1      59.281  -1.486  29.062  0.00  0.00     0.085 A 
ATOM     11  C   UNL d   1      58.854  -2.190  29.007  0.00  0.00     0.011 A 
ATOM     12  C   UNL d   1      59.243  -2.897  28.858  0.00  0.00     0.001 A 
ATOM     13  C   UNL d   1      60.071  -2.905  28.762  0.00  0.00     0.000 A 
ATOM     14  C   UNL d   1      60.494  -2.201  28.818  0.00  0.00     0.001 A 
ATOM     15  C   UNL d   1      60.108  -1.497  28.966  0.00  0.00     0.011 A 
ENDBRANCH   7  10
ENDBRANCH   4   7
ENDBRANCH   1   4
BRANCH   2  16
ATOM     16  C   UNL d   1      57.677   0.297  31.398  0.00  0.00     0.102 C 
BRANCH  16  17
ATOM     17  C   UNL d   1      57.033   0.033  31.878  0.00  0.00     0.021 A 
ATOM     18  C   UNL d   1      56.608   0.577  32.323  0.00  0.00     0.028 A 
ATOM     19  C   UNL d   1      55.977   0.305  32.791  0.00  0.00     0.119 A 
ATOM     20  O   UNL d   1      55.455   0.682  33.285  0.00  0.00    -0.300 OA
ATOM     21  C   UNL d   1      55.788  -0.505  32.800  0.00  0.00     0.119 A 
ATOM     22  C   UNL d   1      54.960   0.120  33.590  0.00  0.00     0.304 A 
ATOM     23  O   UNL d   1      55.158  -0.594  33.300  0.00  0.00    -0.300 OA
ATOM     24  C   UNL d   1      56.234  -1.030  32.342  0.00  0.00     0.026 A 
ATOM     25  C   UNL d   1      56.853  -0.740  31.887  0.00  0.00     0.004 A 
ENDBRANCH  16  17
ENDBRANCH   2  16
TORSDOF 5
ENDMDL
MODEL 2
REMARK VINA RESULT:      -5.4      1.048      1.584
REMARK  5 active torsions:
REMARK  status: ('A' for Active; 'I' for Inactive)
REMARK    1  A    between atoms: S_2  and  C_1 
REMARK    2  A    between atoms: C_5  and  C_1 
REMARK    3  A    between atoms: C_10  and  S_2 
REMARK       I    between atoms: N_9  and  C_5 
REMARK    4  A    between atoms: C_19  and  N_9 
REMARK    5  A    between atoms: C_18  and  C_19 
ROOT
ATOM      1  C   UNL d   1      57.720  -0.427  30.508  0.00  0.00     0.277 C 
ATOM      2  N   UNL d   1      57.403  -0.107  31.211  0.00  0.00    -0.209 NA
ATOM      3  O   UNL d   1      57.709  -1.253  30.401  0.00  0.00    -0.268 OA
ENDROOT
BRANCH   1   4
ATOM      4  C   UNL d   1      58.041   0.058  29.923  0.00  0.00     0.207 A 
ATOM      5  C   UNL d   1      58.362   0.537  29.344  0.00  0.00    -0.001 A 
ATOM      6  C   UNL d   1      57.590   0.682  29.603  0.00  0.00    -0.001 A 
BRANCH   4   7
ATOM      7  S   UNL d   1      58.808  -0.070  29.651  0.00  0.00     0.203 S 
ATOM      8  O   UNL d   1      59.096   0.470  30.237  0.00  0.00    -0.221 OA
ATOM      9  O   UNL d   1      58.517  -0.589  29.090  0.00  0.00    -0.221 OA
BRANCH   7  10
ATOM     10  C   UNL d   1      59.580  -0.189  29.390  0.00  0.00     0.085 A 
ATOM     11  C   UNL d   1      60.196   0.229  29.745  0.00  0.00     0.011 A 
ATOM     12  C   UNL d   1      60.969   0.119  29.492  0.00  0.00     0.001 A 
ATOM     13  C   UNL d   1      61.132  -0.417  28.875  0.00  0.00     0.000 A 
ATOM     14  C   UNL d   1      60.515  -0.833  28.523  0.00  0.00     0.001 A 
ATOM     15  C   UNL d   1      59.746  -0.724  28.774  0.00  0.00     0.011 A 
ENDBRANCH   7  10
ENDBRANCH   4   7
ENDBRANCH   1   4
BRANCH   2  16
ATOM     16  C   UNL d   1      57.075  -0.609  31.808  0.00  0.00     0.102 C 
BRANCH  16  17
ATOM     17  C   UNL d   1      56.702  -0.265  32.483  0.00  0.00     0.021 A 
ATOM     18  C   UNL d   1      55.911  -0.425  32.638  0.00  0.00     0.028 A 
ATOM     19  C   UNL d   1      55.556  -0.080  33.305  0.00  0.00     0.119 A 
ATOM     20  O   UNL d   1      54.806  -0.120  33.613  0.00  0.00    -0.300 OA
ATOM     21  C   UNL d   1      56.003   0.417  33.801  0.00  0.00     0.119 A 
ATOM     22  C   UNL d   1      54.792   0.339  34.278  0.00  0.00     0.304 A 
ATOM     23  O   UNL d   1      55.509   0.662  34.394  0.00  0.00    -0.300 OA
ATOM     24  C   UNL d   1      56.797   0.560  33.621  0.00  0.00     0.026 A 
ATOM     25  C   UNL d   1      57.128   0.210  32.956  0.00  0.00     0.004 A 
ENDBRANCH  16  17
ENDBRANCH   2  16
TORSDOF 5
ENDMDL
MODEL 3
REMARK VINA RESULT:      -4.8      1.876      5.409
REMARK  5 active torsions:
REMARK  status: ('A' for Active; 'I' for Inactive)
REMARK    1  A    between atoms: S_2  and  C_1 
REMARK    2  A    between atoms: C_5  and  C_1 
REMARK    3  A    between atoms: C_10  and  S_2 
REMARK       I    between atoms: N_9  and  C_5 
REMARK    4  A    between atoms: C_19  and  N_9 
REMARK    5  A    between atoms: C_18  and  C_19 
ROOT
ATOM      1  C   UNL d   1      57.216   0.079  32.431  0.00  0.00     0.277 C 
ATOM      2  N   UNL d   1      57.443   0.187  31.636  0.00  0.00    -0.209 NA
ATOM      3  O   UNL d   1      57.662   0.444  33.031  0.00  0.00    -0.268 OA
ENDROOT
BRANCH   1   4
ATOM      4  C   UNL d   1      56.560  -0.382  32.630  0.00  0.00     0.207 A 
ATOM      5  C   UNL d   1      55.910  -0.835  32.829  0.00  0.00    -0.001 A 
ATOM      6  C   UNL d   1      56.446  -1.125  32.271  0.00  0.00    -0.001 A 
BRANCH   4   7
ATOM      7  S   UNL d   1      56.014  -0.111  33.184  0.00  0.00     0.203 S 
ATOM      8  O   UNL d   1      56.353  -0.632  33.760  0.00  0.00    -0.221 OA
ATOM      9  O   UNL d   1      55.696   0.389  32.620  0.00  0.00    -0.221 OA
BRANCH   7  10
ATOM     10  C   UNL d   1      55.474   0.152  33.748  0.00  0.00     0.085 A 
ATOM     11  C   UNL d   1      55.749   0.402  34.485  0.00  0.00     0.011 A 
ATOM     12  C   UNL d   1      55.220   0.666  35.054  0.00  0.00     0.001 A 
ATOM     13  C   UNL d   1      54.404   0.682  34.888  0.00  0.00     0.000 A 
ATOM     14  C   UNL d   1      54.133   0.432  34.152  0.00  0.00     0.001 A 
ATOM     15  C   UNL d   1      54.658   0.169  33.585  0.00  0.00     0.011 A 
ENDBRANCH   7  10
ENDBRANCH   4   7
ENDBRANCH   1   4
BRANCH   2  16
ATOM     16  C   UNL d   1      58.116   0.660  31.437  0.00  0.00     0.102 C 
BRANCH  16  17
ATOM     17  C   UNL d   1      58.433   0.626  30.655  0.00  0.00     0.021 A 
ATOM     18  C   UNL d   1      59.243   0.537  30.547  0.00  0.00     0.028 A 
ATOM     19  C   UNL d   1      59.542   0.505  29.772  0.00  0.00     0.119 A 
ATOM     20  O   UNL d   1      60.293   0.422  29.474  0.00  0.00    -0.300 OA
ATOM     21  C   UNL d   1      59.022   0.563  29.125  0.00  0.00     0.119 A 
ATOM     22  C   UNL d   1      60.236   0.429  28.668  0.00  0.00     0.304 A 
ATOM     23  O   UNL d   1      59.474   0.514  28.455  0.00  0.00    -0.300 OA
ATOM     24  C   UNL d   1      58.212   0.653  29.264  0.00  0.00     0.026 A 
ATOM     25  C   UNL d   1      57.937   0.682  30.037  0.00  0.00     0.004 A 
ENDBRANCH  16  17
ENDBRANCH   2  16
TORSDOF 5
ENDMDL
