MODEL 1
REMARK VINA RESULT:      -8.6      0.000      0.000
REMARK  4 active torsions:
REMARK  status: ('A' for Active; 'I' for Inactive)
REMARK    1  A    between atoms: N_2  and  S_1 
REMARK    2  A    between atoms: C_6  and  S_1 
REMARK    3  A    between atoms: O_17  and  C_12 
REMARK    4  A    between atoms: C_19  and  O_17 
ROOT
ATOM      1  S   UNL d   1     -48.649  13.171  22.717  0.00  0.00     0.271 S 
ATOM      2  O   UNL d   1     -48.229  13.635  22.171  0.00  0.00    -0.200 OA
ATOM      3  O   UNL d   1     -49.067  12.710  23.260  0.00  0.00    -0.200 OA
ENDROOT
BRANCH   1   4
ATOM      4  N   UNL d   1     -49.358  13.532  22.478  0.00  0.00    -0.232 N 
ATOM      5  C   UNL d   1     -49.871  13.254  21.892  0.00  0.00     0.075 A 
ATOM      6  C   UNL d   1     -50.505  13.777  21.832  0.00  0.00     0.020 A 
ATOM      7  C   UNL d   1     -49.763  12.567  21.444  0.00  0.00     0.020 C 
ATOM      8  C   UNL d   1     -50.383  14.384  22.386  0.00  0.00     0.018 A 
ATOM      9  C   UNL d   1     -49.676  14.228  22.781  0.00  0.00     0.075 A 
ATOM     10  C   UNL d   1     -50.823  15.053  22.578  0.00  0.00     0.002 A 
ATOM     11  C   UNL d   1     -49.408  14.745  23.371  0.00  0.00     0.018 A 
ATOM     12  C   UNL d   1     -49.848  15.411  23.561  0.00  0.00     0.002 A 
ATOM     13  C   UNL d   1     -50.555  15.569  23.168  0.00  0.00     0.000 A 
ENDBRANCH   1   4
BRANCH   1  14
ATOM     14  C   UNL d   1     -47.944  12.812  22.955  0.00  0.00     0.104 A 
ATOM     15  C   UNL d   1     -47.219  13.111  22.688  0.00  0.00     0.015 A 
ATOM     16  C   UNL d   1     -46.518  12.754  22.925  0.00  0.00     0.025 A 
ATOM     17  C   UNL d   1     -46.533  12.094  23.432  0.00  0.00     0.100 A 
ATOM     18  C   UNL d   1     -47.262  11.802  23.694  0.00  0.00     0.025 A 
ATOM     19  C   UNL d   1     -47.964  12.159  23.458  0.00  0.00     0.015 A 
BRANCH  17  20
ATOM     20  O   UNL d   1     -45.831  11.737  23.669  0.00  0.00    -0.305 OA
BRANCH  20  21
ATOM     21  C   UNL d   1     -45.766  10.919  23.668  0.00  0.00     0.123 C 
ATOM     22  C   UNL d   1     -45.023  10.565  23.695  0.00  0.00     0.029 C 
ENDBRANCH  20  21
ENDBRANCH  17  20
ENDBRANCH   1  14
TORSDOF 4
ENDMDL
MODEL 2
REMARK VINA RESULT:      -8.4      0.724      1.548
REMARK  4 active torsions:
REMARK  status: ('A' for Active; 'I' for Inactive)
REMARK    1  A    between atoms: N_2  and  S_1 
REMARK    2  A    between atoms: C_6  and  S_1 
REMARK    3  A    between atoms: O_17  and  C_12 
REMARK    4  A    between atoms: C_19  and  O_17 
ROOT
ATOM      1  S   UNL d   1     -48.158  13.383  22.679  0.00  0.00     0.271 S 
ATOM      2  O   UNL d   1     -48.416  13.373  23.468  0.00  0.00    -0.200 OA
ATOM      3  O   UNL d   1     -47.900  13.393  21.894  0.00  0.00    -0.200 OA
ENDROOT
BRANCH   1   4
ATOM      4  N   UNL d   1     -48.823  13.834  22.466  0.00  0.00    -0.232 N 
ATOM      5  C   UNL d   1     -48.897  14.654  22.536  0.00  0.00     0.075 A 
ATOM      6  C   UNL d   1     -49.643  14.872  22.263  0.00  0.00     0.020 A 
ATOM      7  C   UNL d   1     -48.318  15.166  22.832  0.00  0.00     0.020 C 
ATOM      8  C   UNL d   1     -50.034  14.180  22.022  0.00  0.00     0.018 A 
ATOM      9  C   UNL d   1     -49.525  13.544  22.149  0.00  0.00     0.075 A 
ATOM     10  C   UNL d   1     -50.783  14.051  21.705  0.00  0.00     0.002 A 
ATOM     11  C   UNL d   1     -49.767  12.775  21.958  0.00  0.00     0.018 A 
ATOM     12  C   UNL d   1     -50.513  12.648  21.642  0.00  0.00     0.002 A 
ATOM     13  C   UNL d   1     -51.024  13.282  21.514  0.00  0.00     0.000 A 
ENDBRANCH   1   4
BRANCH   1  14
ATOM     14  C   UNL d   1     -47.496  12.936  22.890  0.00  0.00     0.104 A 
ATOM     15  C   UNL d   1     -46.775  13.057  22.500  0.00  0.00     0.015 A 
ATOM     16  C   UNL d   1     -46.117  12.611  22.710  0.00  0.00     0.025 A 
ATOM     17  C   UNL d   1     -46.172  12.040  23.313  0.00  0.00     0.100 A 
ATOM     18  C   UNL d   1     -46.897  11.926  23.698  0.00  0.00     0.025 A 
ATOM     19  C   UNL d   1     -47.555  12.371  23.488  0.00  0.00     0.015 A 
BRANCH  17  20
ATOM     20  O   UNL d   1     -45.514  11.594  23.523  0.00  0.00    -0.305 OA
BRANCH  20  21
ATOM     21  C   UNL d   1     -45.577  10.780  23.604  0.00  0.00     0.123 C 
ATOM     22  C   UNL d   1     -44.900  10.321  23.698  0.00  0.00     0.029 C 
ENDBRANCH  20  21
ENDBRANCH  17  20
ENDBRANCH   1  14
TORSDOF 4
ENDMDL
MODEL 3
REMARK VINA RESULT:      -8.2      1.504      2.068
REMARK  4 active torsions:
REMARK  status: ('A' for Active; 'I' for Inactive)
REMARK    1  A    between atoms: N_2  and  S_1 
REMARK    2  A    between atoms: C_6  and  S_1 
REMARK    3  A    between atoms: O_17  and  C_12 
REMARK    4  A    between atoms: C_19  and  O_17 
ROOT
ATOM      1  S   UNL d   1     -48.389  13.592  22.732  0.00  0.00     0.271 S 
ATOM      2  O   UNL d   1     -48.503  13.321  21.955  0.00  0.00    -0.200 OA
ATOM      3  O   UNL d   1     -48.276  13.861  23.504  0.00  0.00    -0.200 OA
ENDROOT
BRANCH   1   4
ATOM      4  N   UNL d   1     -49.212  13.623  22.842  0.00  0.00    -0.232 N 
ATOM      5  C   UNL d   1     -49.702  14.266  22.669  0.00  0.00     0.075 A 
ATOM      6  C   UNL d   1     -50.476  14.062  22.861  0.00  0.00     0.020 A 
ATOM      7  C   UNL d   1     -49.452  14.990  22.355  0.00  0.00     0.020 C 
ATOM      8  C   UNL d   1     -50.466  13.285  23.156  0.00  0.00     0.018 A 
ATOM      9  C   UNL d   1     -49.685  13.020  23.142  0.00  0.00     0.075 A 
ATOM     10  C   UNL d   1     -51.064  12.792  23.433  0.00  0.00     0.002 A 
ATOM     11  C   UNL d   1     -49.502  12.256  23.406  0.00  0.00     0.018 A 
ATOM     12  C   UNL d   1     -50.100  11.766  23.682  0.00  0.00     0.002 A 
ATOM     13  C   UNL d   1     -50.881  12.028  23.697  0.00  0.00     0.000 A 
ENDBRANCH   1   4
BRANCH   1  14
ATOM     14  C   UNL d   1     -47.571  13.561  22.622  0.00  0.00     0.104 A 
ATOM     15  C   UNL d   1     -47.072  13.995  23.122  0.00  0.00     0.015 A 
ATOM     16  C   UNL d   1     -46.258  13.964  23.014  0.00  0.00     0.025 A 
ATOM     17  C   UNL d   1     -45.932  13.500  22.404  0.00  0.00     0.100 A 
ATOM     18  C   UNL d   1     -46.438  13.070  21.909  0.00  0.00     0.025 A 
ATOM     19  C   UNL d   1     -47.253  13.101  22.017  0.00  0.00     0.015 A 
BRANCH  17  20
ATOM     20  O   UNL d   1     -45.118  13.470  22.295  0.00  0.00    -0.305 OA
BRANCH  20  21
ATOM     21  C   UNL d   1     -44.789  12.896  21.810  0.00  0.00     0.123 C 
ATOM     22  C   UNL d   1     -43.980  12.897  21.660  0.00  0.00     0.029 C 
ENDBRANCH  20  21
ENDBRANCH  17  20
ENDBRANCH   1  14
TORSDOF 4
ENDMDL
MODEL 4
REMARK VINA RESULT:      -6.0      1.459      4.453
REMARK  4 active torsions:
REMARK  status: ('A' for Active; 'I' for Inactive)
REMARK    1  A    between atoms: N_2  and  S_1 
REMARK    2  A    between atoms: C_6  and  S_1 
REMARK    3  A    between atoms: O_17  and  C_12 
REMARK    4  A    between atoms: C_19  and  O_17 
ROOT
ATOM      1  S   UNL d   1     -47.267  13.275  22.864  0.00  0.00     0.271 S 
ATOM      2  O   UNL d   1     -47.021  13.610  23.584  0.00  0.00    -0.200 OA
ATOM      3  O   UNL d   1     -47.510  12.941  22.149  0.00  0.00    -0.200 OA
ENDROOT
BRANCH   1   4
ATOM      4  N   UNL d   1     -46.640  12.730  22.905  0.00  0.00    -0.232 N 
ATOM      5  C   UNL d   1     -46.660  11.995  23.284  0.00  0.00     0.075 A 
ATOM      6  C   UNL d   1     -45.925  11.635  23.190  0.00  0.00     0.020 A 
ATOM      7  C   UNL d   1     -47.309  11.679  23.687  0.00  0.00     0.020 C 
ATOM      8  C   UNL d   1     -45.446  12.152  22.749  0.00  0.00     0.018 A 
ATOM      9  C   UNL d   1     -45.892  12.824  22.576  0.00  0.00     0.075 A 
ATOM     10  C   UNL d   1     -44.668  12.095  22.486  0.00  0.00     0.002 A 
ATOM     11  C   UNL d   1     -45.557  13.442  22.138  0.00  0.00     0.018 A 
ATOM     12  C   UNL d   1     -44.781  13.383  21.877  0.00  0.00     0.002 A 
ATOM     13  C   UNL d   1     -44.333  12.713  22.048  0.00  0.00     0.000 A 
ENDBRANCH   1   4
BRANCH   1  14
ATOM     14  C   UNL d   1     -47.889  13.816  22.824  0.00  0.00     0.104 A 
ATOM     15  C   UNL d   1     -47.732  14.611  22.650  0.00  0.00     0.015 A 
ATOM     16  C   UNL d   1     -48.352  15.150  22.609  0.00  0.00     0.025 A 
ATOM     17  C   UNL d   1     -49.135  14.901  22.742  0.00  0.00     0.100 A 
ATOM     18  C   UNL d   1     -49.282  14.104  22.916  0.00  0.00     0.025 A 
ATOM     19  C   UNL d   1     -48.663  13.565  22.956  0.00  0.00     0.015 A 
BRANCH  17  20
ATOM     20  O   UNL d   1     -49.754  15.440  22.702  0.00  0.00    -0.305 OA
BRANCH  20  21
ATOM     21  C   UNL d   1     -50.041  15.789  23.387  0.00  0.00     0.123 C 
ATOM     22  C   UNL d   1     -50.852  15.841  23.515  0.00  0.00     0.029 C 
ENDBRANCH  20  21
ENDBRANCH  17  20
ENDBRANCH   1  14
TORSDOF 4
ENDMDL
MODEL 5
REMARK VINA RESULT:      -5.9      9.066     10.320
REMARK  4 active torsions:
REMARK  status: ('A' for Active; 'I' for Inactive)
REMARK    1  A    between atoms: N_2  and  S_1 
REMARK    2  A    between atoms: C_6  and  S_1 
REMARK    3  A    between atoms: O_17  and  C_12 
REMARK    4  A    between atoms: C_19  and  O_17 
ROOT
ATOM      1  S   UNL d   1     -39.801  15.066  18.938  0.00  0.00     0.271 S 
ATOM      2  O   UNL d   1     -40.325  14.432  19.056  0.00  0.00    -0.200 OA
ATOM      3  O   UNL d   1     -39.280  15.696  18.820  0.00  0.00    -0.200 OA
ENDROOT
BRANCH   1   4
ATOM      4  N   UNL d   1     -39.823  14.931  18.118  0.00  0.00    -0.232 N 
ATOM      5  C   UNL d   1     -40.354  15.272  17.583  0.00  0.00     0.075 A 
ATOM      6  C   UNL d   1     -40.182  14.989  16.830  0.00  0.00     0.020 A 
ATOM      7  C   UNL d   1     -40.955  15.806  17.777  0.00  0.00     0.020 C 
ATOM      8  C   UNL d   1     -39.538  14.468  16.898  0.00  0.00     0.018 A 
ATOM      9  C   UNL d   1     -39.321  14.437  17.693  0.00  0.00     0.075 A 
ATOM     10  C   UNL d   1     -39.126  14.023  16.341  0.00  0.00     0.002 A 
ATOM     11  C   UNL d   1     -38.689  13.957  17.931  0.00  0.00     0.018 A 
ATOM     12  C   UNL d   1     -38.279  13.515  17.375  0.00  0.00     0.002 A 
ATOM     13  C   UNL d   1     -38.493  13.544  16.580  0.00  0.00     0.000 A 
ENDBRANCH   1   4
BRANCH   1  14
ATOM     14  C   UNL d   1     -39.779  15.200  19.752  0.00  0.00     0.104 A 
ATOM     15  C   UNL d   1     -39.285  15.789  20.060  0.00  0.00     0.015 A 
ATOM     16  C   UNL d   1     -39.263  15.922  20.871  0.00  0.00     0.025 A 
ATOM     17  C   UNL d   1     -39.736  15.467  21.384  0.00  0.00     0.100 A 
ATOM     18  C   UNL d   1     -40.228  14.881  21.068  0.00  0.00     0.025 A 
ATOM     19  C   UNL d   1     -40.249  14.748  20.257  0.00  0.00     0.015 A 
BRANCH  17  20
ATOM     20  O   UNL d   1     -39.715  15.601  22.195  0.00  0.00    -0.305 OA
BRANCH  20  21
ATOM     21  C   UNL d   1     -38.996  15.613  22.590  0.00  0.00     0.123 C 
ATOM     22  C   UNL d   1     -38.966  15.831  23.384  0.00  0.00     0.029 C 
ENDBRANCH  20  21
ENDBRANCH  17  20
ENDBRANCH   1  14
TORSDOF 4
ENDMDL
MODEL 6
REMARK VINA RESULT:      -5.9      9.007     10.519
REMARK  4 active torsions:
REMARK  status: ('A' for Active; 'I' for Inactive)
REMARK    1  A    between atoms: N_2  and  S_1 
REMARK    2  A    between atoms: C_6  and  S_1 
REMARK    3  A    between atoms: O_17  and  C_12 
REMARK    4  A    between atoms: C_19  and  O_17 
ROOT
ATOM      1  S   UNL d   1     -39.547  14.789  19.160  0.00  0.00     0.271 S 
ATOM      2  O   UNL d   1     -40.106  14.176  19.105  0.00  0.00    -0.200 OA
ATOM      3  O   UNL d   1     -38.991  15.398  19.215  0.00  0.00    -0.200 OA
ENDROOT
BRANCH   1   4
ATOM      4  N   UNL d   1     -39.756  14.908  19.955  0.00  0.00    -0.232 N 
ATOM      5  C   UNL d   1     -40.335  15.429  20.233  0.00  0.00     0.075 A 
ATOM      6  C   UNL d   1     -40.363  15.374  21.054  0.00  0.00     0.020 A 
ATOM      7  C   UNL d   1     -40.805  15.921  19.761  0.00  0.00     0.020 C 
ATOM      8  C   UNL d   1     -39.796  14.813  21.287  0.00  0.00     0.018 A 
ATOM      9  C   UNL d   1     -39.425  14.529  20.607  0.00  0.00     0.075 A 
ATOM     10  C   UNL d   1     -39.573  14.528  22.027  0.00  0.00     0.002 A 
ATOM     11  C   UNL d   1     -38.829  13.958  20.668  0.00  0.00     0.018 A 
ATOM     12  C   UNL d   1     -38.608  13.675  21.406  0.00  0.00     0.002 A 
ATOM     13  C   UNL d   1     -38.976  13.956  22.087  0.00  0.00     0.000 A 
ENDBRANCH   1   4
BRANCH   1  14
ATOM     14  C   UNL d   1     -39.339  14.670  18.369  0.00  0.00     0.104 A 
ATOM     15  C   UNL d   1     -38.760  15.149  18.019  0.00  0.00     0.015 A 
ATOM     16  C   UNL d   1     -38.553  15.031  17.233  0.00  0.00     0.025 A 
ATOM     17  C   UNL d   1     -38.922  14.433  16.786  0.00  0.00     0.100 A 
ATOM     18  C   UNL d   1     -39.500  13.959  17.144  0.00  0.00     0.025 A 
ATOM     19  C   UNL d   1     -39.707  14.077  17.931  0.00  0.00     0.015 A 
BRANCH  17  20
ATOM     20  O   UNL d   1     -38.715  14.315  16.000  0.00  0.00    -0.305 OA
BRANCH  20  21
ATOM     21  C   UNL d   1     -38.129  13.775  15.805  0.00  0.00     0.123 C 
ATOM     22  C   UNL d   1     -37.942  13.635  15.016  0.00  0.00     0.029 C 
ENDBRANCH  20  21
ENDBRANCH  17  20
ENDBRANCH   1  14
TORSDOF 4
ENDMDL
