MODEL 1
REMARK VINA RESULT:       1.3      0.000      0.000
REMARK  3 active torsions:
REMARK  status: ('A' for Active; 'I' for Inactive)
REMARK    1  A    between atoms: N_7  and  C_1 
REMARK       I    between atoms: C_11  and  N_6 
REMARK       I    between atoms: C_10  and  N_7 
REMARK    2  A    between atoms: C_17  and  C_10 
REMARK    3  A    between atoms: C_14  and  C_17 
ROOT
ATOM      1  C   UNL d   1     -42.276-121.534 -50.659  0.00  0.00     0.124 A 
ATOM      2  C   UNL d   1     -42.949-121.963 -50.452  0.00  0.00     0.093 A 
ATOM      3  C   UNL d   1     -42.036-122.173 -49.502  0.00  0.00     0.049 A 
ATOM      4  C   UNL d   1     -42.801-122.357 -49.738  0.00  0.00     0.021 A 
ATOM      5  S   UNL d   1     -41.700-121.661 -50.070  0.00  0.00    -0.066 SA
ATOM      6  N   UNL d   1     -42.196-122.992 -48.338  0.00  0.00    -0.272 N 
ATOM      7  C   UNL d   1     -41.731-122.488 -48.803  0.00  0.00     0.089 A 
ATOM      8  C   UNL d   1     -43.650-121.993 -50.885  0.00  0.00     0.103 C 
ATOM      9  C   UNL d   1     -41.892-123.312 -47.634  0.00  0.00     0.265 C 
ATOM     10  N   UNL d   1     -44.352-122.020 -51.321  0.00  0.00    -0.191 NA
ATOM     11  C   UNL d   1     -43.269-122.857 -49.280  0.00  0.00     0.020 A 
ATOM     12  C   UNL d   1     -42.966-123.177 -48.576  0.00  0.00     0.083 A 
ATOM     13  O   UNL d   1     -41.123-123.127 -47.395  0.00  0.00    -0.267 OA
ATOM     14  C   UNL d   1     -42.358-123.816 -47.168  0.00  0.00     0.066 C 
ENDROOT
BRANCH   1  15
ATOM     15  N   UNL d   1     -42.175-121.064 -51.321  0.00  0.00    -0.201 NA
ATOM     16  C   UNL d   1     -41.772-121.366 -51.970  0.00  0.00     0.280 C 
ATOM     17  O   UNL d   1     -41.667-120.889 -52.647  0.00  0.00    -0.265 OA
BRANCH  16  18
ATOM     18  C   UNL d   1     -41.470-122.130 -51.968  0.00  0.00     0.062 C 
BRANCH  18  19
ATOM     19  C   UNL d   1     -41.384-122.552 -52.670  0.00  0.00     0.005 A 
ATOM     20  C   UNL d   1     -41.243-123.374 -52.650  0.00  0.00     0.000 A 
ATOM     21  C   UNL d   1     -41.158-123.788 -53.361  0.00  0.00     0.000 A 
ATOM     22  C   UNL d   1     -41.192-123.758 -51.922  0.00  0.00     0.000 C 
ATOM     23  C   UNL d   1     -41.210-123.403 -54.085  0.00  0.00     0.000 A 
ATOM     24  C   UNL d   1     -41.349-122.590 -54.105  0.00  0.00     0.000 A 
ATOM     25  C   UNL d   1     -41.126-123.817 -54.788  0.00  0.00     0.000 C 
ATOM     26  C   UNL d   1     -41.437-122.160 -53.402  0.00  0.00     0.000 A 
ENDBRANCH  18  19
ENDBRANCH  16  18
ENDBRANCH   1  15
TORSDOF 3
ENDMDL
MODEL 2
REMARK VINA RESULT:       2.5      1.627      4.763
REMARK  3 active torsions:
REMARK  status: ('A' for Active; 'I' for Inactive)
REMARK    1  A    between atoms: N_7  and  C_1 
REMARK       I    between atoms: C_11  and  N_6 
REMARK       I    between atoms: C_10  and  N_7 
REMARK    2  A    between atoms: C_17  and  C_10 
REMARK    3  A    between atoms: C_14  and  C_17 
ROOT
ATOM      1  C   UNL d   1     -41.354-121.991 -51.798  0.00  0.00     0.124 A 
ATOM      2  C   UNL d   1     -41.441-121.349 -52.307  0.00  0.00     0.093 A 
ATOM      3  C   UNL d   1     -41.749-122.449 -52.998  0.00  0.00     0.049 A 
ATOM      4  C   UNL d   1     -41.685-121.631 -53.048  0.00  0.00     0.021 A 
ATOM      5  S   UNL d   1     -41.545-122.683 -52.222  0.00  0.00    -0.066 SA
ATOM      6  N   UNL d   1     -42.155-122.504 -54.370  0.00  0.00    -0.272 N 
ATOM      7  C   UNL d   1     -41.983-122.888 -53.656  0.00  0.00     0.089 A 
ATOM      8  C   UNL d   1     -41.308-120.560 -52.111  0.00  0.00     0.103 C 
ATOM      9  C   UNL d   1     -42.391-122.943 -55.035  0.00  0.00     0.265 C 
ATOM     10  N   UNL d   1     -41.173-119.769 -51.911  0.00  0.00    -0.191 NA
ATOM     11  C   UNL d   1     -41.854-121.244 -53.755  0.00  0.00     0.020 A 
ATOM     12  C   UNL d   1     -42.090-121.682 -54.420  0.00  0.00     0.083 A 
ATOM     13  O   UNL d   1     -42.456-123.765 -54.986  0.00  0.00    -0.267 OA
ATOM     14  C   UNL d   1     -42.563-122.558 -55.750  0.00  0.00     0.066 C 
ENDROOT
BRANCH   1  15
ATOM     15  N   UNL d   1     -41.123-121.970 -51.013  0.00  0.00    -0.201 NA
ATOM     16  C   UNL d   1     -41.676-122.128 -50.428  0.00  0.00     0.280 C 
ATOM     17  O   UNL d   1     -41.444-122.108 -49.626  0.00  0.00    -0.265 OA
BRANCH  16  18
ATOM     18  C   UNL d   1     -42.456-122.307 -50.614  0.00  0.00     0.062 C 
BRANCH  18  19
ATOM     19  C   UNL d   1     -42.945-122.683 -50.067  0.00  0.00     0.005 A 
ATOM     20  C   UNL d   1     -43.749-122.468 -50.008  0.00  0.00     0.000 A 
ATOM     21  C   UNL d   1     -44.231-122.853 -49.456  0.00  0.00     0.000 A 
ATOM     22  C   UNL d   1     -44.048-121.879 -50.501  0.00  0.00     0.000 C 
ATOM     23  C   UNL d   1     -43.931-123.439 -48.966  0.00  0.00     0.000 A 
ATOM     24  C   UNL d   1     -43.135-123.652 -49.024  0.00  0.00     0.000 A 
ATOM     25  C   UNL d   1     -44.412-123.817 -48.420  0.00  0.00     0.000 C 
ATOM     26  C   UNL d   1     -42.639-123.277 -49.572  0.00  0.00     0.000 A 
ENDBRANCH  18  19
ENDBRANCH  16  18
ENDBRANCH   1  15
TORSDOF 3
ENDMDL
