MODEL 1
REMARK VINA RESULT:      97.5      0.000      0.000
REMARK  4 active torsions:
REMARK  status: ('A' for Active; 'I' for Inactive)
REMARK    1  A    between atoms: C_11  and  N_2 
REMARK    2  A    between atoms: C_9  and  C_3 
REMARK    3  A    between atoms: C_12  and  C_11 
REMARK    4  A    between atoms: O_19  and  C_16 
ROOT
ATOM      1  N   UNL d   1      60.877  46.136  51.650  0.00  0.00    -0.206 NA
ATOM      2  N   UNL d   1      61.375  46.118  50.414  0.00  0.00    -0.273 N 
ATOM      3  C   UNL d   1      61.205  45.649  51.072  0.00  0.00     0.151 A 
ATOM      4  C   UNL d   1      61.153  46.890  50.585  0.00  0.00     0.185 A 
ATOM      5  C   UNL d   1      60.843  46.905  51.352  0.00  0.00     0.199 A 
ATOM      6  N   UNL d   1      61.189  47.601  50.142  0.00  0.00    -0.224 NA
ATOM      7  N   UNL d   1      60.575  47.608  51.671  0.00  0.00    -0.223 NA
ATOM      8  C   UNL d   1      60.915  48.305  50.475  0.00  0.00     0.101 A 
ATOM      9  C   UNL d   1      60.608  48.307  51.241  0.00  0.00     0.101 A 
ATOM     10  C   UNL d   1      60.951  49.004  50.037  0.00  0.00     0.021 A 
ATOM     11  C   UNL d   1      60.338  49.011  51.566  0.00  0.00     0.021 A 
ATOM     12  C   UNL d   1      60.370  49.708  51.139  0.00  0.00     0.002 A 
ATOM     13  C   UNL d   1      60.678  49.708  50.370  0.00  0.00     0.002 A 
ENDROOT
BRANCH   3  14
ATOM     14  C   UNL d   1      61.341  44.845  51.133  0.00  0.00     0.035 A 
ATOM     15  C   UNL d   1      61.134  44.443  51.803  0.00  0.00     0.005 A 
ATOM     16  C   UNL d   1      61.273  43.659  51.846  0.00  0.00     0.024 A 
ATOM     17  C   UNL d   1      61.627  43.257  51.213  0.00  0.00     0.094 A 
ATOM     18  C   UNL d   1      61.832  43.651  50.552  0.00  0.00     0.024 A 
ATOM     19  C   UNL d   1      61.695  44.444  50.500  0.00  0.00     0.005 A 
BRANCH  17  20
ATOM     20  O   UNL d   1      61.753  42.476  51.286  0.00  0.00    -0.328 OA
ATOM     21  C   UNL d   1      62.690  42.081  51.266  0.00  0.00     0.181 C 
ENDBRANCH  17  20
ENDBRANCH   3  14
BRANCH   2  22
ATOM     22  C   UNL d   1      61.712  45.856  49.704  0.00  0.00     0.083 C 
BRANCH  22  23
ATOM     23  C   UNL d   1      62.264  46.322  49.311  0.00  0.00     0.019 C 
ATOM     24  C   UNL d   1      62.866  45.972  48.869  0.00  0.00     0.002 C 
ENDBRANCH  22  23
ENDBRANCH   2  22
TORSDOF 4
ENDMDL
