MODEL 1
REMARK VINA RESULT:      -3.3      0.000      0.000
REMARK  7 active torsions:
REMARK  status: ('A' for Active; 'I' for Inactive)
REMARK    1  A    between atoms: C_2  and  S_1 
REMARK    2  A    between atoms: N_5  and  S_1 
REMARK    3  A    between atoms: C_3  and  C_7 
REMARK       I    between atoms: N_8  and  C_3 
REMARK    4  A    between atoms: C_16  and  N_5 
REMARK    5  A    between atoms: C_21  and  N_8 
REMARK    6  A    between atoms: C_15  and  C_16 
REMARK    7  A    between atoms: C_30  and  C_23 
ROOT
ATOM      1  C   UNL d   1      32.892  18.214 -23.610  0.00  0.00     0.133 A 
ATOM      2  C   UNL d   1      32.662  17.501 -23.295  0.00  0.00     0.020 A 
ATOM      3  C   UNL d   1      32.534  16.855 -23.794  0.00  0.00     0.059 A 
ATOM      4  C   UNL d   1      32.998  18.296 -24.424  0.00  0.00     0.152 A 
ATOM      5  C   UNL d   1      32.640  16.937 -24.608  0.00  0.00     0.007 A 
ATOM      6  C   UNL d   1      32.873  17.664 -24.917  0.00  0.00     0.030 A 
ATOM      7  F   UNL d   1      33.237  19.040 -24.744  0.00  0.00    -0.203 F 
ENDROOT
BRANCH   1   8
ATOM      8  S   UNL d   1      33.021  18.873 -23.090  0.00  0.00     0.288 S 
ATOM      9  O   UNL d   1      32.804  19.387 -23.696  0.00  0.00    -0.198 OA
ATOM     10  O   UNL d   1      33.239  18.331 -22.488  0.00  0.00    -0.198 OA
BRANCH   8  11
ATOM     11  N   UNL d   1      33.150  19.488 -22.578  0.00  0.00    -0.155 NA
BRANCH  11  12
ATOM     12  C   UNL d   1      32.593  19.686 -22.001  0.00  0.00     0.139 C 
BRANCH  12  13
ATOM     13  C   UNL d   1      32.690  20.393 -21.570  0.00  0.00     0.145 A 
ATOM     14  O   UNL d   1      32.583  21.124 -21.927  0.00  0.00    -0.301 OA
ATOM     15  C   UNL d   1      32.682  21.819 -21.489  0.00  0.00     0.123 A 
ATOM     16  C   UNL d   1      32.574  22.555 -21.849  0.00  0.00     0.027 A 
ATOM     17  C   UNL d   1      32.890  21.774 -20.691  0.00  0.00     0.123 A 
ATOM     18  C   UNL d   1      32.673  23.247 -21.412  0.00  0.00     0.002 A 
ATOM     19  C   UNL d   1      32.881  23.205 -20.613  0.00  0.00     0.002 A 
ATOM     20  C   UNL d   1      32.989  22.468 -20.252  0.00  0.00     0.027 A 
ATOM     21  O   UNL d   1      32.997  21.043 -20.333  0.00  0.00    -0.301 OA
ATOM     22  C   UNL d   1      32.897  20.354 -20.772  0.00  0.00     0.149 A 
ENDBRANCH  12  13
ENDBRANCH  11  12
ENDBRANCH   8  11
ENDBRANCH   1   8
BRANCH   3  23
ATOM     23  C   UNL d   1      32.298  16.119 -23.482  0.00  0.00     0.279 C 
ATOM     24  N   UNL d   1      31.512  15.871 -23.540  0.00  0.00    -0.208 NA
ATOM     25  O   UNL d   1      32.851  15.639 -23.116  0.00  0.00    -0.265 OA
BRANCH  24  26
ATOM     26  C   UNL d   1      30.955  16.354 -23.909  0.00  0.00     0.085 A 
ATOM     27  C   UNL d   1      30.881  16.329 -24.725  0.00  0.00     0.019 A 
ATOM     28  C   UNL d   1      30.318  16.816 -25.097  0.00  0.00     0.002 A 
ATOM     29  C   UNL d   1      29.842  17.319 -24.645  0.00  0.00     0.000 A 
ATOM     30  C   UNL d   1      29.929  17.333 -23.831  0.00  0.00     0.002 A 
ATOM     31  C   UNL d   1      30.491  16.845 -23.459  0.00  0.00     0.019 A 
BRANCH  29  32
ATOM     32  C   UNL d   1      29.288  17.801 -25.006  0.00  0.00     0.000 C 
ATOM     33  C   UNL d   1      28.566  17.949 -24.635  0.00  0.00     0.000 C 
ENDBRANCH  29  32
ENDBRANCH  24  26
ENDBRANCH   3  23
TORSDOF 7
ENDMDL
