MODEL 1
REMARK VINA RESULT:      -2.8      0.000      0.000
REMARK  4 active torsions:
REMARK  status: ('A' for Active; 'I' for Inactive)
REMARK    1  A    between atoms: N_3  and  C_1 
REMARK    2  A    between atoms: C_6  and  C_2 
REMARK    3  A    between atoms: C_13  and  N_8 
REMARK    4  A    between atoms: C_16  and  C_13 
ROOT
ATOM      1  N   UNL d   1     -42.112-122.448 -50.356  0.00  0.00    -0.286 N 
ATOM      2  N   UNL d   1     -41.499-122.166 -51.877  0.00  0.00    -0.300 N 
ATOM      3  C   UNL d   1     -41.429-122.838 -50.604  0.00  0.00     0.101 A 
ATOM      4  C   UNL d   1     -42.499-121.912 -50.864  0.00  0.00     0.101 A 
ATOM      5  C   UNL d   1     -42.194-121.774 -51.616  0.00  0.00     0.100 A 
ATOM      6  C   UNL d   1     -41.123-122.697 -51.363  0.00  0.00     0.100 A 
ENDROOT
BRANCH   1   7
ATOM      7  C   UNL d   1     -42.217-122.744 -49.588  0.00  0.00     0.149 A 
ATOM      8  C   UNL d   1     -42.931-123.133 -49.395  0.00  0.00     0.056 A 
ATOM      9  C   UNL d   1     -43.034-123.426 -48.634  0.00  0.00     0.006 A 
ATOM     10  C   UNL d   1     -43.738-123.817 -48.424  0.00  0.00     0.000 C 
ATOM     11  C   UNL d   1     -42.428-123.331 -48.067  0.00  0.00     0.019 A 
ATOM     12  C   UNL d   1     -41.721-122.942 -48.269  0.00  0.00     0.083 A 
ATOM     13  N   UNL d   1     -41.621-122.651 -49.031  0.00  0.00    -0.228 NA
ATOM     14  C   UNL d   1     -41.123-122.850 -47.704  0.00  0.00     0.021 C 
BRANCH   8  15
ATOM     15  C   UNL d   1     -43.522-123.223 -49.959  0.00  0.00     0.125 C 
ATOM     16  N   UNL d   1     -44.222-123.610 -49.763  0.00  0.00    -0.146 N 
ENDBRANCH   8  15
ENDBRANCH   1   7
BRANCH   2  17
ATOM     17  C   UNL d   1     -41.200-122.022 -52.632  0.00  0.00     0.080 C 
BRANCH  17  18
ATOM     18  C   UNL d   1     -41.399-122.519 -53.260  0.00  0.00     0.018 A 
ATOM     19  C   UNL d   1     -41.159-123.304 -53.252  0.00  0.00     0.002 A 
ATOM     20  C   UNL d   1     -41.357-123.799 -53.880  0.00  0.00     0.000 A 
ATOM     21  C   UNL d   1     -41.794-123.504 -54.508  0.00  0.00     0.000 A 
ATOM     22  C   UNL d   1     -42.037-122.714 -54.518  0.00  0.00     0.000 A 
ATOM     23  C   UNL d   1     -41.835-122.222 -53.887  0.00  0.00     0.002 A 
ENDBRANCH  17  18
ENDBRANCH   2  17
TORSDOF 4
ENDMDL
MODEL 2
REMARK VINA RESULT:      -2.0      1.190      4.758
REMARK  4 active torsions:
REMARK  status: ('A' for Active; 'I' for Inactive)
REMARK    1  A    between atoms: N_3  and  C_1 
REMARK    2  A    between atoms: C_6  and  C_2 
REMARK    3  A    between atoms: C_13  and  N_8 
REMARK    4  A    between atoms: C_16  and  C_13 
ROOT
ATOM      1  N   UNL d   1     -41.421-122.690 -52.719  0.00  0.00    -0.286 N 
ATOM      2  N   UNL d   1     -41.222-123.292 -51.182  0.00  0.00    -0.300 N 
ATOM      3  C   UNL d   1     -41.419-123.504 -52.593  0.00  0.00     0.101 A 
ATOM      4  C   UNL d   1     -41.324-122.163 -52.080  0.00  0.00     0.101 A 
ATOM      5  C   UNL d   1     -41.225-122.464 -51.320  0.00  0.00     0.100 A 
ATOM      6  C   UNL d   1     -41.320-123.805 -51.825  0.00  0.00     0.100 A 
ENDROOT
BRANCH   1   7
ATOM      7  C   UNL d   1     -41.533-122.638 -53.540  0.00  0.00     0.149 A 
ATOM      8  C   UNL d   1     -41.909-121.963 -53.858  0.00  0.00     0.056 A 
ATOM      9  C   UNL d   1     -42.020-121.911 -54.670  0.00  0.00     0.006 A 
ATOM     10  C   UNL d   1     -42.392-121.246 -55.006  0.00  0.00     0.000 C 
ATOM     11  C   UNL d   1     -41.756-122.531 -55.165  0.00  0.00     0.019 A 
ATOM     12  C   UNL d   1     -41.383-123.198 -54.838  0.00  0.00     0.083 A 
ATOM     13  N   UNL d   1     -41.274-123.246 -54.025  0.00  0.00    -0.228 NA
ATOM     14  C   UNL d   1     -41.123-123.811 -55.332  0.00  0.00     0.021 C 
BRANCH   8  15
ATOM     15  C   UNL d   1     -42.166-121.357 -53.365  0.00  0.00     0.125 C 
ATOM     16  N   UNL d   1     -42.356-120.621 -53.681  0.00  0.00    -0.146 N 
ENDBRANCH   8  15
ENDBRANCH   1   7
BRANCH   2  17
ATOM     17  C   UNL d   1     -41.123-123.584 -50.417  0.00  0.00     0.080 C 
BRANCH  17  18
ATOM     18  C   UNL d   1     -41.703-123.458 -49.844  0.00  0.00     0.018 A 
ATOM     19  C   UNL d   1     -42.442-123.807 -49.928  0.00  0.00     0.002 A 
ATOM     20  C   UNL d   1     -43.021-123.681 -49.355  0.00  0.00     0.000 A 
ATOM     21  C   UNL d   1     -42.855-123.207 -48.707  0.00  0.00     0.000 A 
ATOM     22  C   UNL d   1     -42.114-122.855 -48.621  0.00  0.00     0.000 A 
ATOM     23  C   UNL d   1     -41.536-122.984 -49.196  0.00  0.00     0.002 A 
ENDBRANCH  17  18
ENDBRANCH   2  17
TORSDOF 4
ENDMDL
MODEL 3
REMARK VINA RESULT:      -1.5      0.895      4.670
REMARK  4 active torsions:
REMARK  status: ('A' for Active; 'I' for Inactive)
REMARK    1  A    between atoms: N_3  and  C_1 
REMARK    2  A    between atoms: C_6  and  C_2 
REMARK    3  A    between atoms: C_13  and  N_8 
REMARK    4  A    between atoms: C_16  and  C_13 
ROOT
ATOM      1  N   UNL d   1     -42.165-122.726 -50.924  0.00  0.00    -0.286 N 
ATOM      2  N   UNL d   1     -42.393-123.458 -49.448  0.00  0.00    -0.300 N 
ATOM      3  C   UNL d   1     -41.718-123.387 -50.719  0.00  0.00     0.101 A 
ATOM      4  C   UNL d   1     -42.733-122.420 -50.396  0.00  0.00     0.101 A 
ATOM      5  C   UNL d   1     -42.844-122.784 -49.666  0.00  0.00     0.100 A 
ATOM      6  C   UNL d   1     -41.832-123.753 -49.981  0.00  0.00     0.100 A 
ENDROOT
BRANCH   1   7
ATOM      7  C   UNL d   1     -41.879-122.547 -51.682  0.00  0.00     0.149 A 
ATOM      8  C   UNL d   1     -41.645-121.764 -51.855  0.00  0.00     0.056 A 
ATOM      9  C   UNL d   1     -41.361-121.587 -52.606  0.00  0.00     0.006 A 
ATOM     10  C   UNL d   1     -41.123-120.812 -52.796  0.00  0.00     0.000 C 
ATOM     11  C   UNL d   1     -41.312-122.188 -53.183  0.00  0.00     0.019 A 
ATOM     12  C   UNL d   1     -41.549-122.965 -53.001  0.00  0.00     0.083 A 
ATOM     13  N   UNL d   1     -41.831-123.138 -52.249  0.00  0.00    -0.228 NA
ATOM     14  C   UNL d   1     -41.499-123.559 -53.577  0.00  0.00     0.021 C 
BRANCH   8  15
ATOM     15  C   UNL d   1     -41.696-121.178 -51.281  0.00  0.00     0.125 C 
ATOM     16  N   UNL d   1     -41.124-120.586 -51.245  0.00  0.00    -0.146 N 
ENDBRANCH   8  15
ENDBRANCH   1   7
BRANCH   2  17
ATOM     17  C   UNL d   1     -42.512-123.816 -48.715  0.00  0.00     0.080 C 
BRANCH  17  18
ATOM     18  C   UNL d   1     -42.179-123.490 -48.034  0.00  0.00     0.018 A 
ATOM     19  C   UNL d   1     -41.495-123.817 -47.717  0.00  0.00     0.002 A 
ATOM     20  C   UNL d   1     -41.163-123.491 -47.036  0.00  0.00     0.000 A 
ATOM     21  C   UNL d   1     -41.519-122.843 -46.682  0.00  0.00     0.000 A 
ATOM     22  C   UNL d   1     -42.206-122.512 -46.999  0.00  0.00     0.000 A 
ATOM     23  C   UNL d   1     -42.535-122.842 -47.680  0.00  0.00     0.002 A 
ENDBRANCH  17  18
ENDBRANCH   2  17
TORSDOF 4
ENDMDL
