MODEL 1
REMARK VINA RESULT:      -5.6      0.000      0.000
REMARK  1 active torsions:
REMARK  status: ('A' for Active; 'I' for Inactive)
REMARK    1  A    between atoms: C_5  and  C_1 
ROOT
ATOM      1  C   UNL d   1     -41.868-122.320 -54.599  0.00  0.00     0.164 A 
ATOM      2  O   UNL d   1     -41.628-123.163 -54.441  0.00  0.00    -0.301 OA
ATOM      3  C   UNL d   1     -41.841-121.933 -53.889  0.00  0.00     0.033 A 
ATOM      4  C   UNL d   1     -41.609-122.438 -53.298  0.00  0.00     0.025 A 
ATOM      5  C   UNL d   1     -41.479-123.194 -53.637  0.00  0.00     0.100 A 
ATOM      6  C   UNL d   1     -41.497-122.317 -52.485  0.00  0.00     0.009 A 
ATOM      7  C   UNL d   1     -41.237-123.816 -53.158  0.00  0.00     0.025 A 
ATOM      8  C   UNL d   1     -41.253-122.953 -52.014  0.00  0.00     0.035 A 
ATOM      9  C   UNL d   1     -41.123-123.709 -52.354  0.00  0.00     0.009 A 
ATOM     10 BR   UNL d   1     -41.140-122.833 -51.200  0.00  0.00    -0.049 Br
ENDROOT
BRANCH   1  11
ATOM     11  C   UNL d   1     -42.085-121.954 -55.306  0.00  0.00     0.235 C 
ATOM     12  O   UNL d   1     -41.521-121.583 -55.786  0.00  0.00    -0.642 OA
ATOM     13  O   UNL d   1     -42.874-121.938 -55.570  0.00  0.00    -0.642 OA
ENDBRANCH   1  11
TORSDOF 1
ENDMDL
MODEL 2
REMARK VINA RESULT:      -4.9      2.036      3.008
REMARK  1 active torsions:
REMARK  status: ('A' for Active; 'I' for Inactive)
REMARK    1  A    between atoms: C_5  and  C_1 
ROOT
ATOM      1  C   UNL d   1     -41.436-122.412 -52.298  0.00  0.00     0.164 A 
ATOM      2  O   UNL d   1     -41.130-123.079 -52.801  0.00  0.00    -0.301 OA
ATOM      3  C   UNL d   1     -41.813-121.897 -52.797  0.00  0.00     0.033 A 
ATOM      4  C   UNL d   1     -41.779-122.165 -53.561  0.00  0.00     0.025 A 
ATOM      5  C   UNL d   1     -41.360-122.891 -53.564  0.00  0.00     0.100 A 
ATOM      6  C   UNL d   1     -42.075-121.848 -54.268  0.00  0.00     0.009 A 
ATOM      7  C   UNL d   1     -41.243-123.288 -54.274  0.00  0.00     0.025 A 
ATOM      8  C   UNL d   1     -41.950-122.258 -54.976  0.00  0.00     0.035 A 
ATOM      9  C   UNL d   1     -41.531-122.985 -54.979  0.00  0.00     0.009 A 
ATOM     10 BR   UNL d   1     -42.246-121.941 -55.685  0.00  0.00    -0.049 Br
ENDROOT
BRANCH   1  11
ATOM     11  C   UNL d   1     -41.377-122.291 -51.484  0.00  0.00     0.235 C 
ATOM     12  O   UNL d   1     -41.569-122.892 -50.947  0.00  0.00    -0.642 OA
ATOM     13  O   UNL d   1     -41.123-121.566 -51.163  0.00  0.00    -0.642 OA
ENDBRANCH   1  11
TORSDOF 1
ENDMDL
MODEL 3
REMARK VINA RESULT:      -4.7      1.212      2.003
REMARK  1 active torsions:
REMARK  status: ('A' for Active; 'I' for Inactive)
REMARK    1  A    between atoms: C_5  and  C_1 
ROOT
ATOM      1  C   UNL d   1     -41.312-122.586 -53.152  0.00  0.00     0.164 A 
ATOM      2  O   UNL d   1     -41.264-121.833 -52.679  0.00  0.00    -0.301 OA
ATOM      3  C   UNL d   1     -41.296-123.196 -52.620  0.00  0.00     0.033 A 
ATOM      4  C   UNL d   1     -41.243-122.913 -51.862  0.00  0.00     0.025 A 
ATOM      5  C   UNL d   1     -41.223-122.075 -51.898  0.00  0.00     0.100 A 
ATOM      6  C   UNL d   1     -41.210-123.302 -51.130  0.00  0.00     0.009 A 
ATOM      7  C   UNL d   1     -41.170-121.641 -51.203  0.00  0.00     0.025 A 
ATOM      8  C   UNL d   1     -41.156-122.853 -50.438  0.00  0.00     0.035 A 
ATOM      9  C   UNL d   1     -41.137-122.015 -50.474  0.00  0.00     0.009 A 
ATOM     10 BR   UNL d   1     -41.123-123.242 -49.704  0.00  0.00    -0.049 Br
ENDROOT
BRANCH   1  11
ATOM     11  C   UNL d   1     -41.364-122.699 -53.967  0.00  0.00     0.235 C 
ATOM     12  O   UNL d   1     -41.661-122.105 -54.463  0.00  0.00    -0.642 OA
ATOM     13  O   UNL d   1     -41.123-123.407 -54.331  0.00  0.00    -0.642 OA
ENDBRANCH   1  11
TORSDOF 1
ENDMDL
MODEL 4
REMARK VINA RESULT:      -3.9      2.866      4.124
REMARK  1 active torsions:
REMARK  status: ('A' for Active; 'I' for Inactive)
REMARK    1  A    between atoms: C_5  and  C_1 
ROOT
ATOM      1  C   UNL d   1     -41.687-122.950 -49.977  0.00  0.00     0.164 A 
ATOM      2  O   UNL d   1     -41.519-122.203 -50.430  0.00  0.00    -0.301 OA
ATOM      3  C   UNL d   1     -41.655-123.558 -50.510  0.00  0.00     0.033 A 
ATOM      4  C   UNL d   1     -41.485-123.279 -51.252  0.00  0.00     0.025 A 
ATOM      5  C   UNL d   1     -41.402-122.446 -51.203  0.00  0.00     0.100 A 
ATOM      6  C   UNL d   1     -41.392-123.668 -51.979  0.00  0.00     0.009 A 
ATOM      7  C   UNL d   1     -41.227-122.016 -51.881  0.00  0.00     0.025 A 
ATOM      8  C   UNL d   1     -41.216-123.223 -52.654  0.00  0.00     0.035 A 
ATOM      9  C   UNL d   1     -41.133-122.390 -52.605  0.00  0.00     0.009 A 
ATOM     10 BR   UNL d   1     -41.123-123.613 -53.382  0.00  0.00    -0.049 Br
ENDROOT
BRANCH   1  11
ATOM     11  C   UNL d   1     -41.850-123.060 -49.176  0.00  0.00     0.235 C 
ATOM     12  O   UNL d   1     -42.601-122.899 -48.865  0.00  0.00    -0.642 OA
ATOM     13  O   UNL d   1     -41.273-123.335 -48.642  0.00  0.00    -0.642 OA
ENDBRANCH   1  11
TORSDOF 1
ENDMDL
