MODEL 1
REMARK VINA RESULT:      31.9      0.000      0.000
REMARK  5 active torsions:
REMARK  status: ('A' for Active; 'I' for Inactive)
REMARK    1  A    between atoms: C_5  and  N_1 
REMARK    2  A    between atoms: C_6  and  C_5 
REMARK       I    between atoms: N_9  and  C_6 
REMARK    3  A    between atoms: C_13  and  N_9 
REMARK    4  A    between atoms: O_19  and  C_14 
REMARK    5  A    between atoms: C_21  and  O_19 
ROOT
ATOM      1  C   UNL d   1      13.943  12.463  -2.901  0.00  0.00     0.297 C 
ATOM      2  N   UNL d   1      13.515  12.426  -3.605  0.00  0.00    -0.207 NA
ATOM      3  O   UNL d   1      14.233  13.188  -2.633  0.00  0.00    -0.264 OA
ENDROOT
BRANCH   1   4
ATOM      4  C   UNL d   1      14.080  11.781  -2.466  0.00  0.00     0.148 C 
BRANCH   4   5
ATOM      5  N   UNL d   1      14.188  11.825  -1.649  0.00  0.00    -0.235 N 
ATOM      6  C   UNL d   1      14.959  11.870  -1.336  0.00  0.00     0.273 A 
ATOM      7  C   UNL d   1      15.067  11.915  -0.519  0.00  0.00     0.086 A 
ATOM      8  O   UNL d   1      15.613  11.870  -1.849  0.00  0.00    -0.266 OA
ATOM      9  C   UNL d   1      15.830  11.960  -0.201  0.00  0.00     0.012 C 
ATOM     10  S   UNL d   1      14.404  11.914  -0.015  0.00  0.00    -0.077 SA
ATOM     11  C   UNL d   1      13.651  11.869  -0.330  0.00  0.00     0.097 A 
ATOM     12  C   UNL d   1      13.543  11.825  -1.146  0.00  0.00     0.274 A 
ATOM     13  O   UNL d   1      12.770  11.779  -1.468  0.00  0.00    -0.266 OA
ENDBRANCH   4   5
ENDBRANCH   1   4
BRANCH   2  14
ATOM     14  C   UNL d   1      13.378  13.113  -4.041  0.00  0.00     0.085 A 
ATOM     15  C   UNL d   1      13.678  13.183  -4.797  0.00  0.00     0.021 A 
ATOM     16  C   UNL d   1      13.548  13.854  -5.232  0.00  0.00     0.026 A 
ATOM     17  C   UNL d   1      13.105  14.479  -4.904  0.00  0.00     0.100 A 
ATOM     18  C   UNL d   1      12.806  14.410  -4.148  0.00  0.00     0.026 A 
ATOM     19  C   UNL d   1      12.946  13.714  -3.712  0.00  0.00     0.021 A 
BRANCH  17  20
ATOM     20  O   UNL d   1      12.972  15.172  -5.354  0.00  0.00    -0.305 OA
BRANCH  20  21
ATOM     21  C   UNL d   1      13.552  15.756  -5.409  0.00  0.00     0.123 C 
ATOM     22  C   UNL d   1      13.475  16.364  -5.956  0.00  0.00     0.029 C 
ENDBRANCH  20  21
ENDBRANCH  17  20
ENDBRANCH   2  14
TORSDOF 5
ENDMDL
