MODEL 1
REMARK VINA RESULT:       4.8      0.000      0.000
REMARK  3 active torsions:
REMARK  status: ('A' for Active; 'I' for Inactive)
REMARK       I    between atoms: C_2  and  N_1 
REMARK    1  A    between atoms: C_4  and  N_1 
REMARK    2  A    between atoms: C_5  and  N_1 
REMARK    3  A    between atoms: C_6  and  C_2 
ROOT
ATOM      1  N   UNL d   1      45.470 -13.123  44.061  0.00  0.00    -0.274 N 
ATOM      2  C   UNL d   1      45.314 -12.975  43.248  0.00  0.00     0.276 C 
ATOM      3  O   UNL d   1      45.107 -13.591  42.759  0.00  0.00    -0.266 OA
ENDROOT
BRANCH   1   4
ATOM      4  C   UNL d   1      45.414 -13.888  44.361  0.00  0.00     0.067 A 
ATOM      5  C   UNL d   1      44.697 -14.179  44.647  0.00  0.00     0.018 A 
ATOM      6  C   UNL d   1      44.675 -14.953  44.943  0.00  0.00     0.002 A 
ATOM      7  C   UNL d   1      45.352 -15.424  44.951  0.00  0.00     0.000 A 
ATOM      8  C   UNL d   1      46.054 -15.127  44.666  0.00  0.00     0.002 A 
ATOM      9  C   UNL d   1      46.093 -14.356  44.368  0.00  0.00     0.018 A 
ENDBRANCH   1   4
BRANCH   1  10
ATOM     10  C   UNL d   1      45.677 -12.493  44.540  0.00  0.00     0.067 C 
ATOM     11  C   UNL d   1      45.066 -12.083  44.955  0.00  0.00     0.019 C 
ATOM     12  C   UNL d   1      46.454 -12.242  44.635  0.00  0.00     0.019 C 
ENDBRANCH   1  10
BRANCH   2  13
ATOM     13  C   UNL d   1      45.374 -12.208  42.963  0.00  0.00     0.129 C 
ATOM     14 CL   UNL d   1      45.289 -12.081  42.150  0.00  0.00    -0.076 Cl
ENDBRANCH   2  13
TORSDOF 3
ENDMDL
