MODEL 1
REMARK VINA RESULT:      -6.9      0.000      0.000
REMARK  6 active torsions:
REMARK  status: ('A' for Active; 'I' for Inactive)
REMARK    1  A    between atoms: S_2  and  C_1 
REMARK    2  A    between atoms: N_3  and  S_2 
REMARK    3  A    between atoms: C_17  and  N_3 
REMARK    4  A    between atoms: C_4  and  C_12 
REMARK    5  A    between atoms: O_20  and  C_4 
REMARK    6  A    between atoms: C_23  and  O_20 
ROOT
ATOM      1  S   UNL d   1     -41.534-122.537 -53.317  0.00  0.00     0.153 S 
ATOM      2  O   UNL d   1     -42.138-123.055 -53.189  0.00  0.00    -0.232 OA
ENDROOT
BRANCH   1   3
ATOM      3  C   UNL d   1     -41.600-122.566 -54.023  0.00  0.00     0.108 A 
ATOM      4  C   UNL d   1     -41.949-121.956 -53.801  0.00  0.00     0.023 A 
ATOM      5  C   UNL d   1     -42.270-121.569 -54.498  0.00  0.00     0.024 A 
ATOM      6  C   UNL d   1     -42.317-121.642 -55.272  0.00  0.00     0.009 A 
ATOM      7  C   UNL d   1     -41.896-122.114 -54.171  0.00  0.00    -0.027 A 
ATOM      8  C   UNL d   1     -41.919-122.337 -55.528  0.00  0.00     0.024 A 
ATOM      9  C   UNL d   1     -41.642-122.682 -54.980  0.00  0.00     0.023 A 
ATOM     10  C   UNL d   1     -41.503-122.948 -55.183  0.00  0.00    -0.027 A 
ATOM     11  C   UNL d   1     -41.457-122.876 -54.423  0.00  0.00    -0.012 A 
ATOM     12  C   UNL d   1     -41.123-123.284 -53.725  0.00  0.00    -0.013 A 
ENDBRANCH   1   3
BRANCH   1  13
ATOM     13  N   UNL d   1     -41.123-122.212 -52.668  0.00  0.00    -0.185 NA
BRANCH  13  14
ATOM     14  C   UNL d   1     -41.352-122.414 -51.887  0.00  0.00     0.091 A 
ATOM     15  C   UNL d   1     -41.761-121.838 -51.414  0.00  0.00     0.020 A 
ATOM     16  C   UNL d   1     -41.976-122.028 -50.681  0.00  0.00     0.007 A 
ATOM     17  C   UNL d   1     -41.808-122.774 -50.373  0.00  0.00     0.064 A 
ATOM     18  C   UNL d   1     -41.411-123.342 -50.823  0.00  0.00     0.007 A 
ATOM     19  C   UNL d   1     -41.187-123.145 -51.584  0.00  0.00     0.020 A 
BRANCH  17  20
ATOM     20  C   UNL d   1     -42.046-122.964 -49.579  0.00  0.00     0.300 C 
ATOM     21  O   UNL d   1     -42.846-122.984 -49.394  0.00  0.00    -0.259 OA
BRANCH  20  22
ATOM     22  O   UNL d   1     -41.465-123.123 -49.021  0.00  0.00    -0.271 OA
BRANCH  22  23
ATOM     23  C   UNL d   1     -41.712-123.341 -48.258  0.00  0.00     0.126 C 
ATOM     24  C   UNL d   1     -41.167-123.279 -47.634  0.00  0.00     0.029 C 
ENDBRANCH  22  23
ENDBRANCH  20  22
ENDBRANCH  17  20
ENDBRANCH  13  14
ENDBRANCH   1  13
TORSDOF 6
ENDMDL
MODEL 2
REMARK VINA RESULT:      -6.4      1.153      4.920
REMARK  6 active torsions:
REMARK  status: ('A' for Active; 'I' for Inactive)
REMARK    1  A    between atoms: S_2  and  C_1 
REMARK    2  A    between atoms: N_3  and  S_2 
REMARK    3  A    between atoms: C_17  and  N_3 
REMARK    4  A    between atoms: C_4  and  C_12 
REMARK    5  A    between atoms: O_20  and  C_4 
REMARK    6  A    between atoms: C_23  and  O_20 
ROOT
ATOM      1  S   UNL d   1     -41.797-123.077 -50.143  0.00  0.00     0.153 S 
ATOM      2  O   UNL d   1     -42.399-123.490 -50.483  0.00  0.00    -0.232 OA
ENDROOT
BRANCH   1   3
ATOM      3  C   UNL d   1     -42.120-123.039 -49.512  0.00  0.00     0.108 A 
ATOM      4  C   UNL d   1     -41.497-123.421 -49.412  0.00  0.00     0.023 A 
ATOM      5  C   UNL d   1     -41.455-123.640 -48.581  0.00  0.00     0.024 A 
ATOM      6  C   UNL d   1     -41.844-123.573 -47.909  0.00  0.00     0.009 A 
ATOM      7  C   UNL d   1     -41.790-123.313 -49.151  0.00  0.00    -0.027 A 
ATOM      8  C   UNL d   1     -42.555-123.138 -48.022  0.00  0.00     0.024 A 
ATOM      9  C   UNL d   1     -42.623-122.941 -48.695  0.00  0.00     0.023 A 
ATOM     10  C   UNL d   1     -42.938-122.772 -48.642  0.00  0.00    -0.027 A 
ATOM     11  C   UNL d   1     -42.556-122.837 -49.300  0.00  0.00    -0.012 A 
ATOM     12  C   UNL d   1     -42.616-122.605 -50.142  0.00  0.00    -0.013 A 
ENDBRANCH   1   3
BRANCH   1  13
ATOM     13  N   UNL d   1     -41.124-122.880 -50.595  0.00  0.00    -0.185 NA
BRANCH  13  14
ATOM     14  C   UNL d   1     -41.164-122.898 -51.431  0.00  0.00     0.091 A 
ATOM     15  C   UNL d   1     -41.157-122.165 -51.862  0.00  0.00     0.020 A 
ATOM     16  C   UNL d   1     -41.195-122.182 -52.648  0.00  0.00     0.007 A 
ATOM     17  C   UNL d   1     -41.242-122.899 -53.052  0.00  0.00     0.064 A 
ATOM     18  C   UNL d   1     -41.250-123.618 -52.645  0.00  0.00     0.007 A 
ATOM     19  C   UNL d   1     -41.210-123.601 -51.829  0.00  0.00     0.020 A 
BRANCH  17  20
ATOM     20  C   UNL d   1     -41.282-122.902 -53.901  0.00  0.00     0.300 C 
ATOM     21  O   UNL d   1     -41.136-123.601 -54.308  0.00  0.00    -0.259 OA
BRANCH  20  22
ATOM     22  O   UNL d   1     -41.467-122.203 -54.289  0.00  0.00    -0.271 OA
BRANCH  22  23
ATOM     23  C   UNL d   1     -41.499-122.218 -55.119  0.00  0.00     0.126 C 
ATOM     24  C   UNL d   1     -42.190-121.945 -55.493  0.00  0.00     0.029 C 
ENDBRANCH  22  23
ENDBRANCH  20  22
ENDBRANCH  17  20
ENDBRANCH  13  14
ENDBRANCH   1  13
TORSDOF 6
ENDMDL
