MODEL 1
REMARK VINA RESULT:     143.9      0.000      0.000
REMARK  5 active torsions:
REMARK  status: ('A' for Active; 'I' for Inactive)
REMARK    1  A    between atoms: C_4  and  S_1 
REMARK    2  A    between atoms: N_6  and  S_1 
REMARK    3  A    between atoms: C_2  and  C_14 
REMARK    4  A    between atoms: C_7  and  C_16 
REMARK       I    between atoms: N_11  and  C_7 
REMARK    5  A    between atoms: C_26  and  N_11 
ROOT
ATOM      1  C   UNL d   1     -55.063-100.422 -40.654  0.00  0.00     0.279 C 
ATOM      2  N   UNL d   1     -55.293-101.177 -40.882  0.00  0.00    -0.208 NA
ATOM      3  O   UNL d   1     -54.852 -99.867 -41.220  0.00  0.00    -0.265 OA
ENDROOT
BRANCH   1   4
ATOM      4  C   UNL d   1     -55.045-100.222 -39.853  0.00  0.00     0.061 A 
ATOM      5  C   UNL d   1     -55.221 -99.441 -39.613  0.00  0.00     0.025 A 
ATOM      6  C   UNL d   1     -55.203 -99.241 -38.811  0.00  0.00     0.092 A 
ATOM      7  N   UNL d   1     -55.010 -99.815 -38.246  0.00  0.00    -0.229 N 
ATOM      8  C   UNL d   1     -54.835-100.587 -38.486  0.00  0.00     0.092 A 
ATOM      9  C   UNL d   1     -54.851-100.795 -39.283  0.00  0.00     0.025 A 
BRANCH   7  10
ATOM     10  S   UNL d   1     -54.990 -99.619 -37.441  0.00  0.00     0.277 S 
ATOM     11  O   UNL d   1     -55.255-100.376 -37.274  0.00  0.00    -0.199 OA
ATOM     12  O   UNL d   1     -54.722 -98.855 -37.617  0.00  0.00    -0.199 OA
BRANCH  10  13
ATOM     13  C   UNL d   1     -54.984 -99.463 -36.640  0.00  0.00     0.133 A 
ATOM     14  S   UNL d   1     -54.711 -99.965 -36.039  0.00  0.00    -0.074 SA
ATOM     15  C   UNL d   1     -54.809 -99.586 -35.320  0.00  0.00     0.036 A 
ATOM     16  C   UNL d   1     -55.143 -98.844 -35.460  0.00  0.00     0.008 A 
ATOM     17  C   UNL d   1     -55.251 -98.768 -36.274  0.00  0.00     0.020 A 
ENDBRANCH  10  13
ENDBRANCH   7  10
ENDBRANCH   1   4
BRANCH   2  18
ATOM     18  C   UNL d   1     -55.312-101.381 -41.681  0.00  0.00     0.085 A 
ATOM     19  C   UNL d   1     -55.289-102.181 -41.900  0.00  0.00     0.019 A 
ATOM     20  C   UNL d   1     -55.309-102.366 -42.699  0.00  0.00     0.004 A 
ATOM     21  C   UNL d   1     -55.351-101.773 -43.254  0.00  0.00     0.024 A 
ATOM     22  C   UNL d   1     -55.374-100.990 -43.025  0.00  0.00     0.004 A 
ATOM     23  C   UNL d   1     -55.355-100.794 -42.247  0.00  0.00     0.019 A 
BRANCH  21  24
ATOM     24  C   UNL d   1     -55.371-101.977 -44.053  0.00  0.00     0.111 A 
ATOM     25  N   UNL d   1     -55.959-102.431 -44.429  0.00  0.00    -0.239 NA
ATOM     26  C   UNL d   1     -55.761-102.500 -45.232  0.00  0.00     0.088 A 
ATOM     27  C   UNL d   1     -56.130-102.879 -45.861  0.00  0.00     0.020 A 
ATOM     28  C   UNL d   1     -55.055-102.092 -45.349  0.00  0.00     0.049 A 
ATOM     29  C   UNL d   1     -55.792-102.850 -46.614  0.00  0.00     0.002 A 
ATOM     30  C   UNL d   1     -55.086-102.442 -46.735  0.00  0.00     0.001 A 
ATOM     31  C   UNL d   1     -54.713-102.061 -46.106  0.00  0.00     0.008 A 
ATOM     32  S   UNL d   1     -54.800-101.761 -44.630  0.00  0.00    -0.066 SA
ENDBRANCH  21  24
ENDBRANCH   2  18
TORSDOF 5
ENDMDL
