MODEL 1
REMARK VINA RESULT:      -6.9      0.000      0.000
REMARK  1 active torsions:
REMARK  status: ('A' for Active; 'I' for Inactive)
REMARK    1  A    between atoms: C_6  and  C_3 
ROOT
ATOM      1  C   UNL d   1     -47.742  13.812  22.877  0.00  0.00     0.018 A 
ATOM      2  C   UNL d   1     -47.015  14.153  22.805  0.00  0.00     0.005 A 
ATOM      3  C   UNL d   1     -47.823  13.021  23.115  0.00  0.00     0.005 A 
ATOM      4  C   UNL d   1     -46.410  12.926  23.206  0.00  0.00     0.196 A 
ATOM      5  C   UNL d   1     -46.329  13.718  22.968  0.00  0.00     0.042 A 
ATOM      6  C   UNL d   1     -47.138  12.590  23.277  0.00  0.00     0.042 A 
ATOM      7  O   UNL d   1     -45.727  12.498  23.366  0.00  0.00    -0.287 OA
ENDROOT
BRANCH   1   8
ATOM      8  C   UNL d   1     -48.426  14.240  22.717  0.00  0.00     0.090 A 
ATOM      9  N   UNL d   1     -48.720  14.789  23.243  0.00  0.00    -0.219 NA
ATOM     10  C   UNL d   1     -49.400  15.121  22.931  0.00  0.00     0.215 A 
ATOM     11  S   UNL d   1     -49.538  14.795  22.224  0.00  0.00    -0.045 SA
ATOM     12  N   UNL d   1     -49.893  15.705  23.264  0.00  0.00    -0.120 N 
ATOM     13  C   UNL d   1     -48.938  14.238  22.070  0.00  0.00     0.058 A 
ENDBRANCH   1   8
TORSDOF 1
ENDMDL
MODEL 2
REMARK VINA RESULT:      -6.6      1.844      2.164
REMARK  1 active torsions:
REMARK  status: ('A' for Active; 'I' for Inactive)
REMARK    1  A    between atoms: C_6  and  C_3 
ROOT
ATOM      1  C   UNL d   1     -48.136  12.263  23.160  0.00  0.00     0.018 A 
ATOM      2  C   UNL d   1     -47.788  11.641  23.537  0.00  0.00     0.005 A 
ATOM      3  C   UNL d   1     -47.692  12.922  22.923  0.00  0.00     0.005 A 
ATOM      4  C   UNL d   1     -46.530  12.308  23.458  0.00  0.00     0.196 A 
ATOM      5  C   UNL d   1     -46.974  11.647  23.696  0.00  0.00     0.042 A 
ATOM      6  C   UNL d   1     -46.882  12.926  23.082  0.00  0.00     0.042 A 
ATOM      7  O   UNL d   1     -45.724  12.310  23.618  0.00  0.00    -0.287 OA
ENDROOT
BRANCH   1   8
ATOM      8  C   UNL d   1     -48.942  12.260  23.001  0.00  0.00     0.090 A 
ATOM      9  N   UNL d   1     -49.496  12.261  23.599  0.00  0.00    -0.219 NA
ATOM     10  C   UNL d   1     -50.246  12.259  23.270  0.00  0.00     0.215 A 
ATOM     11  S   UNL d   1     -50.175  12.256  22.482  0.00  0.00    -0.045 SA
ATOM     12  N   UNL d   1     -50.984  12.259  23.658  0.00  0.00    -0.120 N 
ATOM     13  C   UNL d   1     -49.363  12.257  22.292  0.00  0.00     0.058 A 
ENDBRANCH   1   8
TORSDOF 1
ENDMDL
MODEL 3
REMARK VINA RESULT:      -6.5      2.350      3.077
REMARK  1 active torsions:
REMARK  status: ('A' for Active; 'I' for Inactive)
REMARK    1  A    between atoms: C_6  and  C_3 
ROOT
ATOM      1  C   UNL d   1     -48.067  12.627  22.984  0.00  0.00     0.018 A 
ATOM      2  C   UNL d   1     -48.108  12.093  23.587  0.00  0.00     0.005 A 
ATOM      3  C   UNL d   1     -48.701  12.731  22.460  0.00  0.00     0.005 A 
ATOM      4  C   UNL d   1     -49.424  11.738  23.171  0.00  0.00     0.196 A 
ATOM      5  C   UNL d   1     -48.789  11.634  23.696  0.00  0.00     0.042 A 
ATOM      6  C   UNL d   1     -49.379  12.272  22.571  0.00  0.00     0.042 A 
ATOM      7  O   UNL d   1     -50.098  11.280  23.283  0.00  0.00    -0.287 OA
ENDROOT
BRANCH   1   8
ATOM      8  C   UNL d   1     -47.393  13.085  22.872  0.00  0.00     0.090 A 
ATOM      9  N   UNL d   1     -46.735  12.791  22.489  0.00  0.00    -0.219 NA
ATOM     10  C   UNL d   1     -46.159  13.372  22.463  0.00  0.00     0.215 A 
ATOM     11  S   UNL d   1     -46.439  14.020  22.819  0.00  0.00    -0.045 SA
ATOM     12  N   UNL d   1     -45.396  13.332  22.130  0.00  0.00    -0.120 N 
ATOM     13  C   UNL d   1     -47.213  13.861  23.084  0.00  0.00     0.058 A 
ENDBRANCH   1   8
TORSDOF 1
ENDMDL
MODEL 4
REMARK VINA RESULT:      -6.4      2.188      3.284
REMARK  1 active torsions:
REMARK  status: ('A' for Active; 'I' for Inactive)
REMARK    1  A    between atoms: C_6  and  C_3 
ROOT
ATOM      1  C   UNL d   1     -48.483  14.321  22.659  0.00  0.00     0.018 A 
ATOM      2  C   UNL d   1     -49.007  13.941  22.180  0.00  0.00     0.005 A 
ATOM      3  C   UNL d   1     -48.679  15.039  23.025  0.00  0.00     0.005 A 
ATOM      4  C   UNL d   1     -49.956  14.980  22.407  0.00  0.00     0.196 A 
ATOM      5  C   UNL d   1     -49.759  14.261  22.041  0.00  0.00     0.042 A 
ATOM      6  C   UNL d   1     -49.429  15.356  22.885  0.00  0.00     0.042 A 
ATOM      7  O   UNL d   1     -50.702  15.294  22.267  0.00  0.00    -0.287 OA
ENDROOT
BRANCH   1   8
ATOM      8  C   UNL d   1     -47.736  14.007  22.799  0.00  0.00     0.090 A 
ATOM      9  N   UNL d   1     -47.638  13.254  23.097  0.00  0.00    -0.219 NA
ATOM     10  C   UNL d   1     -46.838  13.099  23.175  0.00  0.00     0.215 A 
ATOM     11  S   UNL d   1     -46.434  13.735  22.935  0.00  0.00    -0.045 SA
ATOM     12  N   UNL d   1     -46.467  12.407  23.456  0.00  0.00    -0.120 N 
ATOM     13  C   UNL d   1     -46.979  14.318  22.695  0.00  0.00     0.058 A 
ENDBRANCH   1   8
TORSDOF 1
ENDMDL
