MODEL 1
REMARK VINA RESULT:      47.6      0.000      0.000
REMARK  6 active torsions:
REMARK  status: ('A' for Active; 'I' for Inactive)
REMARK    1  A    between atoms: C_15  and  C_2 
REMARK    2  A    between atoms: C_19  and  C_3 
REMARK    3  A    between atoms: C_4  and  C_16 
REMARK       I    between atoms: N_7  and  C_4 
REMARK    4  A    between atoms: C_14  and  N_7 
REMARK    5  A    between atoms: C_8  and  C_9 
REMARK    6  A    between atoms: C_16  and  C_15 
ROOT
ATOM      1  C   UNL d   1      60.998  49.084  51.157  0.00  0.00     0.279 C 
ATOM      2  N   UNL d   1      60.480  49.708  51.301  0.00  0.00    -0.208 NA
ATOM      3  O   UNL d   1      61.767  49.105  51.461  0.00  0.00    -0.265 OA
ENDROOT
BRANCH   1   4
ATOM      4  C   UNL d   1      60.750  48.434  50.710  0.00  0.00     0.065 C 
BRANCH   4   5
ATOM      5  C   UNL d   1      61.310  47.952  50.333  0.00  0.00     0.030 C 
BRANCH   5   6
ATOM      6  C   UNL d   1      61.168  47.144  50.239  0.00  0.00     0.100 A 
ATOM      7  O   UNL d   1      61.685  46.605  49.896  0.00  0.00    -0.307 OA
ATOM      8  C   UNL d   1      61.322  45.867  49.916  0.00  0.00     0.100 A 
ATOM      9  C   UNL d   1      60.571  45.957  50.277  0.00  0.00     0.027 A 
ATOM     10  C   UNL d   1      60.487  46.750  50.472  0.00  0.00     0.027 A 
BRANCH   8  11
ATOM     11  C   UNL d   1      61.633  45.162  49.635  0.00  0.00     0.025 C 
ATOM     12  C   UNL d   1      61.905  45.100  48.859  0.00  0.00     0.002 C 
ENDBRANCH   8  11
ENDBRANCH   5   6
ENDBRANCH   4   5
ENDBRANCH   1   4
BRANCH   2  13
ATOM     13  C   UNL d   1      59.707  49.679  50.992  0.00  0.00     0.085 A 
ATOM     14  C   UNL d   1      59.066  49.624  51.505  0.00  0.00     0.019 A 
ATOM     15  C   UNL d   1      58.298  49.596  51.194  0.00  0.00     0.005 A 
ATOM     16  C   UNL d   1      58.175  49.623  50.378  0.00  0.00     0.039 A 
ATOM     17  C   UNL d   1      58.839  49.680  49.869  0.00  0.00     0.005 A 
ATOM     18  C   UNL d   1      59.596  49.707  50.178  0.00  0.00     0.019 A 
BRANCH  16  19
ATOM     19  C   UNL d   1      57.414  49.596  50.066  0.00  0.00     0.196 C 
ATOM     20  O   UNL d   1      56.758  49.659  50.564  0.00  0.00    -0.287 OA
ATOM     21  C   UNL d   1      57.305  49.505  49.252  0.00  0.00     0.045 C 
ENDBRANCH  16  19
ENDBRANCH   2  13
TORSDOF 6
ENDMDL
