MODEL 1
REMARK VINA RESULT:      -5.9      0.000      0.000
REMARK  1 active torsions:
REMARK  status: ('A' for Active; 'I' for Inactive)
REMARK    1  A    between atoms: C_2  and  C_1 
ROOT
ATOM      1  C   UNL d   1     -41.873-122.341 -54.658  0.00  0.00     0.067 A 
ATOM      2  C   UNL d   1     -41.622-122.341 -53.254  0.00  0.00     0.123 A 
ATOM      3  C   UNL d   1     -41.873-121.943 -53.934  0.00  0.00     0.033 A 
ATOM      4  C   UNL d   1     -41.375-123.127 -53.298  0.00  0.00     0.123 A 
ATOM      5  O   UNL d   1     -41.621-121.942 -52.525  0.00  0.00    -0.301 OA
ATOM      6  O   UNL d   1     -41.125-123.520 -52.613  0.00  0.00    -0.301 OA
ATOM      7  C   UNL d   1     -41.626-123.127 -54.702  0.00  0.00     0.008 A 
ATOM      8  C   UNL d   1     -41.377-123.520 -54.022  0.00  0.00     0.027 A 
ATOM      9  C   UNL d   1     -41.370-122.340 -51.841  0.00  0.00     0.149 A 
ATOM     10  C   UNL d   1     -41.123-123.126 -51.885  0.00  0.00     0.149 A 
ENDROOT
BRANCH   1  11
ATOM     11  C   UNL d   1     -42.124-121.943 -55.338  0.00  0.00     0.211 C 
ATOM     12  O   UNL d   1     -42.904-121.942 -55.604  0.00  0.00    -0.644 OA
ATOM     13  O   UNL d   1     -41.617-121.505 -55.821  0.00  0.00    -0.644 OA
ENDBRANCH   1  11
TORSDOF 1
ENDMDL
MODEL 2
REMARK VINA RESULT:      -4.9      0.876      2.795
REMARK  1 active torsions:
REMARK  status: ('A' for Active; 'I' for Inactive)
REMARK    1  A    between atoms: C_2  and  C_1 
ROOT
ATOM      1  C   UNL d   1     -41.479-122.483 -52.688  0.00  0.00     0.067 A 
ATOM      2  C   UNL d   1     -41.862-122.064 -53.996  0.00  0.00     0.123 A 
ATOM      3  C   UNL d   1     -41.851-121.933 -53.180  0.00  0.00     0.033 A 
ATOM      4  C   UNL d   1     -41.506-122.736 -54.316  0.00  0.00     0.123 A 
ATOM      5  O   UNL d   1     -42.236-121.513 -54.493  0.00  0.00    -0.301 OA
ATOM      6  O   UNL d   1     -41.521-122.862 -55.135  0.00  0.00    -0.301 OA
ATOM      7  C   UNL d   1     -41.123-123.155 -53.008  0.00  0.00     0.008 A 
ATOM      8  C   UNL d   1     -41.136-123.282 -53.822  0.00  0.00     0.027 A 
ATOM      9  C   UNL d   1     -42.248-121.643 -55.313  0.00  0.00     0.149 A 
ATOM     10  C   UNL d   1     -41.892-122.315 -55.632  0.00  0.00     0.149 A 
ENDROOT
BRANCH   1  11
ATOM     11  C   UNL d   1     -41.467-122.352 -51.872  0.00  0.00     0.211 C 
ATOM     12  O   UNL d   1     -41.798-122.870 -51.322  0.00  0.00    -0.644 OA
ATOM     13  O   UNL d   1     -41.123-121.687 -51.523  0.00  0.00    -0.644 OA
ENDBRANCH   1  11
TORSDOF 1
ENDMDL
MODEL 3
REMARK VINA RESULT:      -4.5      1.349      3.453
REMARK  1 active torsions:
REMARK  status: ('A' for Active; 'I' for Inactive)
REMARK    1  A    between atoms: C_2  and  C_1 
ROOT
ATOM      1  C   UNL d   1     -41.575-122.724 -51.135  0.00  0.00     0.067 A 
ATOM      2  C   UNL d   1     -41.434-123.170 -52.482  0.00  0.00     0.123 A 
ATOM      3  C   UNL d   1     -41.586-123.338 -51.687  0.00  0.00     0.033 A 
ATOM      4  C   UNL d   1     -41.274-122.396 -52.721  0.00  0.00     0.123 A 
ATOM      5  O   UNL d   1     -41.444-123.786 -53.039  0.00  0.00    -0.301 OA
ATOM      6  O   UNL d   1     -41.123-122.234 -53.519  0.00  0.00    -0.301 OA
ATOM      7  C   UNL d   1     -41.415-121.950 -51.374  0.00  0.00     0.008 A 
ATOM      8  C   UNL d   1     -41.264-121.786 -52.167  0.00  0.00     0.027 A 
ATOM      9  C   UNL d   1     -41.292-123.618 -53.837  0.00  0.00     0.149 A 
ATOM     10  C   UNL d   1     -41.132-122.845 -54.076  0.00  0.00     0.149 A 
ENDROOT
BRANCH   1  11
ATOM     11  C   UNL d   1     -41.727-122.892 -50.340  0.00  0.00     0.211 C 
ATOM     12  O   UNL d   1     -42.481-122.876 -50.006  0.00  0.00    -0.644 OA
ATOM     13  O   UNL d   1     -41.138-123.095 -49.797  0.00  0.00    -0.644 OA
ENDBRANCH   1  11
TORSDOF 1
ENDMDL
MODEL 4
REMARK VINA RESULT:      -4.1      2.218      3.413
REMARK  1 active torsions:
REMARK  status: ('A' for Active; 'I' for Inactive)
REMARK    1  A    between atoms: C_2  and  C_1 
ROOT
ATOM      1  C   UNL d   1     -41.528-122.548 -51.328  0.00  0.00     0.067 A 
ATOM      2  C   UNL d   1     -42.226-122.686 -50.092  0.00  0.00     0.123 A 
ATOM      3  C   UNL d   1     -42.079-122.258 -50.784  0.00  0.00     0.033 A 
ATOM      4  C   UNL d   1     -41.829-123.394 -49.946  0.00  0.00     0.123 A 
ATOM      5  O   UNL d   1     -42.779-122.396 -49.544  0.00  0.00    -0.301 OA
ATOM      6  O   UNL d   1     -41.981-123.817 -49.251  0.00  0.00    -0.301 OA
ATOM      7  C   UNL d   1     -41.131-123.257 -51.182  0.00  0.00     0.008 A 
ATOM      8  C   UNL d   1     -41.281-123.680 -50.491  0.00  0.00     0.027 A 
ATOM      9  C   UNL d   1     -42.929-122.824 -48.848  0.00  0.00     0.149 A 
ATOM     10  C   UNL d   1     -42.531-123.532 -48.703  0.00  0.00     0.149 A 
ENDROOT
BRANCH   1  11
ATOM     11  C   UNL d   1     -41.380-122.121 -52.020  0.00  0.00     0.211 C 
ATOM     12  O   UNL d   1     -41.475-122.433 -52.778  0.00  0.00    -0.644 OA
ATOM     13  O   UNL d   1     -41.123-121.336 -52.024  0.00  0.00    -0.644 OA
ENDBRANCH   1  11
TORSDOF 1
ENDMDL
