MODEL 1
REMARK VINA RESULT:      13.9      0.000      0.000
REMARK  3 active torsions:
REMARK  status: ('A' for Active; 'I' for Inactive)
REMARK    1  A    between atoms: C_14  and  C_4 
REMARK    2  A    between atoms: C_5  and  S_10 
REMARK    3  A    between atoms: S_10  and  C_14 
ROOT
ATOM      1  N   UNL d   1     -50.590  24.774  33.326  0.00  0.00    -0.226 NA
ATOM      2  N   UNL d   1     -51.444  25.836  33.335  0.00  0.00    -0.288 N 
ATOM      3  C   UNL d   1     -50.648  25.619  33.336  0.00  0.00     0.148 A 
ATOM      4  C   UNL d   1     -51.375  24.509  33.318  0.00  0.00     0.107 A 
ATOM      5  C   UNL d   1     -51.897  25.130  33.323  0.00  0.00     0.101 A 
ATOM      6  C   UNL d   1     -51.647  26.635  33.344  0.00  0.00     0.082 A 
ATOM      7  C   UNL d   1     -50.043  26.198  33.348  0.00  0.00     0.037 A 
ATOM      8  C   UNL d   1     -51.042  27.214  33.355  0.00  0.00     0.019 A 
ATOM      9  C   UNL d   1     -50.271  27.005  33.357  0.00  0.00     0.005 A 
ENDROOT
BRANCH   4  10
ATOM     10  C   UNL d   1     -51.590  23.718  33.306  0.00  0.00     0.058 C 
BRANCH  10  11
ATOM     11  S   UNL d   1     -51.954  23.382  33.946  0.00  0.00    -0.059 SA
BRANCH  11  12
ATOM     12  C   UNL d   1     -52.807  23.335  33.987  0.00  0.00     0.141 A 
ATOM     13  N   UNL d   1     -53.324  23.243  34.625  0.00  0.00    -0.230 NA
ATOM     14  C   UNL d   1     -54.077  23.242  34.281  0.00  0.00     0.107 A 
ATOM     15  C   UNL d   1     -54.030  23.327  33.496  0.00  0.00     0.058 A 
ATOM     16  S   UNL d   1     -53.253  23.385  33.306  0.00  0.00    -0.059 SA
ENDBRANCH  11  12
ENDBRANCH  10  11
ENDBRANCH   4  10
TORSDOF 3
ENDMDL
