MODEL 1
REMARK VINA RESULT:      26.2      0.000      0.000
REMARK  1 active torsions:
REMARK  status: ('A' for Active; 'I' for Inactive)
REMARK    1  A    between atoms: C_24  and  N_4 
ROOT
ATOM      1  C   UNL d   1     -43.407-121.716 -52.845  0.00  0.00     0.111 A 
ATOM      2  C   UNL d   1     -42.430-122.548 -53.427  0.00  0.00     0.062 A 
ATOM      3  C   UNL d   1     -42.800-122.255 -52.784  0.00  0.00     0.018 A 
ATOM      4  N   UNL d   1     -41.813-123.313 -49.341  0.00  0.00    -0.305 N 
ATOM      5  C   UNL d   1     -43.645-121.465 -53.602  0.00  0.00     0.213 A 
ATOM      6  C   UNL d   1     -42.668-122.296 -54.185  0.00  0.00     0.101 A 
ATOM      7  C   UNL d   1     -42.551-122.614 -50.199  0.00  0.00     0.018 A 
ATOM      8  C   UNL d   1     -41.937-123.161 -50.139  0.00  0.00     0.064 A 
ATOM      9  O   UNL d   1     -43.270-121.759 -54.280  0.00  0.00    -0.288 OA
ATOM     10  C   UNL d   1     -41.818-123.092 -53.370  0.00  0.00     0.194 A 
ATOM     11  C   UNL d   1     -42.340-122.871 -48.919  0.00  0.00     0.064 A 
ATOM     12  C   UNL d   1     -42.436-122.640 -51.623  0.00  0.00     0.001 A 
ATOM     13  C   UNL d   1     -42.803-122.434 -49.439  0.00  0.00     0.018 A 
ATOM     14  C   UNL d   1     -42.802-122.352 -50.950  0.00  0.00     0.002 A 
ATOM     15  C   UNL d   1     -43.787-121.416 -52.171  0.00  0.00     0.105 C 
ATOM     16  N   UNL d   1     -44.183-121.104 -51.477  0.00  0.00    -0.191 NA
ATOM     17  C   UNL d   1     -41.583-123.436 -50.832  0.00  0.00     0.018 A 
ATOM     18  C   UNL d   1     -42.287-122.596 -54.866  0.00  0.00     0.002 A 
ATOM     19  C   UNL d   1     -41.674-123.143 -54.777  0.00  0.00     0.042 A 
ATOM     20  C   UNL d   1     -41.436-123.394 -54.020  0.00  0.00     0.019 A 
ATOM     21  C   UNL d   1     -41.836-123.172 -51.566  0.00  0.00     0.002 A 
ATOM     22  O   UNL d   1     -41.577-123.346 -52.603  0.00  0.00    -0.287 OA
ATOM     23  N   UNL d   1     -44.263-120.913 -53.688  0.00  0.00    -0.120 N 
ATOM     24  C   UNL d   1     -42.479-122.792 -48.097  0.00  0.00     0.018 A 
ATOM     25  C   UNL d   1     -43.402-121.919 -49.145  0.00  0.00     0.002 A 
ATOM     26  C   UNL d   1     -41.124-123.610 -55.105  0.00  0.00     0.009 C 
ATOM     27  C   UNL d   1     -41.783-123.004 -55.561  0.00  0.00     0.009 C 
ATOM     28  C   UNL d   1     -43.531-121.850 -48.334  0.00  0.00     0.000 A 
ATOM     29  C   UNL d   1     -43.062-122.292 -47.811  0.00  0.00     0.002 A 
ENDROOT
BRANCH   4  30
ATOM     30  C   UNL d   1     -41.265-123.816 -49.008  0.00  0.00     0.080 C 
ATOM     31  C   UNL d   1     -41.126-123.813 -48.193  0.00  0.00     0.021 C 
ENDBRANCH   4  30
TORSDOF 1
ENDMDL
