MODEL 1
REMARK VINA RESULT:     174.1      0.000      0.000
REMARK  1 active torsions:
REMARK  status: ('A' for Active; 'I' for Inactive)
REMARK    1  A    between atoms: C_24  and  N_4 
ROOT
ATOM      1  C   UNL d   1      61.976  44.780  49.848  0.00  0.00     0.111 A 
ATOM      2  C   UNL d   1      61.603  44.209  51.081  0.00  0.00     0.062 A 
ATOM      3  C   UNL d   1      61.657  44.839  50.595  0.00  0.00     0.018 A 
ATOM      4  N   UNL d   1      60.449  48.209  51.660  0.00  0.00    -0.305 N 
ATOM      5  C   UNL d   1      62.253  44.039  49.588  0.00  0.00     0.213 A 
ATOM      6  C   UNL d   1      61.879  43.468  50.821  0.00  0.00     0.101 A 
ATOM      7  C   UNL d   1      60.999  47.370  50.786  0.00  0.00     0.018 A 
ATOM      8  C   UNL d   1      60.676  47.428  51.543  0.00  0.00     0.064 A 
ATOM      9  O   UNL d   1      62.203  43.374  50.082  0.00  0.00    -0.288 OA
ATOM     10  C   UNL d   1      61.281  44.265  51.834  0.00  0.00     0.194 A 
ATOM     11  C   UNL d   1      60.629  48.623  50.990  0.00  0.00     0.064 A 
ATOM     12  C   UNL d   1      61.234  45.975  50.993  0.00  0.00     0.001 A 
ATOM     13  C   UNL d   1      60.970  48.114  50.442  0.00  0.00     0.018 A 
ATOM     14  C   UNL d   1      61.281  46.635  50.510  0.00  0.00     0.002 A 
ATOM     15  C   UNL d   1      62.030  45.440  49.348  0.00  0.00     0.105 C 
ATOM     16  N   UNL d   1      62.087  46.120  48.828  0.00  0.00    -0.191 NA
ATOM     17  C   UNL d   1      60.640  46.749  52.010  0.00  0.00     0.018 A 
ATOM     18  C   UNL d   1      61.827  42.800  51.321  0.00  0.00     0.002 A 
ATOM     19  C   UNL d   1      61.498  42.886  52.075  0.00  0.00     0.042 A 
ATOM     20  C   UNL d   1      61.222  43.628  52.335  0.00  0.00     0.019 A 
ATOM     21  C   UNL d   1      60.919  46.031  51.730  0.00  0.00     0.002 A 
ATOM     22  O   UNL d   1      61.002  45.015  52.097  0.00  0.00    -0.287 OA
ATOM     23  N   UNL d   1      62.583  43.955  48.828  0.00  0.00    -0.120 N 
ATOM     24  C   UNL d   1      60.530  49.427  50.781  0.00  0.00     0.018 A 
ATOM     25  C   UNL d   1      61.213  48.402  49.688  0.00  0.00     0.002 A 
ATOM     26  C   UNL d   1      61.288  42.565  52.768  0.00  0.00     0.009 C 
ATOM     27  C   UNL d   1      61.715  42.119  51.975  0.00  0.00     0.009 C 
ATOM     28  C   UNL d   1      61.111  49.196  49.493  0.00  0.00     0.000 A 
ATOM     29  C   UNL d   1      60.766  49.708  50.049  0.00  0.00     0.002 A 
ENDROOT
BRANCH   4  30
ATOM     30  C   UNL d   1      60.104  48.534  52.322  0.00  0.00     0.080 C 
ATOM     31  C   UNL d   1      60.152  49.346  52.471  0.00  0.00     0.021 C 
ENDBRANCH   4  30
TORSDOF 1
ENDMDL
