MODEL 1
REMARK VINA RESULT:      -7.8      0.000      0.000
REMARK  1 active torsions:
REMARK  status: ('A' for Active; 'I' for Inactive)
REMARK    1  A    between atoms: C_6  and  C_2 
ROOT
ATOM      1  C   UNL d   1     -48.104  13.189  22.577  0.00  0.00     0.018 A 
ATOM      2  C   UNL d   1     -48.380  12.625  23.119  0.00  0.00     0.002 A 
ATOM      3  C   UNL d   1     -49.186  12.429  23.139  0.00  0.00     0.000 A 
ATOM      4  C   UNL d   1     -48.624  13.551  22.066  0.00  0.00     0.002 A 
ATOM      5  C   UNL d   1     -49.723  12.804  22.610  0.00  0.00     0.000 A 
ATOM      6  C   UNL d   1     -49.440  13.363  22.076  0.00  0.00     0.000 A 
ATOM      7  C   UNL d   1     -49.454  11.870  23.676  0.00  0.00     0.000 A 
ATOM      8  C   UNL d   1     -50.514  12.609  22.633  0.00  0.00     0.000 A 
ATOM      9  C   UNL d   1     -50.260  11.675  23.696  0.00  0.00     0.000 A 
ATOM     10  C   UNL d   1     -50.779  12.037  23.185  0.00  0.00     0.000 A 
ENDROOT
BRANCH   1  11
ATOM     11  C   UNL d   1     -47.301  13.382  22.559  0.00  0.00     0.090 A 
ATOM     12  N   UNL d   1     -46.681  13.014  22.221  0.00  0.00    -0.219 NA
ATOM     13  C   UNL d   1     -46.002  13.455  22.379  0.00  0.00     0.215 A 
ATOM     14  S   UNL d   1     -46.245  14.107  22.829  0.00  0.00    -0.045 SA
ATOM     15  N   UNL d   1     -45.212  13.278  22.132  0.00  0.00    -0.120 N 
ATOM     16  C   UNL d   1     -47.034  14.054  22.932  0.00  0.00     0.058 A 
ENDBRANCH   1  11
TORSDOF 1
ENDMDL
MODEL 2
REMARK VINA RESULT:      -7.7      2.224      3.623
REMARK  1 active torsions:
REMARK  status: ('A' for Active; 'I' for Inactive)
REMARK    1  A    between atoms: C_6  and  C_2 
ROOT
ATOM      1  C   UNL d   1     -48.628  13.980  23.017  0.00  0.00     0.018 A 
ATOM      2  C   UNL d   1     -47.893  14.307  22.816  0.00  0.00     0.002 A 
ATOM      3  C   UNL d   1     -47.218  13.826  22.793  0.00  0.00     0.000 A 
ATOM      4  C   UNL d   1     -48.687  13.187  23.192  0.00  0.00     0.002 A 
ATOM      5  C   UNL d   1     -47.279  13.007  22.974  0.00  0.00     0.000 A 
ATOM      6  C   UNL d   1     -48.013  12.690  23.173  0.00  0.00     0.000 A 
ATOM      7  C   UNL d   1     -46.493  14.154  22.594  0.00  0.00     0.000 A 
ATOM      8  C   UNL d   1     -46.613  12.537  22.951  0.00  0.00     0.000 A 
ATOM      9  C   UNL d   1     -45.818  13.673  22.571  0.00  0.00     0.000 A 
ATOM     10  C   UNL d   1     -45.877  12.880  22.746  0.00  0.00     0.000 A 
ENDROOT
BRANCH   1  11
ATOM     11  C   UNL d   1     -49.299  14.461  23.039  0.00  0.00     0.090 A 
ATOM     12  N   UNL d   1     -49.537  15.006  23.569  0.00  0.00    -0.219 NA
ATOM     13  C   UNL d   1     -50.256  15.319  23.312  0.00  0.00     0.215 A 
ATOM     14  S   UNL d   1     -50.438  14.936  22.601  0.00  0.00    -0.045 SA
ATOM     15  N   UNL d   1     -50.716  15.915  23.698  0.00  0.00    -0.120 N 
ATOM     16  C   UNL d   1     -49.853  14.418  22.444  0.00  0.00     0.058 A 
ENDBRANCH   1  11
TORSDOF 1
ENDMDL
MODEL 3
REMARK VINA RESULT:      -7.6      1.718      2.586
REMARK  1 active torsions:
REMARK  status: ('A' for Active; 'I' for Inactive)
REMARK    1  A    between atoms: C_6  and  C_2 
ROOT
ATOM      1  C   UNL d   1     -46.967  12.941  23.120  0.00  0.00     0.018 A 
ATOM      2  C   UNL d   1     -47.764  12.972  22.892  0.00  0.00     0.002 A 
ATOM      3  C   UNL d   1     -48.110  13.698  22.694  0.00  0.00     0.000 A 
ATOM      4  C   UNL d   1     -46.525  13.625  23.149  0.00  0.00     0.002 A 
ATOM      5  C   UNL d   1     -47.654  14.404  22.724  0.00  0.00     0.000 A 
ATOM      6  C   UNL d   1     -46.863  14.365  22.952  0.00  0.00     0.000 A 
ATOM      7  C   UNL d   1     -48.899  13.723  22.469  0.00  0.00     0.000 A 
ATOM      8  C   UNL d   1     -47.999  15.117  22.528  0.00  0.00     0.000 A 
ATOM      9  C   UNL d   1     -49.246  14.450  22.270  0.00  0.00     0.000 A 
ATOM     10  C   UNL d   1     -48.804  15.133  22.299  0.00  0.00     0.000 A 
ENDROOT
BRANCH   1  11
ATOM     11  C   UNL d   1     -46.623  12.217  23.317  0.00  0.00     0.090 A 
ATOM     12  N   UNL d   1     -45.861  11.986  23.339  0.00  0.00    -0.219 NA
ATOM     13  C   UNL d   1     -45.837  11.196  23.576  0.00  0.00     0.215 A 
ATOM     14  S   UNL d   1     -46.623  10.963  23.696  0.00  0.00    -0.045 SA
ATOM     15  N   UNL d   1     -45.147  10.717  23.677  0.00  0.00    -0.120 N 
ATOM     16  C   UNL d   1     -47.092  11.588  23.537  0.00  0.00     0.058 A 
ENDBRANCH   1  11
TORSDOF 1
ENDMDL
MODEL 4
REMARK VINA RESULT:      -7.4      1.341      1.678
REMARK  1 active torsions:
REMARK  status: ('A' for Active; 'I' for Inactive)
REMARK    1  A    between atoms: C_6  and  C_2 
ROOT
ATOM      1  C   UNL d   1     -48.196  13.904  22.557  0.00  0.00     0.018 A 
ATOM      2  C   UNL d   1     -48.757  13.503  22.096  0.00  0.00     0.002 A 
ATOM      3  C   UNL d   1     -49.530  13.797  22.037  0.00  0.00     0.000 A 
ATOM      4  C   UNL d   1     -48.404  14.586  22.950  0.00  0.00     0.002 A 
ATOM      5  C   UNL d   1     -49.745  14.501  22.443  0.00  0.00     0.000 A 
ATOM      6  C   UNL d   1     -49.181  14.893  22.899  0.00  0.00     0.000 A 
ATOM      7  C   UNL d   1     -50.082  13.397  21.580  0.00  0.00     0.000 A 
ATOM      8  C   UNL d   1     -50.506  14.787  22.382  0.00  0.00     0.000 A 
ATOM      9  C   UNL d   1     -50.855  13.691  21.520  0.00  0.00     0.000 A 
ATOM     10  C   UNL d   1     -51.063  14.373  21.914  0.00  0.00     0.000 A 
ENDROOT
BRANCH   1  11
ATOM     11  C   UNL d   1     -47.427  13.610  22.615  0.00  0.00     0.090 A 
ATOM     12  N   UNL d   1     -46.786  13.723  22.155  0.00  0.00    -0.219 NA
ATOM     13  C   UNL d   1     -46.160  13.291  22.474  0.00  0.00     0.215 A 
ATOM     14  S   UNL d   1     -46.456  12.913  23.150  0.00  0.00    -0.045 SA
ATOM     15  N   UNL d   1     -45.370  13.243  22.174  0.00  0.00    -0.120 N 
ATOM     16  C   UNL d   1     -47.224  13.112  23.226  0.00  0.00     0.058 A 
ENDBRANCH   1  11
TORSDOF 1
ENDMDL
MODEL 5
REMARK VINA RESULT:      -6.2      2.148      3.111
REMARK  1 active torsions:
REMARK  status: ('A' for Active; 'I' for Inactive)
REMARK    1  A    between atoms: C_6  and  C_2 
ROOT
ATOM      1  C   UNL d   1     -48.007  13.850  23.040  0.00  0.00     0.018 A 
ATOM      2  C   UNL d   1     -48.186  13.074  23.273  0.00  0.00     0.002 A 
ATOM      3  C   UNL d   1     -47.576  12.521  23.370  0.00  0.00     0.000 A 
ATOM      4  C   UNL d   1     -47.235  14.068  22.906  0.00  0.00     0.002 A 
ATOM      5  C   UNL d   1     -46.777  12.746  23.232  0.00  0.00     0.000 A 
ATOM      6  C   UNL d   1     -46.610  13.519  23.001  0.00  0.00     0.000 A 
ATOM      7  C   UNL d   1     -47.757  11.755  23.601  0.00  0.00     0.000 A 
ATOM      8  C   UNL d   1     -46.181  12.199  23.329  0.00  0.00     0.000 A 
ATOM      9  C   UNL d   1     -47.147  11.201  23.698  0.00  0.00     0.000 A 
ATOM     10  C   UNL d   1     -46.374  11.419  23.565  0.00  0.00     0.000 A 
ENDROOT
BRANCH   1  11
ATOM     11  C   UNL d   1     -48.616  14.400  22.943  0.00  0.00     0.090 A 
ATOM     12  N   UNL d   1     -49.081  14.767  23.477  0.00  0.00    -0.219 NA
ATOM     13  C   UNL d   1     -49.599  15.263  23.069  0.00  0.00     0.215 A 
ATOM     14  S   UNL d   1     -49.423  15.176  22.264  0.00  0.00    -0.045 SA
ATOM     15  N   UNL d   1     -50.193  15.762  23.405  0.00  0.00    -0.120 N 
ATOM     16  C   UNL d   1     -48.826  14.651  22.198  0.00  0.00     0.058 A 
ENDBRANCH   1  11
TORSDOF 1
ENDMDL
