MODEL 1
REMARK VINA RESULT:      46.9      0.000      0.000
REMARK  3 active torsions:
REMARK  status: ('A' for Active; 'I' for Inactive)
REMARK       I    between atoms: N_3  and  C_1 
REMARK    1  A    between atoms: C_6  and  C_1 
REMARK    2  A    between atoms: N_2  and  C_4 
REMARK    3  A    between atoms: C_9  and  N_3 
ROOT
ATOM      1  C   UNL d   1     -55.496-102.357 -37.761  0.00  0.00     0.064 A 
ATOM      2  C   UNL d   1     -56.014-102.806 -38.231  0.00  0.00     0.019 A 
ATOM      3  C   UNL d   1     -54.846-101.965 -38.102  0.00  0.00     0.019 A 
ATOM      4  C   UNL d   1     -55.220-102.459 -39.382  0.00  0.00     0.085 A 
ATOM      5  C   UNL d   1     -55.869-102.852 -39.041  0.00  0.00     0.021 A 
ATOM      6  C   UNL d   1     -54.711-102.018 -38.916  0.00  0.00     0.021 A 
ENDROOT
BRANCH   4   7
ATOM      7  N   UNL d   1     -55.087-102.515 -40.204  0.00  0.00    -0.208 NA
ATOM      8  C   UNL d   1     -55.138-101.842 -40.680  0.00  0.00     0.279 C 
ATOM      9  O   UNL d   1     -55.322-101.105 -40.341  0.00  0.00    -0.265 OA
BRANCH   8  10
ATOM     10  C   UNL d   1     -55.005-101.900 -41.497  0.00  0.00     0.058 A 
ATOM     11  C   UNL d   1     -54.964-102.654 -41.849  0.00  0.00     0.005 A 
ATOM     12  C   UNL d   1     -54.832-102.708 -42.659  0.00  0.00     0.000 A 
ATOM     13  C   UNL d   1     -54.742-102.014 -43.118  0.00  0.00     0.000 A 
ATOM     14  C   UNL d   1     -54.785-101.281 -42.757  0.00  0.00     0.000 A 
ATOM     15  C   UNL d   1     -54.917-101.217 -41.949  0.00  0.00     0.005 A 
ENDBRANCH   8  10
ENDBRANCH   4   7
BRANCH   1  16
ATOM     16  N   UNL d   1     -55.636-102.306 -36.937  0.00  0.00    -0.304 N 
ATOM     17  C   UNL d   1     -55.257-101.729 -36.496  0.00  0.00     0.080 A 
ATOM     18  C   UNL d   1     -55.397-101.677 -35.671  0.00  0.00     0.019 A 
ATOM     19  C   UNL d   1     -55.918-102.213 -35.323  0.00  0.00     0.003 A 
ATOM     20  C   UNL d   1     -56.292-102.787 -35.771  0.00  0.00     0.019 A 
ATOM     21  C   UNL d   1     -56.156-102.838 -36.577  0.00  0.00     0.080 A 
ENDBRANCH   1  16
TORSDOF 3
ENDMDL
