MODEL 1
REMARK VINA RESULT:      -2.4      0.000      0.000
REMARK  6 active torsions:
REMARK  status: ('A' for Active; 'I' for Inactive)
REMARK    1  A    between atoms: C_16  and  C_2 
REMARK    2  A    between atoms: C_11  and  C_7 
REMARK    3  A    between atoms: S_17  and  C_9 
REMARK    4  A    between atoms: O_20  and  C_11 
REMARK    5  A    between atoms: C_13  and  C_19 
REMARK    6  A    between atoms: C_19  and  S_17 
ROOT
ATOM      1  N   UNL d   1     -42.731-122.526 -49.756  0.00  0.00    -0.191 N 
ATOM      2  C   UNL d   1     -42.837-122.713 -48.965  0.00  0.00     0.187 A 
ATOM      3  N   UNL d   1     -43.622-122.571 -48.777  0.00  0.00    -0.127 NA
ATOM      4  C   UNL d   1     -43.442-122.267 -50.069  0.00  0.00     0.187 A 
ATOM      5  N   UNL d   1     -42.053-122.559 -50.249  0.00  0.00    -0.156 NA
ATOM      6  N   UNL d   1     -44.004-122.295 -49.455  0.00  0.00    -0.127 NA
ATOM      7  C   UNL d   1     -42.105-122.333 -51.041  0.00  0.00     0.131 A 
ATOM      8  C   UNL d   1     -43.494-122.042 -50.861  0.00  0.00     0.043 A 
ATOM      9  C   UNL d   1     -42.827-122.074 -51.346  0.00  0.00     0.031 A 
ENDROOT
BRANCH   7  10
ATOM     10  S   UNL d   1     -41.437-122.366 -51.526  0.00  0.00    -0.064 SA
BRANCH  10  11
ATOM     11  C   UNL d   1     -41.380-121.868 -52.179  0.00  0.00     0.062 C 
BRANCH  11  12
ATOM     12  C   UNL d   1     -41.367-122.186 -52.932  0.00  0.00     0.107 A 
ATOM     13  O   UNL d   1     -41.594-121.802 -53.621  0.00  0.00    -0.301 OA
ATOM     14  C   UNL d   1     -41.495-122.315 -54.251  0.00  0.00     0.163 A 
ATOM     15  C   UNL d   1     -41.201-123.033 -53.956  0.00  0.00     0.032 A 
ATOM     16  C   UNL d   1     -41.123-122.948 -53.139  0.00  0.00     0.027 A 
BRANCH  14  17
ATOM     17  C   UNL d   1     -41.655-122.160 -55.042  0.00  0.00     0.319 C 
ATOM     18  O   UNL d   1     -41.174-121.651 -55.487  0.00  0.00    -0.257 OA
BRANCH  17  19
ATOM     19  O   UNL d   1     -42.304-122.515 -55.406  0.00  0.00    -0.294 OA
ATOM     20  C   UNL d   1     -42.686-122.151 -56.043  0.00  0.00     0.185 C 
ENDBRANCH  17  19
ENDBRANCH  14  17
ENDBRANCH  11  12
ENDBRANCH  10  11
ENDBRANCH   7  10
BRANCH   2  21
ATOM     21  C   UNL d   1     -42.266-122.991 -48.447  0.00  0.00     0.038 A 
ATOM     22  C   UNL d   1     -42.259-122.720 -47.665  0.00  0.00     0.003 A 
ATOM     23  C   UNL d   1     -41.684-122.999 -47.138  0.00  0.00     0.000 A 
ATOM     24  C   UNL d   1     -41.123-123.546 -47.396  0.00  0.00     0.000 A 
ATOM     25  C   UNL d   1     -41.130-123.817 -48.178  0.00  0.00     0.000 A 
ATOM     26  C   UNL d   1     -41.707-123.534 -48.699  0.00  0.00     0.003 A 
ENDBRANCH   2  21
TORSDOF 6
ENDMDL
