MODEL 1
REMARK VINA RESULT:     144.0      0.000      0.000
REMARK  7 active torsions:
REMARK  status: ('A' for Active; 'I' for Inactive)
REMARK    1  A    between atoms: C_10  and  N_3 
REMARK    2  A    between atoms: C_12  and  C_10 
REMARK    3  A    between atoms: C_16  and  N_11 
REMARK    4  A    between atoms: O_29  and  C_15 
REMARK    5  A    between atoms: C_27  and  C_16 
REMARK    6  A    between atoms: O_30  and  C_17 
REMARK    7  A    between atoms: C_23  and  C_27 
ROOT
ATOM      1  C   UNL d   1      61.745  43.646  51.135  0.00  0.00     0.191 A 
ATOM      2  C   UNL d   1      62.222  43.560  50.452  0.00  0.00     0.173 A 
ATOM      3  N   UNL d   1      62.568  42.227  50.861  0.00  0.00    -0.224 N 
ATOM      4  N   UNL d   1      61.406  44.399  51.128  0.00  0.00    -0.042 NA
ATOM      5  C   UNL d   1      61.627  44.951  50.391  0.00  0.00     0.722 A 
ATOM      6  N   UNL d   1      61.671  43.031  51.689  0.00  0.00    -0.240 N 
ATOM      7  C   UNL d   1      62.091  42.313  51.544  0.00  0.00     0.343 A 
ATOM      8  C   UNL d   1      62.624  42.859  50.324  0.00  0.00     0.288 A 
ATOM      9  N   UNL d   1      62.169  44.261  50.036  0.00  0.00    -0.132 N 
ATOM     10  N   UNL d   1      61.582  45.651  49.964  0.00  0.00    -0.139 N 
ATOM     11  O   UNL d   1      62.020  41.684  52.103  0.00  0.00    -0.245 OA
ATOM     12  O   UNL d   1      63.100  42.773  49.641  0.00  0.00    -0.265 OA
ATOM     13  C   UNL d   1      62.554  44.414  49.327  0.00  0.00     0.100 A 
ATOM     14  C   UNL d   1      61.194  43.117  52.373  0.00  0.00     0.105 C 
ATOM     15  C   UNL d   1      62.486  45.142  48.914  0.00  0.00     0.039 A 
ATOM     16  C   UNL d   1      61.989  45.775  49.240  0.00  0.00     0.100 A 
ENDROOT
BRANCH  10  17
ATOM     17  C   UNL d   1      61.272  46.405  49.910  0.00  0.00     0.098 C 
BRANCH  17  18
ATOM     18  C   UNL d   1      61.612  47.014  50.337  0.00  0.00     0.020 C 
BRANCH  18  19
ATOM     19  C   UNL d   1      61.189  47.695  50.473  0.00  0.00     0.004 A 
ATOM     20  C   UNL d   1      61.102  47.971  51.236  0.00  0.00     0.026 A 
ATOM     21  C   UNL d   1      60.679  48.655  51.378  0.00  0.00     0.116 A 
ATOM     22  C   UNL d   1      60.342  49.063  50.747  0.00  0.00     0.116 A 
ATOM     23  C   UNL d   1      60.430  48.786  49.988  0.00  0.00     0.026 A 
ATOM     24  C   UNL d   1      60.857  48.097  49.849  0.00  0.00     0.002 A 
BRANCH  21  25
ATOM     25  O   UNL d   1      60.590  48.933  52.143  0.00  0.00    -0.326 OA
ATOM     26  C   UNL d   1      61.152  49.414  52.470  0.00  0.00     0.181 C 
ENDBRANCH  21  25
BRANCH  22  27
ATOM     27  O   UNL d   1      59.968  49.707  51.085  0.00  0.00    -0.326 OA
ATOM     28  C   UNL d   1      59.177  49.670  51.269  0.00  0.00     0.181 C 
ENDBRANCH  22  27
ENDBRANCH  18  19
ENDBRANCH  17  18
ENDBRANCH  10  17
BRANCH   3  29
ATOM     29  C   UNL d   1      63.083  41.760  50.389  0.00  0.00     0.090 C 
BRANCH  29  30
ATOM     30  C   UNL d   1      62.892  40.964  50.238  0.00  0.00     0.045 A 
ATOM     31  C   UNL d   1      62.930  40.676  49.452  0.00  0.00     0.141 A 
ATOM     32  F   UNL d   1      63.158  41.182  48.828  0.00  0.00    -0.204 F 
ATOM     33  C   UNL d   1      62.739  39.876  49.294  0.00  0.00     0.030 A 
ATOM     34  C   UNL d   1      62.513  39.375  49.919  0.00  0.00     0.002 A 
ATOM     35  C   UNL d   1      62.476  39.668  50.701  0.00  0.00     0.000 A 
ATOM     36  C   UNL d   1      62.667  40.464  50.854  0.00  0.00     0.004 A 
ENDBRANCH  29  30
ENDBRANCH   3  29
TORSDOF 7
ENDMDL
