MODEL 1
REMARK VINA RESULT:      23.0      0.000      0.000
REMARK  4 active torsions:
REMARK  status: ('A' for Active; 'I' for Inactive)
REMARK    1  A    between atoms: C_6  and  C_1 
REMARK    2  A    between atoms: O_15  and  C_6 
REMARK    3  A    between atoms: C_7  and  C_8 
REMARK    4  A    between atoms: C_16  and  O_15 
ROOT
ATOM      1  C   UNL d   1     -56.180 -99.260 -45.047  0.00  0.00     0.145 A 
ATOM      2  N   UNL d   1     -56.815 -99.096 -45.537  0.00  0.00    -0.240 NA
ATOM      3  C   UNL d   1     -56.444 -99.264 -44.266  0.00  0.00     0.026 A 
ATOM      4  C   UNL d   1     -57.252 -99.102 -44.272  0.00  0.00     0.019 A 
ATOM      5  C   UNL d   1     -57.488 -98.995 -45.063  0.00  0.00     0.082 A 
ATOM      6  C   UNL d   1     -58.601 -98.862 -43.844  0.00  0.00     0.065 A 
ATOM      7  C   UNL d   1     -57.811 -99.035 -43.660  0.00  0.00     0.008 A 
ATOM      8  C   UNL d   1     -58.271 -98.825 -45.243  0.00  0.00     0.019 A 
ATOM      9  C   UNL d   1     -58.834 -98.757 -44.631  0.00  0.00     0.008 A 
ENDROOT
BRANCH   1  10
ATOM     10  C   UNL d   1     -55.403 -99.398 -45.288  0.00  0.00     0.318 C 
ATOM     11  O   UNL d   1     -54.911 -98.771 -45.489  0.00  0.00    -0.257 OA
BRANCH  10  12
ATOM     12  O   UNL d   1     -55.115-100.175 -45.327  0.00  0.00    -0.270 OA
BRANCH  12  13
ATOM     13  C   UNL d   1     -54.712-100.493 -44.686  0.00  0.00     0.126 C 
ATOM     14  C   UNL d   1     -54.736-101.303 -44.535  0.00  0.00     0.029 C 
ENDBRANCH  12  13
ENDBRANCH  10  12
ENDBRANCH   1  10
BRANCH   6  15
ATOM     15  C   UNL d   1     -59.155 -98.795 -43.240  0.00  0.00     0.211 C 
ATOM     16  O   UNL d   1     -59.959 -98.764 -43.421  0.00  0.00    -0.644 OA
ATOM     17  O   UNL d   1     -58.908 -98.760 -42.452  0.00  0.00    -0.644 OA
ENDBRANCH   6  15
TORSDOF 4
ENDMDL
