MODEL 1
REMARK VINA RESULT:      20.5      0.000      0.000
REMARK  4 active torsions:
REMARK  status: ('A' for Active; 'I' for Inactive)
REMARK    1  A    between atoms: S_4  and  C_1 
REMARK    2  A    between atoms: C_7  and  S_4 
REMARK       I    between atoms: C_5  and  N_6 
REMARK    3  A    between atoms: C_12  and  C_5 
REMARK    4  A    between atoms: N_6  and  C_7 
ROOT
ATOM      1  C   UNL d   1     -56.266 -98.860 -44.450  0.00  0.00     0.141 C 
ENDROOT
BRANCH   1   2
ATOM      2  N   UNL d   1     -56.044 -99.627 -44.193  0.00  0.00    -0.199 NA
ATOM      3  C   UNL d   1     -55.352 -99.977 -44.475  0.00  0.00     0.280 C 
ATOM      4  O   UNL d   1     -54.866 -99.567 -45.022  0.00  0.00    -0.265 OA
BRANCH   3   5
ATOM      5  C   UNL d   1     -55.143-100.728 -44.218  0.00  0.00     0.058 A 
ATOM      6  C   UNL d   1     -55.116-100.900 -43.404  0.00  0.00     0.005 A 
ATOM      7  C   UNL d   1     -54.908-101.647 -43.138  0.00  0.00     0.000 A 
ATOM      8  C   UNL d   1     -54.721-102.248 -43.684  0.00  0.00     0.000 A 
ATOM      9  C   UNL d   1     -54.748-102.077 -44.505  0.00  0.00     0.000 A 
ATOM     10  C   UNL d   1     -54.962-101.307 -44.765  0.00  0.00     0.005 A 
ENDBRANCH   3   5
ENDBRANCH   1   2
BRANCH   1  11
ATOM     11  S   UNL d   1     -56.887 -98.756 -45.003  0.00  0.00    -0.027 SA
BRANCH  11  12
ATOM     12  C   UNL d   1     -57.692 -98.757 -44.735  0.00  0.00     0.196 A 
ATOM     13  N   UNL d   1     -58.296 -98.758 -45.295  0.00  0.00    -0.221 NA
ATOM     14  C   UNL d   1     -59.083 -98.759 -45.039  0.00  0.00     0.085 A 
ATOM     15  C   UNL d   1     -59.630 -98.760 -45.520  0.00  0.00     0.021 C 
ATOM     16  C   UNL d   1     -59.263 -98.758 -44.215  0.00  0.00     0.038 A 
ATOM     17  C   UNL d   1     -58.650 -98.757 -43.674  0.00  0.00     0.085 A 
ATOM     18  N   UNL d   1     -57.872 -98.756 -43.912  0.00  0.00    -0.221 NA
ATOM     19  C   UNL d   1     -58.827 -98.756 -42.897  0.00  0.00     0.021 C 
ENDBRANCH  11  12
ENDBRANCH   1  11
TORSDOF 4
ENDMDL
