MODEL 1
REMARK VINA RESULT:      -2.9      0.000      0.000
REMARK  2 active torsions:
REMARK  status: ('A' for Active; 'I' for Inactive)
REMARK    1  A    between atoms: N_7  and  C_3 
REMARK    2  A    between atoms: C_15  and  C_5 
ROOT
ATOM      1  N   UNL d   1      30.909  17.684 -24.271  0.00  0.00    -0.196 N 
ATOM      2  C   UNL d   1      30.329  17.084 -24.160  0.00  0.00     0.167 A 
ATOM      3  C   UNL d   1      31.695  17.543 -24.042  0.00  0.00     0.153 A 
ATOM      4  N   UNL d   1      29.917  18.539 -24.832  0.00  0.00    -0.163 NA
ATOM      5  C   UNL d   1      29.561  17.220 -24.384  0.00  0.00     0.055 A 
ATOM      6  N   UNL d   1      30.554  16.364 -23.823  0.00  0.00    -0.227 NA
ATOM      7  C   UNL d   1      31.902  16.827 -23.710  0.00  0.00     0.052 A 
ATOM      8  C   UNL d   1      29.346  17.949 -24.722  0.00  0.00     0.104 A 
ATOM      9  C   UNL d   1      31.327  16.223 -23.596  0.00  0.00     0.086 A 
ATOM     10  C   UNL d   1      32.609  16.533 -23.437  0.00  0.00     0.005 A 
ATOM     11  C   UNL d   1      28.567  18.079 -24.946  0.00  0.00     0.023 C 
ATOM     12  C   UNL d   1      31.695  15.571 -23.254  0.00  0.00     0.019 A 
ATOM     13  C   UNL d   1      32.500  15.769 -23.156  0.00  0.00     0.002 A 
ENDROOT
BRANCH   3  14
ATOM     14  N   UNL d   1      32.284  18.146 -24.153  0.00  0.00    -0.274 N 
ATOM     15  C   UNL d   1      32.706  18.793 -23.815  0.00  0.00     0.149 A 
ATOM     16  N   UNL d   1      33.240  19.090 -24.402  0.00  0.00    -0.225 NA
ATOM     17  C   UNL d   1      32.611  19.087 -23.040  0.00  0.00     0.041 C 
ATOM     18  C   UNL d   1      33.138  18.618 -25.096  0.00  0.00     0.120 A 
ATOM     19  C   UNL d   1      32.558  18.044 -24.947  0.00  0.00     0.104 A 
ENDBRANCH   3  14
BRANCH   5  20
ATOM     20  C   UNL d   1      28.993  16.633 -24.274  0.00  0.00     0.004 A 
ATOM     21  C   UNL d   1      28.539  16.617 -23.585  0.00  0.00     0.000 A 
ATOM     22  C   UNL d   1      27.973  16.035 -23.473  0.00  0.00     0.000 A 
ATOM     23  C   UNL d   1      27.855  15.458 -24.056  0.00  0.00     0.000 A 
ATOM     24  C   UNL d   1      28.299  15.466 -24.738  0.00  0.00     0.000 A 
ATOM     25  C   UNL d   1      28.873  16.059 -24.849  0.00  0.00     0.000 A 
ENDBRANCH   5  20
TORSDOF 2
ENDMDL
MODEL 2
REMARK VINA RESULT:      -0.5      0.947      4.358
REMARK  2 active torsions:
REMARK  status: ('A' for Active; 'I' for Inactive)
REMARK    1  A    between atoms: N_7  and  C_3 
REMARK    2  A    between atoms: C_15  and  C_5 
ROOT
ATOM      1  N   UNL d   1      29.939  16.516 -23.903  0.00  0.00    -0.196 N 
ATOM      2  C   UNL d   1      30.580  17.015 -24.127  0.00  0.00     0.167 A 
ATOM      3  C   UNL d   1      29.160  16.742 -24.084  0.00  0.00     0.153 A 
ATOM      4  N   UNL d   1      30.859  15.591 -23.331  0.00  0.00    -0.163 NA
ATOM      5  C   UNL d   1      31.340  16.795 -23.952  0.00  0.00     0.055 A 
ATOM      6  N   UNL d   1      30.419  17.721 -24.524  0.00  0.00    -0.227 NA
ATOM      7  C   UNL d   1      29.018  17.442 -24.476  0.00  0.00     0.052 A 
ATOM      8  C   UNL d   1      31.490  16.082 -23.552  0.00  0.00     0.104 A 
ATOM      9  C   UNL d   1      29.654  17.946 -24.703  0.00  0.00     0.086 A 
ATOM     10  C   UNL d   1      28.332  17.803 -24.724  0.00  0.00     0.005 A 
ATOM     11  C   UNL d   1      32.263  15.868 -23.378  0.00  0.00     0.023 C 
ATOM     12  C   UNL d   1      29.342  18.605 -25.085  0.00  0.00     0.019 A 
ATOM     13  C   UNL d   1      28.514  18.512 -25.096  0.00  0.00     0.002 A 
ENDROOT
BRANCH   3  14
ATOM     14  N   UNL d   1      28.511  16.241 -23.860  0.00  0.00    -0.274 N 
ATOM     15  C   UNL d   1      27.909  15.707 -24.112  0.00  0.00     0.149 A 
ATOM     16  N   UNL d   1      27.479  15.456 -23.427  0.00  0.00    -0.225 NA
ATOM     17  C   UNL d   1      27.765  15.470 -24.900  0.00  0.00     0.041 C 
ATOM     18  C   UNL d   1      27.824  15.842 -22.759  0.00  0.00     0.120 A 
ATOM     19  C   UNL d   1      28.452  16.319 -23.019  0.00  0.00     0.104 A 
ENDBRANCH   3  14
BRANCH   5  20
ATOM     20  C   UNL d   1      31.968  17.284 -24.171  0.00  0.00     0.004 A 
ATOM     21  C   UNL d   1      32.193  17.913 -23.687  0.00  0.00     0.000 A 
ATOM     22  C   UNL d   1      32.816  18.401 -23.902  0.00  0.00     0.000 A 
ATOM     23  C   UNL d   1      33.223  18.261 -24.610  0.00  0.00     0.000 A 
ATOM     24  C   UNL d   1      33.007  17.642 -25.093  0.00  0.00     0.000 A 
ATOM     25  C   UNL d   1      32.373  17.149 -24.871  0.00  0.00     0.000 A 
ENDBRANCH   5  20
TORSDOF 2
ENDMDL
