MODEL 1
REMARK VINA RESULT:      -9.6      0.000      0.000
REMARK  3 active torsions:
REMARK  status: ('A' for Active; 'I' for Inactive)
REMARK    1  A    between atoms: N_4  and  C_8 
REMARK    2  A    between atoms: N_12  and  C_6 
REMARK       I    between atoms: C_11  and  N_12 
REMARK    3  A    between atoms: C_14  and  C_11 
ROOT
ATOM      1  C   UNL d   1      50.877  34.284  52.236  0.00  0.00     0.279 C 
ATOM      2  N   UNL d   1      50.170  34.499  52.527  0.00  0.00    -0.208 NA
ATOM      3  O   UNL d   1      51.000  34.210  51.399  0.00  0.00    -0.265 OA
ENDROOT
BRANCH   1   4
ATOM      4  C   UNL d   1      51.508  34.128  52.741  0.00  0.00     0.059 A 
ATOM      5  C   UNL d   1      51.864  33.378  52.759  0.00  0.00     0.022 A 
ATOM      6  C   UNL d   1      52.495  33.234  53.268  0.00  0.00     0.070 A 
ATOM      7  C   UNL d   1      52.801  33.770  53.760  0.00  0.00     0.018 A 
ATOM      8  C   UNL d   1      52.480  34.520  53.773  0.00  0.00     0.002 A 
ATOM      9  C   UNL d   1      51.836  34.737  53.282  0.00  0.00     0.005 A 
BRANCH   6  10
ATOM     10  N   UNL d   1      52.849  32.445  53.269  0.00  0.00    -0.242 N 
ATOM     11  C   UNL d   1      53.669  32.359  53.222  0.00  0.00     0.267 A 
ATOM     12  C   UNL d   1      53.824  31.550  53.235  0.00  0.00     0.066 A 
ATOM     13  O   UNL d   1      54.247  33.026  53.168  0.00  0.00    -0.267 OA
ATOM     14  C   UNL d   1      53.136  31.148  53.288  0.00  0.00     0.066 A 
ATOM     15  C   UNL d   1      52.510  31.704  53.310  0.00  0.00     0.267 A 
ATOM     16  O   UNL d   1      51.671  31.558  53.365  0.00  0.00    -0.267 OA
ENDBRANCH   6  10
ENDBRANCH   1   4
BRANCH   2  17
ATOM     17  C   UNL d   1      49.516  34.660  52.003  0.00  0.00     0.089 A 
ATOM     18  C   UNL d   1      48.877  35.129  52.230  0.00  0.00     0.080 A 
ATOM     19  C   UNL d   1      48.710  35.534  52.958  0.00  0.00     0.283 A 
ATOM     20  C   UNL d   1      48.208  35.294  51.695  0.00  0.00     0.064 A 
ATOM     21  N   UNL d   1      47.982  35.922  52.872  0.00  0.00    -0.169 NA
ATOM     22  O   UNL d   1      49.201  35.546  53.668  0.00  0.00    -0.265 OA
ATOM     23  C   UNL d   1      47.674  35.776  52.098  0.00  0.00     0.282 A 
ATOM     24  O   UNL d   1      46.939  36.065  51.765  0.00  0.00    -0.265 OA
ATOM     25  C   UNL d   1      48.229  34.967  50.948  0.00  0.00     0.005 A 
ATOM     26  C   UNL d   1      48.847  34.504  50.706  0.00  0.00     0.002 A 
ATOM     27  C   UNL d   1      49.517  34.332  51.228  0.00  0.00     0.019 A 
ENDBRANCH   2  17
TORSDOF 3
ENDMDL
MODEL 2
REMARK VINA RESULT:      -9.4      1.048      1.563
REMARK  3 active torsions:
REMARK  status: ('A' for Active; 'I' for Inactive)
REMARK    1  A    between atoms: N_4  and  C_8 
REMARK    2  A    between atoms: N_12  and  C_6 
REMARK       I    between atoms: C_11  and  N_12 
REMARK    3  A    between atoms: C_14  and  C_11 
ROOT
ATOM      1  C   UNL d   1      51.118  34.215  53.244  0.00  0.00     0.279 C 
ATOM      2  N   UNL d   1      50.768  34.468  52.577  0.00  0.00    -0.208 NA
ATOM      3  O   UNL d   1      50.690  34.191  53.978  0.00  0.00    -0.265 OA
ENDROOT
BRANCH   1   4
ATOM      4  C   UNL d   1      51.903  33.971  53.239  0.00  0.00     0.059 A 
ATOM      5  C   UNL d   1      52.101  33.169  53.329  0.00  0.00     0.022 A 
ATOM      6  C   UNL d   1      52.891  32.937  53.322  0.00  0.00     0.070 A 
ATOM      7  C   UNL d   1      53.499  33.431  53.236  0.00  0.00     0.018 A 
ATOM      8  C   UNL d   1      53.348  34.228  53.145  0.00  0.00     0.002 A 
ATOM      9  C   UNL d   1      52.569  34.536  53.141  0.00  0.00     0.005 A 
BRANCH   6  10
ATOM     10  N   UNL d   1      53.071  32.096  53.417  0.00  0.00    -0.242 N 
ATOM     11  C   UNL d   1      53.452  31.829  54.099  0.00  0.00     0.267 A 
ATOM     12  C   UNL d   1      53.541  31.014  54.017  0.00  0.00     0.066 A 
ATOM     13  O   UNL d   1      53.706  32.342  54.773  0.00  0.00    -0.267 OA
ATOM     14  C   UNL d   1      53.232  30.781  53.319  0.00  0.00     0.066 A 
ATOM     15  C   UNL d   1      52.930  31.458  52.928  0.00  0.00     0.267 A 
ATOM     16  O   UNL d   1      52.544  31.506  52.168  0.00  0.00    -0.267 OA
ENDBRANCH   6  10
ENDBRANCH   1   4
BRANCH   2  17
ATOM     17  C   UNL d   1      49.954  34.721  52.582  0.00  0.00     0.089 A 
ATOM     18  C   UNL d   1      49.478  34.683  51.910  0.00  0.00     0.080 A 
ATOM     19  C   UNL d   1      49.643  34.415  51.121  0.00  0.00     0.283 A 
ATOM     20  C   UNL d   1      48.645  34.942  51.915  0.00  0.00     0.064 A 
ATOM     21  N   UNL d   1      48.952  34.505  50.672  0.00  0.00    -0.169 NA
ATOM     22  O   UNL d   1      50.392  34.102  50.827  0.00  0.00    -0.265 OA
ATOM     23  C   UNL d   1      48.339  34.828  51.157  0.00  0.00     0.282 A 
ATOM     24  O   UNL d   1      47.535  35.014  50.929  0.00  0.00    -0.265 OA
ATOM     25  C   UNL d   1      48.340  35.229  52.615  0.00  0.00     0.005 A 
ATOM     26  C   UNL d   1      48.790  35.275  53.286  0.00  0.00     0.002 A 
ATOM     27  C   UNL d   1      49.618  35.021  53.294  0.00  0.00     0.019 A 
ENDBRANCH   2  17
TORSDOF 3
ENDMDL
MODEL 3
REMARK VINA RESULT:      -8.9      3.090      4.615
REMARK  3 active torsions:
REMARK  status: ('A' for Active; 'I' for Inactive)
REMARK    1  A    between atoms: N_4  and  C_8 
REMARK    2  A    between atoms: N_12  and  C_6 
REMARK       I    between atoms: C_11  and  N_12 
REMARK    3  A    between atoms: C_14  and  C_11 
ROOT
ATOM      1  C   UNL d   1      53.763  32.160  53.800  0.00  0.00     0.279 C 
ATOM      2  N   UNL d   1      53.267  32.704  54.097  0.00  0.00    -0.208 NA
ATOM      3  O   UNL d   1      54.598  32.311  53.752  0.00  0.00    -0.265 OA
ENDROOT
BRANCH   1   4
ATOM      4  C   UNL d   1      53.480  31.436  53.530  0.00  0.00     0.059 A 
ATOM      5  C   UNL d   1      53.556  30.750  53.992  0.00  0.00     0.022 A 
ATOM      6  C   UNL d   1      53.269  30.031  53.711  0.00  0.00     0.070 A 
ATOM      7  C   UNL d   1      52.913  29.936  53.014  0.00  0.00     0.018 A 
ATOM      8  C   UNL d   1      52.818  30.585  52.529  0.00  0.00     0.002 A 
ATOM      9  C   UNL d   1      53.086  31.348  52.750  0.00  0.00     0.005 A 
BRANCH   6  10
ATOM     10  N   UNL d   1      53.361  29.330  54.210  0.00  0.00    -0.242 N 
ATOM     11  C   UNL d   1      52.737  29.079  54.689  0.00  0.00     0.267 A 
ATOM     12  C   UNL d   1      53.000  28.407  55.087  0.00  0.00     0.066 A 
ATOM     13  O   UNL d   1      51.948  29.474  54.745  0.00  0.00    -0.267 OA
ATOM     14  C   UNL d   1      53.751  28.244  54.870  0.00  0.00     0.066 A 
ATOM     15  C   UNL d   1      53.991  28.823  54.313  0.00  0.00     0.267 A 
ATOM     16  O   UNL d   1      54.742  28.896  53.913  0.00  0.00    -0.267 OA
ENDBRANCH   6  10
ENDBRANCH   1   4
BRANCH   2  17
ATOM     17  C   UNL d   1      53.560  33.454  54.377  0.00  0.00     0.089 A 
ATOM     18  C   UNL d   1      53.121  34.148  54.315  0.00  0.00     0.080 A 
ATOM     19  C   UNL d   1      52.349  34.295  53.995  0.00  0.00     0.283 A 
ATOM     20  C   UNL d   1      53.422  34.916  54.601  0.00  0.00     0.064 A 
ATOM     21  N   UNL d   1      52.187  35.104  54.081  0.00  0.00    -0.169 NA
ATOM     22  O   UNL d   1      51.816  33.715  53.641  0.00  0.00    -0.265 OA
ATOM     23  C   UNL d   1      52.844  35.486  54.452  0.00  0.00     0.282 A 
ATOM     24  O   UNL d   1      52.924  36.315  54.650  0.00  0.00    -0.265 OA
ATOM     25  C   UNL d   1      54.164  34.932  54.939  0.00  0.00     0.005 A 
ATOM     26  C   UNL d   1      54.612  34.261  55.009  0.00  0.00     0.002 A 
ATOM     27  C   UNL d   1      54.324  33.493  54.729  0.00  0.00     0.019 A 
ENDBRANCH   2  17
TORSDOF 3
ENDMDL
MODEL 4
REMARK VINA RESULT:      -8.8      1.351      2.266
REMARK  3 active torsions:
REMARK  status: ('A' for Active; 'I' for Inactive)
REMARK    1  A    between atoms: N_4  and  C_8 
REMARK    2  A    between atoms: N_12  and  C_6 
REMARK       I    between atoms: C_11  and  N_12 
REMARK    3  A    between atoms: C_14  and  C_11 
ROOT
ATOM      1  C   UNL d   1      49.751  35.018  52.904  0.00  0.00     0.279 C 
ATOM      2  N   UNL d   1      49.155  35.078  52.382  0.00  0.00    -0.208 NA
ATOM      3  O   UNL d   1      49.675  35.328  53.691  0.00  0.00    -0.265 OA
ENDROOT
BRANCH   1   4
ATOM      4  C   UNL d   1      50.458  34.653  52.693  0.00  0.00     0.059 A 
ATOM      5  C   UNL d   1      51.069  34.557  53.246  0.00  0.00     0.022 A 
ATOM      6  C   UNL d   1      51.772  34.190  53.023  0.00  0.00     0.070 A 
ATOM      7  C   UNL d   1      51.919  33.912  52.300  0.00  0.00     0.018 A 
ATOM      8  C   UNL d   1      51.344  33.987  51.726  0.00  0.00     0.002 A 
ATOM      9  C   UNL d   1      50.604  34.349  51.882  0.00  0.00     0.005 A 
BRANCH   6  10
ATOM     10  N   UNL d   1      52.395  34.102  53.618  0.00  0.00    -0.242 N 
ATOM     11  C   UNL d   1      52.542  33.363  53.955  0.00  0.00     0.267 A 
ATOM     12  C   UNL d   1      53.159  33.467  54.492  0.00  0.00     0.066 A 
ATOM     13  O   UNL d   1      52.106  32.619  53.760  0.00  0.00    -0.267 OA
ATOM     14  C   UNL d   1      53.388  34.231  54.491  0.00  0.00     0.066 A 
ATOM     15  C   UNL d   1      52.910  34.645  53.940  0.00  0.00     0.267 A 
ATOM     16  O   UNL d   1      52.933  35.473  53.734  0.00  0.00    -0.267 OA
ENDBRANCH   6  10
ENDBRANCH   1   4
BRANCH   2  17
ATOM     17  C   UNL d   1      48.422  35.456  52.601  0.00  0.00     0.089 A 
ATOM     18  C   UNL d   1      47.771  35.477  52.097  0.00  0.00     0.080 A 
ATOM     19  C   UNL d   1      47.659  35.167  51.314  0.00  0.00     0.283 A 
ATOM     20  C   UNL d   1      47.021  35.864  52.320  0.00  0.00     0.064 A 
ATOM     21  N   UNL d   1      46.887  35.353  51.075  0.00  0.00    -0.169 NA
ATOM     22  O   UNL d   1      48.236  34.733  50.841  0.00  0.00    -0.265 OA
ATOM     23  C   UNL d   1      46.495  35.781  51.691  0.00  0.00     0.282 A 
ATOM     24  O   UNL d   1      45.695  36.085  51.689  0.00  0.00    -0.265 OA
ATOM     25  C   UNL d   1      46.979  36.212  53.057  0.00  0.00     0.005 A 
ATOM     26  C   UNL d   1      47.607  36.203  53.567  0.00  0.00     0.002 A 
ATOM     27  C   UNL d   1      48.356  35.822  53.357  0.00  0.00     0.019 A 
ENDBRANCH   2  17
TORSDOF 3
ENDMDL
MODEL 5
REMARK VINA RESULT:      -8.8      3.336      5.506
REMARK  3 active torsions:
REMARK  status: ('A' for Active; 'I' for Inactive)
REMARK    1  A    between atoms: N_4  and  C_8 
REMARK    2  A    between atoms: N_12  and  C_6 
REMARK       I    between atoms: C_11  and  N_12 
REMARK    3  A    between atoms: C_14  and  C_11 
ROOT
ATOM      1  C   UNL d   1      53.884  32.019  54.759  0.00  0.00     0.279 C 
ATOM      2  N   UNL d   1      53.778  31.607  54.088  0.00  0.00    -0.208 NA
ATOM      3  O   UNL d   1      53.754  31.659  55.517  0.00  0.00    -0.265 OA
ENDROOT
BRANCH   1   4
ATOM      4  C   UNL d   1      54.123  32.806  54.734  0.00  0.00     0.059 A 
ATOM      5  C   UNL d   1      53.576  33.413  54.585  0.00  0.00     0.022 A 
ATOM      6  C   UNL d   1      53.827  34.197  54.563  0.00  0.00     0.070 A 
ATOM      7  C   UNL d   1      54.572  34.429  54.676  0.00  0.00     0.018 A 
ATOM      8  C   UNL d   1      55.141  33.864  54.826  0.00  0.00     0.002 A 
ATOM      9  C   UNL d   1      54.958  33.046  54.863  0.00  0.00     0.005 A 
BRANCH   6  10
ATOM     10  N   UNL d   1      53.238  34.812  54.406  0.00  0.00    -0.242 N 
ATOM     11  C   UNL d   1      52.955  35.281  55.023  0.00  0.00     0.267 A 
ATOM     12  C   UNL d   1      52.410  35.803  54.693  0.00  0.00     0.066 A 
ATOM     13  O   UNL d   1      53.206  35.215  55.868  0.00  0.00    -0.267 OA
ATOM     14  C   UNL d   1      52.353  35.669  53.908  0.00  0.00     0.066 A 
ATOM     15  C   UNL d   1      52.874  35.041  53.713  0.00  0.00     0.267 A 
ATOM     16  O   UNL d   1      53.019  34.688  52.949  0.00  0.00    -0.267 OA
ENDBRANCH   6  10
ENDBRANCH   1   4
BRANCH   2  17
ATOM     17  C   UNL d   1      53.530  30.791  54.114  0.00  0.00     0.089 A 
ATOM     18  C   UNL d   1      53.176  30.420  53.469  0.00  0.00     0.080 A 
ATOM     19  C   UNL d   1      52.981  30.707  52.695  0.00  0.00     0.283 A 
ATOM     20  C   UNL d   1      52.923  29.585  53.495  0.00  0.00     0.064 A 
ATOM     21  N   UNL d   1      52.630  30.085  52.273  0.00  0.00    -0.169 NA
ATOM     22  O   UNL d   1      53.118  31.503  52.388  0.00  0.00    -0.265 OA
ATOM     23  C   UNL d   1      52.594  29.396  52.763  0.00  0.00     0.282 A 
ATOM     24  O   UNL d   1      52.277  28.627  52.561  0.00  0.00    -0.265 OA
ATOM     25  C   UNL d   1      53.048  29.171  54.187  0.00  0.00     0.005 A 
ATOM     26  C   UNL d   1      53.394  29.518  54.831  0.00  0.00     0.002 A 
ATOM     27  C   UNL d   1      53.649  30.345  54.818  0.00  0.00     0.019 A 
ENDBRANCH   2  17
TORSDOF 3
ENDMDL
MODEL 6
REMARK VINA RESULT:      -8.4      1.306      5.140
REMARK  3 active torsions:
REMARK  status: ('A' for Active; 'I' for Inactive)
REMARK    1  A    between atoms: N_4  and  C_8 
REMARK    2  A    between atoms: N_12  and  C_6 
REMARK       I    between atoms: C_11  and  N_12 
REMARK    3  A    between atoms: C_14  and  C_11 
ROOT
ATOM      1  C   UNL d   1      50.683  33.930  52.908  0.00  0.00     0.279 C 
ATOM      2  N   UNL d   1      51.405  34.250  52.991  0.00  0.00    -0.208 NA
ATOM      3  O   UNL d   1      50.502  33.169  53.239  0.00  0.00    -0.265 OA
ENDROOT
BRANCH   1   4
ATOM      4  C   UNL d   1      50.092  34.330  52.498  0.00  0.00     0.059 A 
ATOM      5  C   UNL d   1      49.503  34.753  52.905  0.00  0.00     0.022 A 
ATOM      6  C   UNL d   1      48.917  35.149  52.484  0.00  0.00     0.070 A 
ATOM      7  C   UNL d   1      48.865  35.162  51.697  0.00  0.00     0.018 A 
ATOM      8  C   UNL d   1      49.424  34.759  51.260  0.00  0.00     0.002 A 
ATOM      9  C   UNL d   1      50.050  34.334  51.621  0.00  0.00     0.005 A 
BRANCH   6  10
ATOM     10  N   UNL d   1      48.315  35.583  52.930  0.00  0.00    -0.242 N 
ATOM     11  C   UNL d   1      47.516  35.485  52.749  0.00  0.00     0.267 A 
ATOM     12  C   UNL d   1      47.095  35.967  53.266  0.00  0.00     0.066 A 
ATOM     13  O   UNL d   1      47.200  34.955  52.114  0.00  0.00    -0.267 OA
ATOM     14  C   UNL d   1      47.603  36.350  53.749  0.00  0.00     0.066 A 
ATOM     15  C   UNL d   1      48.381  36.114  53.545  0.00  0.00     0.267 A 
ATOM     16  O   UNL d   1      49.120  36.362  53.894  0.00  0.00    -0.267 OA
ENDBRANCH   6  10
ENDBRANCH   1   4
BRANCH   2  17
ATOM     17  C   UNL d   1      52.018  33.835  53.415  0.00  0.00     0.089 A 
ATOM     18  C   UNL d   1      52.580  34.229  53.871  0.00  0.00     0.080 A 
ATOM     19  C   UNL d   1      52.695  35.055  54.028  0.00  0.00     0.283 A 
ATOM     20  C   UNL d   1      53.207  33.804  54.305  0.00  0.00     0.064 A 
ATOM     21  N   UNL d   1      53.352  35.131  54.528  0.00  0.00    -0.169 NA
ATOM     22  O   UNL d   1      52.219  35.710  53.727  0.00  0.00    -0.265 OA
ATOM     23  C   UNL d   1      53.668  34.365  54.699  0.00  0.00     0.282 A 
ATOM     24  O   UNL d   1      54.343  34.174  55.189  0.00  0.00    -0.265 OA
ATOM     25  C   UNL d   1      53.225  32.991  54.248  0.00  0.00     0.005 A 
ATOM     26  C   UNL d   1      52.682  32.585  53.806  0.00  0.00     0.002 A 
ATOM     27  C   UNL d   1      52.055  32.995  53.371  0.00  0.00     0.019 A 
ENDBRANCH   2  17
TORSDOF 3
ENDMDL
MODEL 7
REMARK VINA RESULT:      -8.3      1.398      5.184
REMARK  3 active torsions:
REMARK  status: ('A' for Active; 'I' for Inactive)
REMARK    1  A    between atoms: N_4  and  C_8 
REMARK    2  A    between atoms: N_12  and  C_6 
REMARK       I    between atoms: C_11  and  N_12 
REMARK    3  A    between atoms: C_14  and  C_11 
ROOT
ATOM      1  C   UNL d   1      53.201  32.822  53.314  0.00  0.00     0.279 C 
ATOM      2  N   UNL d   1      52.808  32.133  53.356  0.00  0.00    -0.208 NA
ATOM      3  O   UNL d   1      54.050  32.840  53.307  0.00  0.00    -0.265 OA
ENDROOT
BRANCH   1   4
ATOM      4  C   UNL d   1      52.793  33.536  53.276  0.00  0.00     0.059 A 
ATOM      5  C   UNL d   1      52.064  33.589  52.881  0.00  0.00     0.022 A 
ATOM      6  C   UNL d   1      51.665  34.309  52.850  0.00  0.00     0.070 A 
ATOM      7  C   UNL d   1      51.927  34.977  53.176  0.00  0.00     0.018 A 
ATOM      8  C   UNL d   1      52.640  34.968  53.573  0.00  0.00     0.002 A 
ATOM      9  C   UNL d   1      53.100  34.271  53.645  0.00  0.00     0.005 A 
BRANCH   6  10
ATOM     10  N   UNL d   1      50.907  34.339  52.434  0.00  0.00    -0.242 N 
ATOM     11  C   UNL d   1      50.201  34.364  52.860  0.00  0.00     0.267 A 
ATOM     12  C   UNL d   1      49.591  34.390  52.308  0.00  0.00     0.066 A 
ATOM     13  O   UNL d   1      50.140  34.361  53.743  0.00  0.00    -0.267 OA
ATOM     14  C   UNL d   1      49.898  34.382  51.570  0.00  0.00     0.066 A 
ATOM     15  C   UNL d   1      50.732  34.350  51.637  0.00  0.00     0.267 A 
ATOM     16  O   UNL d   1      51.315  34.332  51.013  0.00  0.00    -0.267 OA
ENDBRANCH   6  10
ENDBRANCH   1   4
BRANCH   2  17
ATOM     17  C   UNL d   1      53.232  31.393  53.395  0.00  0.00     0.089 A 
ATOM     18  C   UNL d   1      52.844  30.668  53.449  0.00  0.00     0.080 A 
ATOM     19  C   UNL d   1      52.018  30.475  53.478  0.00  0.00     0.283 A 
ATOM     20  C   UNL d   1      53.277  29.911  53.489  0.00  0.00     0.064 A 
ATOM     21  N   UNL d   1      51.950  29.650  53.532  0.00  0.00    -0.169 NA
ATOM     22  O   UNL d   1      51.356  31.029  53.455  0.00  0.00    -0.265 OA
ATOM     23  C   UNL d   1      52.722  29.303  53.539  0.00  0.00     0.282 A 
ATOM     24  O   UNL d   1      52.921  28.472  53.589  0.00  0.00    -0.265 OA
ATOM     25  C   UNL d   1      54.092  29.938  53.472  0.00  0.00     0.005 A 
ATOM     26  C   UNL d   1      54.492  30.640  53.419  0.00  0.00     0.002 A 
ATOM     27  C   UNL d   1      54.074  31.398  53.378  0.00  0.00     0.019 A 
ENDBRANCH   2  17
TORSDOF 3
ENDMDL
