MODEL 1
REMARK VINA RESULT:      16.6      0.000      0.000
REMARK  2 active torsions:
REMARK  status: ('A' for Active; 'I' for Inactive)
REMARK    1  A    between atoms: C_2  and  C_5 
REMARK       I    between atoms: C_5  and  N_9 
REMARK    2  A    between atoms: N_9  and  C_15 
ROOT
ATOM      1  C   UNL d   1      45.694 -16.575  44.204  0.00  0.00     0.304 C 
ATOM      2  N   UNL d   1      46.254 -15.977  44.163  0.00  0.00    -0.206 NA
ATOM      3  O   UNL d   1      44.913 -16.395  44.339  0.00  0.00    -0.263 OA
ENDROOT
BRANCH   1   4
ATOM      4  C   UNL d   1      45.912 -17.359  44.109  0.00  0.00     0.182 A 
ATOM      5  O   UNL d   1      45.989 -17.659  43.352  0.00  0.00    -0.298 OA
ATOM      6  C   UNL d   1      46.210 -18.453  43.253  0.00  0.00     0.123 A 
ATOM      7  C   UNL d   1      46.290 -18.764  42.493  0.00  0.00     0.027 A 
ATOM      8  C   UNL d   1      46.345 -18.919  43.905  0.00  0.00     0.123 A 
ATOM      9  C   UNL d   1      46.508 -19.550  42.403  0.00  0.00     0.002 A 
ATOM     10  C   UNL d   1      46.645 -20.020  43.044  0.00  0.00     0.002 A 
ATOM     11  C   UNL d   1      46.565 -19.710  43.804  0.00  0.00     0.027 A 
ATOM     12  O   UNL d   1      46.265 -18.608  44.665  0.00  0.00    -0.301 OA
ATOM     13  C   UNL d   1      46.048 -17.828  44.753  0.00  0.00     0.152 A 
ENDBRANCH   1   4
BRANCH   2  14
ATOM     14  C   UNL d   1      46.089 -15.168  44.252  0.00  0.00     0.085 A 
ATOM     15  C   UNL d   1      46.272 -14.713  44.924  0.00  0.00     0.021 A 
ATOM     16  C   UNL d   1      46.086 -13.927  44.953  0.00  0.00     0.021 A 
ATOM     17  C   UNL d   1      45.722 -13.568  44.337  0.00  0.00     0.088 A 
ATOM     18  C   UNL d   1      45.536 -14.008  43.663  0.00  0.00     0.050 A 
ATOM     19  N   UNL d   1      45.457 -12.804  44.174  0.00  0.00    -0.239 NA
ATOM     20  C   UNL d   1      45.714 -14.812  43.608  0.00  0.00     0.027 A 
ATOM     21  S   UNL d   1      45.160 -13.497  43.107  0.00  0.00    -0.066 SA
ATOM     22  C   UNL d   1      45.135 -12.759  43.470  0.00  0.00     0.111 A 
ATOM     23  C   UNL d   1      44.804 -12.080  43.111  0.00  0.00     0.028 C 
ENDBRANCH   2  14
TORSDOF 2
ENDMDL
