MODEL 1
REMARK VINA RESULT:      -5.5      0.000      0.000
REMARK  4 active torsions:
REMARK  status: ('A' for Active; 'I' for Inactive)
REMARK    1  A    between atoms: N_2  and  S_1 
REMARK    2  A    between atoms: C_3  and  S_1 
REMARK    3  A    between atoms: O_16  and  C_8 
REMARK    4  A    between atoms: O_17  and  C_11 
ROOT
ATOM      1  S   UNL d   1      57.954  -0.031  30.753  0.00  0.00     0.271 S 
ATOM      2  O   UNL d   1      58.517  -0.147  31.342  0.00  0.00    -0.200 OA
ATOM      3  O   UNL d   1      57.384   0.086  30.159  0.00  0.00    -0.200 OA
ENDROOT
BRANCH   1   4
ATOM      4  N   UNL d   1      57.355  -0.031  31.321  0.00  0.00    -0.229 N 
ATOM      5  C   UNL d   1      57.103  -0.744  31.652  0.00  0.00     0.092 A 
ATOM      6  C   UNL d   1      56.504  -0.744  32.219  0.00  0.00     0.018 A 
ATOM      7  C   UNL d   1      56.252  -1.457  32.550  0.00  0.00     0.002 A 
ATOM      8  C   UNL d   1      56.157  -0.032  32.456  0.00  0.00     0.003 A 
ATOM      9  C   UNL d   1      55.653  -1.456  33.118  0.00  0.00     0.000 A 
ATOM     10  C   UNL d   1      55.306  -0.745  33.354  0.00  0.00     0.000 A 
ATOM     11  C   UNL d   1      55.558  -0.032  33.023  0.00  0.00     0.000 A 
ATOM     12  C   UNL d   1      56.409   0.681  32.125  0.00  0.00     0.020 A 
ATOM     13  C   UNL d   1      57.008   0.681  31.557  0.00  0.00     0.092 A 
ENDBRANCH   1   4
BRANCH   1  14
ATOM     14  C   UNL d   1      58.544  -0.030  30.183  0.00  0.00     0.106 A 
ATOM     15  C   UNL d   1      58.601  -0.663  29.654  0.00  0.00     0.039 A 
ATOM     16  C   UNL d   1      59.192  -0.666  29.081  0.00  0.00     0.117 A 
ATOM     17  C   UNL d   1      59.727  -0.042  29.032  0.00  0.00     0.116 A 
ATOM     18  C   UNL d   1      59.669   0.591  29.561  0.00  0.00     0.027 A 
ATOM     19  C   UNL d   1      59.079   0.590  30.131  0.00  0.00     0.015 A 
BRANCH  16  20
ATOM     20  O   UNL d   1      59.249  -1.298  28.553  0.00  0.00    -0.326 OA
ATOM     21  C   UNL d   1      59.253  -2.076  28.838  0.00  0.00     0.181 C 
ENDBRANCH  16  20
BRANCH  17  22
ATOM     22  O   UNL d   1      60.321  -0.046  28.455  0.00  0.00    -0.326 OA
ATOM     23  C   UNL d   1      60.956   0.478  28.513  0.00  0.00     0.181 C 
ENDBRANCH  17  22
ENDBRANCH   1  14
TORSDOF 4
ENDMDL
MODEL 2
REMARK VINA RESULT:      -4.1      1.403      4.549
REMARK  4 active torsions:
REMARK  status: ('A' for Active; 'I' for Inactive)
REMARK    1  A    between atoms: N_2  and  S_1 
REMARK    2  A    between atoms: C_3  and  S_1 
REMARK    3  A    between atoms: O_16  and  C_8 
REMARK    4  A    between atoms: O_17  and  C_11 
ROOT
ATOM      1  S   UNL d   1      57.227  -0.016  31.459  0.00  0.00     0.271 S 
ATOM      2  O   UNL d   1      57.802   0.239  31.989  0.00  0.00    -0.200 OA
ATOM      3  O   UNL d   1      56.647  -0.275  30.922  0.00  0.00    -0.200 OA
ENDROOT
BRANCH   1   4
ATOM      4  N   UNL d   1      57.784  -0.019  30.850  0.00  0.00    -0.229 N 
ATOM      5  C   UNL d   1      57.954  -0.722  30.452  0.00  0.00     0.092 A 
ATOM      6  C   UNL d   1      58.511  -0.724  29.843  0.00  0.00     0.018 A 
ATOM      7  C   UNL d   1      58.681  -1.427  29.446  0.00  0.00     0.002 A 
ATOM      8  C   UNL d   1      58.897  -0.025  29.632  0.00  0.00     0.003 A 
ATOM      9  C   UNL d   1      59.238  -1.430  28.837  0.00  0.00     0.000 A 
ATOM     10  C   UNL d   1      59.624  -0.731  28.625  0.00  0.00     0.000 A 
ATOM     11  C   UNL d   1      59.454  -0.028  29.023  0.00  0.00     0.000 A 
ATOM     12  C   UNL d   1      58.727   0.678  30.029  0.00  0.00     0.020 A 
ATOM     13  C   UNL d   1      58.170   0.680  30.638  0.00  0.00     0.092 A 
ENDBRANCH   1   4
BRANCH   1  14
ATOM     14  C   UNL d   1      56.668  -0.016  32.059  0.00  0.00     0.106 A 
ATOM     15  C   UNL d   1      56.459  -0.730  32.423  0.00  0.00     0.039 A 
ATOM     16  C   UNL d   1      55.899  -0.733  33.025  0.00  0.00     0.117 A 
ATOM     17  C   UNL d   1      55.545  -0.031  33.268  0.00  0.00     0.116 A 
ATOM     18  C   UNL d   1      55.754   0.682  32.905  0.00  0.00     0.027 A 
ATOM     19  C   UNL d   1      56.313   0.682  32.305  0.00  0.00     0.015 A 
BRANCH  16  20
ATOM     20  O   UNL d   1      55.691  -1.445  33.388  0.00  0.00    -0.326 OA
ATOM     21  C   UNL d   1      55.790  -2.161  32.982  0.00  0.00     0.181 C 
ENDBRANCH  16  20
BRANCH  17  22
ATOM     22  O   UNL d   1      54.981  -0.036  33.875  0.00  0.00    -0.326 OA
ATOM     23  C   UNL d   1      54.971   0.570  34.435  0.00  0.00     0.181 C 
ENDBRANCH  17  22
ENDBRANCH   1  14
TORSDOF 4
ENDMDL
MODEL 3
REMARK VINA RESULT:      -3.5      1.221      1.766
REMARK  4 active torsions:
REMARK  status: ('A' for Active; 'I' for Inactive)
REMARK    1  A    between atoms: N_2  and  S_1 
REMARK    2  A    between atoms: C_3  and  S_1 
REMARK    3  A    between atoms: O_16  and  C_8 
REMARK    4  A    between atoms: O_17  and  C_11 
ROOT
ATOM      1  S   UNL d   1      57.425  -0.221  31.551  0.00  0.00     0.271 S 
ATOM      2  O   UNL d   1      57.877   0.466  31.558  0.00  0.00    -0.200 OA
ATOM      3  O   UNL d   1      56.968  -0.916  31.545  0.00  0.00    -0.200 OA
ENDROOT
BRANCH   1   4
ATOM      4  N   UNL d   1      57.064   0.005  32.258  0.00  0.00    -0.229 N 
ATOM      5  C   UNL d   1      56.265  -0.162  32.381  0.00  0.00     0.092 A 
ATOM      6  C   UNL d   1      55.903   0.063  33.088  0.00  0.00     0.018 A 
ATOM      7  C   UNL d   1      55.104  -0.103  33.211  0.00  0.00     0.002 A 
ATOM      8  C   UNL d   1      56.339   0.455  33.670  0.00  0.00     0.003 A 
ATOM      9  C   UNL d   1      54.742   0.122  33.918  0.00  0.00     0.000 A 
ATOM     10  C   UNL d   1      55.178   0.514  34.500  0.00  0.00     0.000 A 
ATOM     11  C   UNL d   1      55.977   0.681  34.377  0.00  0.00     0.000 A 
ATOM     12  C   UNL d   1      57.138   0.622  33.547  0.00  0.00     0.020 A 
ATOM     13  C   UNL d   1      57.500   0.396  32.840  0.00  0.00     0.092 A 
ENDBRANCH   1   4
BRANCH   1  14
ATOM     14  C   UNL d   1      57.781  -0.452  30.849  0.00  0.00     0.106 A 
ATOM     15  C   UNL d   1      57.768   0.058  30.198  0.00  0.00     0.039 A 
ATOM     16  C   UNL d   1      58.124  -0.170  29.492  0.00  0.00     0.117 A 
ATOM     17  C   UNL d   1      58.491  -0.904  29.429  0.00  0.00     0.116 A 
ATOM     18  C   UNL d   1      58.504  -1.414  30.080  0.00  0.00     0.027 A 
ATOM     19  C   UNL d   1      58.148  -1.183  30.783  0.00  0.00     0.015 A 
BRANCH  16  20
ATOM     20  O   UNL d   1      58.111   0.339  28.842  0.00  0.00    -0.326 OA
ATOM     21  C   UNL d   1      57.397   0.682  28.598  0.00  0.00     0.181 C 
ENDBRANCH  16  20
BRANCH  17  22
ATOM     22  O   UNL d   1      58.849  -1.133  28.718  0.00  0.00    -0.326 OA
ATOM     23  C   UNL d   1      59.318  -1.810  28.691  0.00  0.00     0.181 C 
ENDBRANCH  17  22
ENDBRANCH   1  14
TORSDOF 4
ENDMDL
