MODEL 1
REMARK VINA RESULT:      -7.1      0.000      0.000
REMARK  3 active torsions:
REMARK  status: ('A' for Active; 'I' for Inactive)
REMARK       I    between atoms: N_3  and  C_1 
REMARK    1  A    between atoms: C_6  and  C_1 
REMARK    2  A    between atoms: N_2  and  C_4 
REMARK    3  A    between atoms: C_9  and  N_3 
ROOT
ATOM      1  C   UNL d   1     -47.495  13.805  22.702  0.00  0.00     0.064 A 
ATOM      2  C   UNL d   1     -47.480  13.115  22.240  0.00  0.00     0.019 A 
ATOM      3  C   UNL d   1     -46.855  13.997  23.198  0.00  0.00     0.019 A 
ATOM      4  C   UNL d   1     -46.178  12.819  22.780  0.00  0.00     0.085 A 
ATOM      5  C   UNL d   1     -46.818  12.627  22.284  0.00  0.00     0.021 A 
ATOM      6  C   UNL d   1     -46.196  13.500  23.234  0.00  0.00     0.021 A 
ENDROOT
BRANCH   4   7
ATOM      7  N   UNL d   1     -45.514  12.315  22.814  0.00  0.00    -0.208 NA
ATOM      8  C   UNL d   1     -45.540  11.624  23.266  0.00  0.00     0.279 C 
ATOM      9  O   UNL d   1     -46.229  11.428  23.689  0.00  0.00    -0.265 OA
BRANCH   8  10
ATOM     10  C   UNL d   1     -44.879  11.124  23.298  0.00  0.00     0.058 A 
ATOM     11  C   UNL d   1     -44.949  10.381  23.668  0.00  0.00     0.005 A 
ATOM     12  C   UNL d   1     -44.291   9.888  23.698  0.00  0.00     0.000 A 
ATOM     13  C   UNL d   1     -43.565  10.133  23.360  0.00  0.00     0.000 A 
ATOM     14  C   UNL d   1     -43.513  10.866  23.000  0.00  0.00     0.000 A 
ATOM     15  C   UNL d   1     -44.165  11.365  22.965  0.00  0.00     0.005 A 
ENDBRANCH   8  10
ENDBRANCH   4   7
BRANCH   1  16
ATOM     16  N   UNL d   1     -48.165  14.306  22.663  0.00  0.00    -0.304 N 
ATOM     17  C   UNL d   1     -48.069  15.100  22.488  0.00  0.00     0.080 A 
ATOM     18  C   UNL d   1     -48.739  15.602  22.449  0.00  0.00     0.019 A 
ATOM     19  C   UNL d   1     -49.484  15.279  22.588  0.00  0.00     0.003 A 
ATOM     20  C   UNL d   1     -49.573  14.484  22.763  0.00  0.00     0.019 A 
ATOM     21  C   UNL d   1     -48.918  13.994  22.801  0.00  0.00     0.080 A 
ENDBRANCH   1  16
TORSDOF 3
ENDMDL
MODEL 2
REMARK VINA RESULT:      -6.9      1.431      5.166
REMARK  3 active torsions:
REMARK  status: ('A' for Active; 'I' for Inactive)
REMARK       I    between atoms: N_3  and  C_1 
REMARK    1  A    between atoms: C_6  and  C_1 
REMARK    2  A    between atoms: N_2  and  C_4 
REMARK    3  A    between atoms: C_9  and  N_3 
ROOT
ATOM      1  C   UNL d   1     -46.185  13.257  22.631  0.00  0.00     0.064 A 
ATOM      2  C   UNL d   1     -46.840  12.752  22.717  0.00  0.00     0.019 A 
ATOM      3  C   UNL d   1     -46.264  14.076  22.750  0.00  0.00     0.019 A 
ATOM      4  C   UNL d   1     -47.646  13.901  23.040  0.00  0.00     0.085 A 
ATOM      5  C   UNL d   1     -47.567  13.082  22.921  0.00  0.00     0.021 A 
ATOM      6  C   UNL d   1     -46.998  14.396  22.955  0.00  0.00     0.021 A 
ENDROOT
BRANCH   4   7
ATOM      7  N   UNL d   1     -48.388  14.220  23.246  0.00  0.00    -0.208 NA
ATOM      8  C   UNL d   1     -48.862  14.576  22.670  0.00  0.00     0.279 C 
ATOM      9  O   UNL d   1     -48.599  14.618  21.882  0.00  0.00    -0.265 OA
BRANCH   8  10
ATOM     10  C   UNL d   1     -49.600  14.893  22.878  0.00  0.00     0.058 A 
ATOM     11  C   UNL d   1     -50.291  14.554  22.561  0.00  0.00     0.005 A 
ATOM     12  C   UNL d   1     -51.022  14.870  22.769  0.00  0.00     0.000 A 
ATOM     13  C   UNL d   1     -51.064  15.522  23.292  0.00  0.00     0.000 A 
ATOM     14  C   UNL d   1     -50.376  15.844  23.595  0.00  0.00     0.000 A 
ATOM     15  C   UNL d   1     -49.642  15.535  23.393  0.00  0.00     0.005 A 
ENDBRANCH   8  10
ENDBRANCH   4   7
BRANCH   1  16
ATOM     16  N   UNL d   1     -45.443  12.929  22.424  0.00  0.00    -0.304 N 
ATOM     17  C   UNL d   1     -44.987  13.288  21.846  0.00  0.00     0.080 A 
ATOM     18  C   UNL d   1     -44.245  12.961  21.638  0.00  0.00     0.019 A 
ATOM     19  C   UNL d   1     -43.990  12.279  22.025  0.00  0.00     0.003 A 
ATOM     20  C   UNL d   1     -44.452  11.925  22.601  0.00  0.00     0.019 A 
ATOM     21  C   UNL d   1     -45.178  12.246  22.805  0.00  0.00     0.080 A 
ENDBRANCH   1  16
TORSDOF 3
ENDMDL
MODEL 3
REMARK VINA RESULT:      -6.9      1.373      5.153
REMARK  3 active torsions:
REMARK  status: ('A' for Active; 'I' for Inactive)
REMARK       I    between atoms: N_3  and  C_1 
REMARK    1  A    between atoms: C_6  and  C_1 
REMARK    2  A    between atoms: N_2  and  C_4 
REMARK    3  A    between atoms: C_9  and  N_3 
ROOT
ATOM      1  C   UNL d   1     -46.108  11.490  23.335  0.00  0.00     0.064 A 
ATOM      2  C   UNL d   1     -46.778  11.040  23.531  0.00  0.00     0.019 A 
ATOM      3  C   UNL d   1     -46.180  12.295  23.139  0.00  0.00     0.019 A 
ATOM      4  C   UNL d   1     -47.587  12.216  23.332  0.00  0.00     0.085 A 
ATOM      5  C   UNL d   1     -47.514  11.410  23.527  0.00  0.00     0.021 A 
ATOM      6  C   UNL d   1     -46.923  12.656  23.139  0.00  0.00     0.021 A 
ENDROOT
BRANCH   4   7
ATOM      7  N   UNL d   1     -48.339  12.576  23.332  0.00  0.00    -0.208 NA
ATOM      8  C   UNL d   1     -48.790  12.597  22.641  0.00  0.00     0.279 C 
ATOM      9  O   UNL d   1     -48.495  12.258  21.941  0.00  0.00    -0.265 OA
BRANCH   8  10
ATOM     10  C   UNL d   1     -49.538  12.956  22.644  0.00  0.00     0.058 A 
ATOM     11  C   UNL d   1     -49.598  13.768  22.818  0.00  0.00     0.005 A 
ATOM     12  C   UNL d   1     -50.341  14.121  22.821  0.00  0.00     0.000 A 
ATOM     13  C   UNL d   1     -51.023  13.667  22.650  0.00  0.00     0.000 A 
ATOM     14  C   UNL d   1     -50.948  12.870  22.480  0.00  0.00     0.000 A 
ATOM     15  C   UNL d   1     -50.209  12.509  22.476  0.00  0.00     0.005 A 
ENDBRANCH   8  10
ENDBRANCH   4   7
BRANCH   1  16
ATOM     16  N   UNL d   1     -45.356  11.120  23.336  0.00  0.00    -0.304 N 
ATOM     17  C   UNL d   1     -45.262  10.391  23.696  0.00  0.00     0.080 A 
ATOM     18  C   UNL d   1     -44.510  10.021  23.698  0.00  0.00     0.019 A 
ATOM     19  C   UNL d   1     -43.879  10.405  23.333  0.00  0.00     0.003 A 
ATOM     20  C   UNL d   1     -43.981  11.135  22.975  0.00  0.00     0.019 A 
ATOM     21  C   UNL d   1     -44.716  11.496  22.973  0.00  0.00     0.080 A 
ENDBRANCH   1  16
TORSDOF 3
ENDMDL
MODEL 4
REMARK VINA RESULT:      -6.0      7.509      8.798
REMARK  3 active torsions:
REMARK  status: ('A' for Active; 'I' for Inactive)
REMARK       I    between atoms: N_3  and  C_1 
REMARK    1  A    between atoms: C_6  and  C_1 
REMARK    2  A    between atoms: N_2  and  C_4 
REMARK    3  A    between atoms: C_9  and  N_3 
ROOT
ATOM      1  C   UNL d   1     -39.188  14.664  21.473  0.00  0.00     0.064 A 
ATOM      2  C   UNL d   1     -38.645  14.677  20.844  0.00  0.00     0.019 A 
ATOM      3  C   UNL d   1     -39.974  14.911  21.358  0.00  0.00     0.019 A 
ATOM      4  C   UNL d   1     -39.689  15.187  19.993  0.00  0.00     0.085 A 
ATOM      5  C   UNL d   1     -38.903  14.940  20.107  0.00  0.00     0.021 A 
ATOM      6  C   UNL d   1     -40.222  15.173  20.615  0.00  0.00     0.021 A 
ENDROOT
BRANCH   4   7
ATOM      7  N   UNL d   1     -39.935  15.450  19.241  0.00  0.00    -0.208 NA
ATOM      8  C   UNL d   1     -40.328  14.935  18.728  0.00  0.00     0.279 C 
ATOM      9  O   UNL d   1     -40.480  14.151  18.962  0.00  0.00    -0.265 OA
BRANCH   8  10
ATOM     10  C   UNL d   1     -40.571  15.199  17.981  0.00  0.00     0.058 A 
ATOM     11  C   UNL d   1     -40.125  14.989  17.310  0.00  0.00     0.005 A 
ATOM     12  C   UNL d   1     -40.369  15.253  16.570  0.00  0.00     0.000 A 
ATOM     13  C   UNL d   1     -41.057  15.724  16.497  0.00  0.00     0.000 A 
ATOM     14  C   UNL d   1     -41.485  15.922  17.166  0.00  0.00     0.000 A 
ATOM     15  C   UNL d   1     -41.248  15.663  17.909  0.00  0.00     0.005 A 
ENDBRANCH   8  10
ENDBRANCH   4   7
BRANCH   1  16
ATOM     16  N   UNL d   1     -38.933  14.399  22.225  0.00  0.00    -0.304 N 
ATOM     17  C   UNL d   1     -38.694  14.942  22.789  0.00  0.00     0.080 A 
ATOM     18  C   UNL d   1     -38.440  14.677  23.542  0.00  0.00     0.019 A 
ATOM     19  C   UNL d   1     -38.437  13.867  23.696  0.00  0.00     0.003 A 
ATOM     20  C   UNL d   1     -38.677  13.330  23.127  0.00  0.00     0.019 A 
ATOM     21  C   UNL d   1     -38.926  13.589  22.391  0.00  0.00     0.080 A 
ENDBRANCH   1  16
TORSDOF 3
ENDMDL
MODEL 5
REMARK VINA RESULT:      -5.9      7.597      8.190
REMARK  3 active torsions:
REMARK  status: ('A' for Active; 'I' for Inactive)
REMARK       I    between atoms: N_3  and  C_1 
REMARK    1  A    between atoms: C_6  and  C_1 
REMARK    2  A    between atoms: N_2  and  C_4 
REMARK    3  A    between atoms: C_9  and  N_3 
ROOT
ATOM      1  C   UNL d   1     -40.173  15.331  18.751  0.00  0.00     0.064 A 
ATOM      2  C   UNL d   1     -39.792  15.885  19.239  0.00  0.00     0.019 A 
ATOM      3  C   UNL d   1     -40.399  14.588  19.050  0.00  0.00     0.019 A 
ATOM      4  C   UNL d   1     -39.871  14.940  20.323  0.00  0.00     0.085 A 
ATOM      5  C   UNL d   1     -39.644  15.682  20.024  0.00  0.00     0.021 A 
ATOM      6  C   UNL d   1     -40.247  14.395  19.839  0.00  0.00     0.021 A 
ENDROOT
BRANCH   4   7
ATOM      7  N   UNL d   1     -39.715  14.749  21.120  0.00  0.00    -0.208 NA
ATOM      8  C   UNL d   1     -39.000  14.393  21.329  0.00  0.00     0.279 C 
ATOM      9  O   UNL d   1     -38.432  14.224  20.745  0.00  0.00    -0.265 OA
BRANCH   8  10
ATOM     10  C   UNL d   1     -38.847  14.205  22.123  0.00  0.00     0.058 A 
ATOM     11  C   UNL d   1     -38.866  13.407  22.362  0.00  0.00     0.005 A 
ATOM     12  C   UNL d   1     -38.714  13.224  23.149  0.00  0.00     0.000 A 
ATOM     13  C   UNL d   1     -38.542  13.833  23.698  0.00  0.00     0.000 A 
ATOM     14  C   UNL d   1     -38.527  14.611  23.447  0.00  0.00     0.000 A 
ATOM     15  C   UNL d   1     -38.677  14.804  22.662  0.00  0.00     0.005 A 
ENDBRANCH   8  10
ENDBRANCH   4   7
BRANCH   1  16
ATOM     16  N   UNL d   1     -40.326  15.530  17.952  0.00  0.00    -0.304 N 
ATOM     17  C   UNL d   1     -39.712  15.535  17.410  0.00  0.00     0.080 A 
ATOM     18  C   UNL d   1     -39.865  15.734  16.610  0.00  0.00     0.019 A 
ATOM     19  C   UNL d   1     -40.637  15.920  16.389  0.00  0.00     0.003 A 
ATOM     20  C   UNL d   1     -41.245  15.913  16.937  0.00  0.00     0.019 A 
ATOM     21  C   UNL d   1     -41.096  15.718  17.719  0.00  0.00     0.080 A 
ENDBRANCH   1  16
TORSDOF 3
ENDMDL
