MODEL 1
REMARK VINA RESULT:      -3.8      0.000      0.000
REMARK  7 active torsions:
REMARK  status: ('A' for Active; 'I' for Inactive)
REMARK    1  A    between atoms: C_3  and  C_1 
REMARK    2  A    between atoms: N_2  and  C_9 
REMARK    3  A    between atoms: C_14  and  N_2 
REMARK    4  A    between atoms: O_6  and  C_8 
REMARK    5  A    between atoms: C_10  and  O_6 
REMARK    6  A    between atoms: C_7  and  C_10 
REMARK    7  A    between atoms: C_9  and  C_7 
ROOT
ATOM      1  C   UNL d   1     -41.553-122.669 -53.156  0.00  0.00     0.000 A 
ATOM      2  C   UNL d   1     -41.398-123.444 -52.921  0.00  0.00     0.002 A 
ATOM      3  C   UNL d   1     -41.590-122.066 -52.587  0.00  0.00     0.002 A 
ATOM      4  C   UNL d   1     -41.320-123.022 -51.562  0.00  0.00     0.100 A 
ATOM      5  C   UNL d   1     -41.475-122.240 -51.791  0.00  0.00     0.025 A 
ATOM      6  C   UNL d   1     -41.282-123.621 -52.129  0.00  0.00     0.025 A 
ENDROOT
BRANCH   4   7
ATOM      7  O   UNL d   1     -41.204-123.196 -50.766  0.00  0.00    -0.302 OA
BRANCH   7   8
ATOM      8  C   UNL d   1     -41.687-122.859 -50.186  0.00  0.00     0.166 C 
BRANCH   8   9
ATOM      9  C   UNL d   1     -41.933-123.300 -49.535  0.00  0.00     0.239 C 
ATOM     10  O   UNL d   1     -42.570-123.817 -49.615  0.00  0.00    -0.283 OA
BRANCH   9  11
ATOM     11  C   UNL d   1     -41.545-123.224 -48.812  0.00  0.00     0.143 C 
BRANCH  11  12
ATOM     12  N   UNL d   1     -41.979-123.041 -48.131  0.00  0.00    -0.241 NA
BRANCH  12  13
ATOM     13  C   UNL d   1     -41.613-123.114 -47.393  0.00  0.00     0.082 C 
ATOM     14  C   UNL d   1     -41.187-123.797 -47.218  0.00  0.00     0.021 C 
ATOM     15  C   UNL d   1     -41.671-122.510 -46.834  0.00  0.00     0.021 C 
ENDBRANCH  12  13
ENDBRANCH  11  12
ENDBRANCH   9  11
ENDBRANCH   8   9
ENDBRANCH   7   8
ENDBRANCH   4   7
BRANCH   1  16
ATOM     16  C   UNL d   1     -41.668-122.492 -53.944  0.00  0.00     0.000 A 
ATOM     17  C   UNL d   1     -41.123-122.757 -54.511  0.00  0.00     0.000 A 
ATOM     18  C   UNL d   1     -41.242-122.576 -55.311  0.00  0.00     0.000 A 
ATOM     19  C   UNL d   1     -41.898-122.136 -55.547  0.00  0.00     0.000 A 
ATOM     20  C   UNL d   1     -42.442-121.872 -54.987  0.00  0.00     0.000 A 
ATOM     21  C   UNL d   1     -42.331-122.048 -54.183  0.00  0.00     0.000 A 
ENDBRANCH   1  16
TORSDOF 7
ENDMDL
