MODEL 1
REMARK VINA RESULT:      53.8      0.000      0.000
REMARK  6 active torsions:
REMARK  status: ('A' for Active; 'I' for Inactive)
REMARK    1  A    between atoms: C_4  and  S_1 
REMARK    2  A    between atoms: C_5  and  S_1 
REMARK    3  A    between atoms: C_2  and  N_7 
REMARK    4  A    between atoms: N_3  and  C_2 
REMARK    5  A    between atoms: C_8  and  N_6 
REMARK    6  A    between atoms: N_7  and  C_14 
ROOT
ATOM      1  C   UNL d   1     -55.048-102.105 -40.118  0.00  0.00     0.206 C 
ATOM      2  S   UNL d   1     -54.718-102.858 -40.034  0.00  0.00    -0.038 SA
ENDROOT
BRANCH   1   3
ATOM      3  N   UNL d   1     -55.432-101.748 -39.481  0.00  0.00    -0.218 NA
BRANCH   3   4
ATOM      4  C   UNL d   1     -55.196-101.922 -38.710  0.00  0.00     0.085 A 
ATOM      5  C   UNL d   1     -55.187-101.327 -38.138  0.00  0.00     0.031 A 
ATOM      6  C   UNL d   1     -54.953-101.497 -37.368  0.00  0.00     0.094 A 
ATOM      7  C   UNL d   1     -54.725-102.271 -37.167  0.00  0.00     0.012 A 
ATOM      8  C   UNL d   1     -54.734-102.866 -37.738  0.00  0.00     0.002 A 
ATOM      9  C   UNL d   1     -54.971-102.688 -38.510  0.00  0.00     0.019 A 
BRANCH   6  10
ATOM     10  S   UNL d   1     -54.942-100.900 -36.790  0.00  0.00     0.262 S 
ATOM     11  O   UNL d   1     -54.719-100.353 -37.365  0.00  0.00    -0.213 OA
ATOM     12  O   UNL d   1     -55.166-101.461 -36.221  0.00  0.00    -0.213 OA
BRANCH  10  13
ATOM     13  C   UNL d   1     -54.933-100.310 -36.212  0.00  0.00     0.364 C 
ATOM     14  F   UNL d   1     -54.746 -99.531 -36.417  0.00  0.00    -0.159 F 
ATOM     15  F   UNL d   1     -55.111-100.499 -35.424  0.00  0.00    -0.159 F 
ENDBRANCH  10  13
ENDBRANCH   6  10
ENDBRANCH   3   4
ENDBRANCH   1   3
BRANCH   1  16
ATOM     16  N   UNL d   1     -54.994-101.709 -40.844  0.00  0.00    -0.278 N 
ATOM     17  C   UNL d   1     -54.829-102.133 -41.534  0.00  0.00     0.101 A 
ATOM     18  C   UNL d   1     -54.776-101.737 -42.251  0.00  0.00     0.100 A 
ATOM     19  N   UNL d   1     -54.884-100.924 -42.291  0.00  0.00    -0.301 N 
ATOM     20  C   UNL d   1     -55.049-100.492 -41.605  0.00  0.00     0.100 A 
ATOM     21  C   UNL d   1     -55.103-100.892 -40.877  0.00  0.00     0.101 A 
BRANCH  19  22
ATOM     22  C   UNL d   1     -54.829-100.527 -43.023  0.00  0.00     0.065 A 
ATOM     23  C   UNL d   1     -54.798-100.959 -43.726  0.00  0.00     0.029 A 
ATOM     24  C   UNL d   1     -54.743-100.567 -44.451  0.00  0.00     0.059 A 
ATOM     25 CL   UNL d   1     -54.712-100.998 -45.154  0.00  0.00    -0.082 Cl
ATOM     26  C   UNL d   1     -54.719 -99.742 -44.470  0.00  0.00     0.011 A 
ATOM     27  C   UNL d   1     -54.750 -99.310 -43.766  0.00  0.00     0.002 A 
ATOM     28  C   UNL d   1     -54.805 -99.702 -43.042  0.00  0.00     0.018 A 
ENDBRANCH  19  22
ENDBRANCH   1  16
TORSDOF 6
ENDMDL
