MODEL 1
REMARK VINA RESULT:      -5.1      0.000      0.000
REMARK  5 active torsions:
REMARK  status: ('A' for Active; 'I' for Inactive)
REMARK    1  A    between atoms: C_9  and  N_1 
REMARK    2  A    between atoms: C_2  and  C_9 
REMARK    3  A    between atoms: S_14  and  C_5 
REMARK    4  A    between atoms: C_12  and  C_16 
REMARK       I    between atoms: N_13  and  C_12 
REMARK    5  A    between atoms: C_16  and  S_14 
ROOT
ATOM      1  C   UNL d   1     -41.966-123.078 -50.588  0.00  0.00     0.189 A 
ATOM      2  N   UNL d   1     -41.571-123.160 -51.301  0.00  0.00    -0.265 N 
ATOM      3  C   UNL d   1     -41.695-122.474 -51.741  0.00  0.00     0.202 A 
ATOM      4  N   UNL d   1     -42.335-122.344 -50.584  0.00  0.00    -0.126 NA
ATOM      5  N   UNL d   1     -42.169-121.967 -51.296  0.00  0.00    -0.121 NA
ATOM      6  C   UNL d   1     -41.123-123.809 -51.551  0.00  0.00     0.103 C 
ENDROOT
BRANCH   1   7
ATOM      7  C   UNL d   1     -41.940-123.680 -50.035  0.00  0.00     0.123 C 
BRANCH   7   8
ATOM      8  N   UNL d   1     -42.377-123.625 -49.335  0.00  0.00    -0.265 N 
ATOM      9  C   UNL d   1     -43.204-123.659 -49.274  0.00  0.00     0.296 A 
ATOM     10  S   UNL d   1     -43.397-123.581 -48.476  0.00  0.00    -0.025 SA
ATOM     11  O   UNL d   1     -43.733-123.753 -49.898  0.00  0.00    -0.259 OA
ATOM     12  C   UNL d   1     -42.683-123.499 -48.049  0.00  0.00     0.050 A 
ATOM     13  C   UNL d   1     -42.060-123.527 -48.586  0.00  0.00     0.074 A 
ATOM     14  C   UNL d   1     -42.533-123.404 -47.240  0.00  0.00     0.008 A 
ATOM     15  C   UNL d   1     -41.277-123.459 -48.313  0.00  0.00     0.018 A 
ATOM     16  C   UNL d   1     -41.123-123.363 -47.505  0.00  0.00     0.002 A 
ATOM     17  C   UNL d   1     -41.762-123.337 -46.972  0.00  0.00     0.001 A 
ENDBRANCH   7   8
ENDBRANCH   1   7
BRANCH   3  18
ATOM     18  S   UNL d   1     -41.398-122.318 -52.495  0.00  0.00    -0.043 SA
BRANCH  18  19
ATOM     19  C   UNL d   1     -41.894-122.348 -53.157  0.00  0.00     0.099 C 
BRANCH  19  20
ATOM     20  C   UNL d   1     -41.729-121.886 -53.823  0.00  0.00     0.271 C 
ATOM     21  N   UNL d   1     -42.070-122.069 -54.548  0.00  0.00    -0.272 N 
ATOM     22  C   UNL d   1     -42.589-122.670 -54.775  0.00  0.00     0.083 A 
ATOM     23  C   UNL d   1     -41.908-121.613 -55.207  0.00  0.00     0.083 A 
ATOM     24  C   UNL d   1     -42.742-122.575 -55.582  0.00  0.00     0.021 A 
ATOM     25  C   UNL d   1     -42.323-121.928 -55.840  0.00  0.00     0.021 A 
ATOM     26  O   UNL d   1     -41.218-121.236 -53.759  0.00  0.00    -0.266 OA
ENDBRANCH  19  20
ENDBRANCH  18  19
ENDBRANCH   3  18
TORSDOF 5
ENDMDL
MODEL 2
REMARK VINA RESULT:      -2.6      1.215      5.757
REMARK  5 active torsions:
REMARK  status: ('A' for Active; 'I' for Inactive)
REMARK    1  A    between atoms: C_9  and  N_1 
REMARK    2  A    between atoms: C_2  and  C_9 
REMARK    3  A    between atoms: S_14  and  C_5 
REMARK    4  A    between atoms: C_12  and  C_16 
REMARK       I    between atoms: N_13  and  C_12 
REMARK    5  A    between atoms: C_16  and  S_14 
ROOT
ATOM      1  C   UNL d   1     -41.474-122.464 -52.230  0.00  0.00     0.189 A 
ATOM      2  N   UNL d   1     -41.458-122.049 -51.524  0.00  0.00    -0.265 N 
ATOM      3  C   UNL d   1     -41.653-122.573 -50.918  0.00  0.00     0.202 A 
ATOM      4  N   UNL d   1     -41.679-123.242 -52.065  0.00  0.00    -0.126 NA
ATOM      5  N   UNL d   1     -41.790-123.313 -51.253  0.00  0.00    -0.121 NA
ATOM      6  C   UNL d   1     -41.280-121.248 -51.420  0.00  0.00     0.103 C 
ENDROOT
BRANCH   1   7
ATOM      7  C   UNL d   1     -41.302-122.082 -52.932  0.00  0.00     0.123 C 
BRANCH   7   8
ATOM      8  N   UNL d   1     -41.518-122.418 -53.656  0.00  0.00    -0.265 N 
ATOM      9  C   UNL d   1     -41.436-123.216 -53.866  0.00  0.00     0.296 A 
ATOM     10  S   UNL d   1     -41.721-123.301 -54.635  0.00  0.00    -0.025 SA
ATOM     11  O   UNL d   1     -41.127-123.813 -53.390  0.00  0.00    -0.259 OA
ATOM     12  C   UNL d   1     -41.978-122.549 -54.895  0.00  0.00     0.050 A 
ATOM     13  C   UNL d   1     -41.849-122.011 -54.287  0.00  0.00     0.074 A 
ATOM     14  C   UNL d   1     -42.310-122.299 -55.611  0.00  0.00     0.008 A 
ATOM     15  C   UNL d   1     -42.055-121.212 -54.392  0.00  0.00     0.018 A 
ATOM     16  C   UNL d   1     -42.387-120.957 -55.106  0.00  0.00     0.002 A 
ATOM     17  C   UNL d   1     -42.513-121.512 -55.715  0.00  0.00     0.001 A 
ENDBRANCH   7   8
ENDBRANCH   1   7
BRANCH   3  18
ATOM     18  S   UNL d   1     -41.703-122.392 -50.114  0.00  0.00    -0.043 SA
BRANCH  18  19
ATOM     19  C   UNL d   1     -41.827-122.988 -49.555  0.00  0.00     0.099 C 
BRANCH  19  20
ATOM     20  C   UNL d   1     -42.222-122.821 -48.847  0.00  0.00     0.271 C 
ATOM     21  N   UNL d   1     -41.898-123.054 -48.128  0.00  0.00    -0.272 N 
ATOM     22  C   UNL d   1     -41.201-123.454 -47.944  0.00  0.00     0.083 A 
ATOM     23  C   UNL d   1     -42.287-122.889 -47.429  0.00  0.00     0.083 A 
ATOM     24  C   UNL d   1     -41.168-123.533 -47.122  0.00  0.00     0.021 A 
ATOM     25  C   UNL d   1     -41.835-123.185 -46.812  0.00  0.00     0.021 A 
ATOM     26  O   UNL d   1     -42.946-122.418 -48.863  0.00  0.00    -0.266 OA
ENDBRANCH  19  20
ENDBRANCH  18  19
ENDBRANCH   3  18
TORSDOF 5
ENDMDL
