MODEL 1
REMARK VINA RESULT:      -8.6      0.000      0.000
REMARK  3 active torsions:
REMARK  status: ('A' for Active; 'I' for Inactive)
REMARK    1  A    between atoms: N_4  and  C_1 
REMARK    2  A    between atoms: C_9  and  C_3 
REMARK    3  A    between atoms: C_7  and  N_4 
ROOT
ATOM      1  C   UNL d   1      53.271  32.338  53.276  0.00  0.00     0.196 A 
ATOM      2  N   UNL d   1      52.839  33.067  53.232  0.00  0.00    -0.221 NA
ATOM      3  C   UNL d   1      52.117  32.875  52.953  0.00  0.00     0.090 A 
ATOM      4  S   UNL d   1      52.816  31.726  53.028  0.00  0.00    -0.046 SA
ATOM      5  C   UNL d   1      52.075  32.052  52.818  0.00  0.00     0.058 A 
ENDROOT
BRANCH   1   6
ATOM      6  N   UNL d   1      54.087  32.219  53.542  0.00  0.00    -0.202 NA
BRANCH   6   7
ATOM      7  C   UNL d   1      54.392  32.688  54.163  0.00  0.00     0.165 A 
ATOM      8  N   UNL d   1      54.972  33.210  53.868  0.00  0.00    -0.225 NA
ATOM      9  C   UNL d   1      55.414  33.776  54.314  0.00  0.00     0.101 A 
ATOM     10  C   UNL d   1      55.387  33.947  55.104  0.00  0.00     0.021 A 
ATOM     11  C   UNL d   1      54.903  33.596  55.689  0.00  0.00     0.002 A 
ATOM     12  C   UNL d   1      54.344  33.004  55.619  0.00  0.00     0.003 A 
ATOM     13  C   UNL d   1      54.112  32.591  54.921  0.00  0.00     0.039 A 
ENDBRANCH   6   7
ENDBRANCH   1   6
BRANCH   3  14
ATOM     14  C   UNL d   1      51.486  33.378  52.807  0.00  0.00     0.018 A 
ATOM     15  C   UNL d   1      51.516  33.885  52.165  0.00  0.00     0.002 A 
ATOM     16  C   UNL d   1      50.892  34.390  52.013  0.00  0.00     0.007 A 
ATOM     17  C   UNL d   1      50.213  34.397  52.511  0.00  0.00     0.035 A 
ATOM     18  C   UNL d   1      50.186  33.881  53.162  0.00  0.00     0.007 A 
ATOM     19 BR   UNL d   1      49.560  34.888  52.398  0.00  0.00    -0.049 Br
ATOM     20  C   UNL d   1      50.817  33.377  53.308  0.00  0.00     0.002 A 
ENDBRANCH   3  14
TORSDOF 3
ENDMDL
MODEL 2
REMARK VINA RESULT:      -8.3      1.489      2.454
REMARK  3 active torsions:
REMARK  status: ('A' for Active; 'I' for Inactive)
REMARK    1  A    between atoms: N_4  and  C_1 
REMARK    2  A    between atoms: C_9  and  C_3 
REMARK    3  A    between atoms: C_7  and  N_4 
ROOT
ATOM      1  C   UNL d   1      53.318  32.498  53.480  0.00  0.00     0.196 A 
ATOM      2  N   UNL d   1      52.604  32.593  53.032  0.00  0.00    -0.221 NA
ATOM      3  C   UNL d   1      52.309  33.304  53.241  0.00  0.00     0.090 A 
ATOM      4  S   UNL d   1      53.444  33.139  53.945  0.00  0.00    -0.046 SA
ATOM      5  C   UNL d   1      52.808  33.663  53.804  0.00  0.00     0.058 A 
ENDROOT
BRANCH   1   6
ATOM      6  N   UNL d   1      53.865  31.828  53.473  0.00  0.00    -0.202 NA
BRANCH   6   7
ATOM      7  C   UNL d   1      53.567  31.050  53.539  0.00  0.00     0.165 A 
ATOM      8  N   UNL d   1      53.657  30.774  54.321  0.00  0.00    -0.225 NA
ATOM      9  C   UNL d   1      53.427  30.018  54.619  0.00  0.00     0.101 A 
ATOM     10  C   UNL d   1      53.076  29.396  54.237  0.00  0.00     0.021 A 
ATOM     11  C   UNL d   1      52.850  29.350  53.432  0.00  0.00     0.002 A 
ATOM     12  C   UNL d   1      52.921  29.904  52.837  0.00  0.00     0.003 A 
ATOM     13  C   UNL d   1      53.249  30.679  52.888  0.00  0.00     0.039 A 
ENDBRANCH   6   7
ENDBRANCH   1   6
BRANCH   3  14
ATOM     14  C   UNL d   1      51.623  33.661  52.967  0.00  0.00     0.018 A 
ATOM     15  C   UNL d   1      51.634  34.058  52.252  0.00  0.00     0.002 A 
ATOM     16  C   UNL d   1      50.955  34.417  51.972  0.00  0.00     0.007 A 
ATOM     17  C   UNL d   1      50.239  34.384  52.412  0.00  0.00     0.035 A 
ATOM     18  C   UNL d   1      50.231  33.980  53.138  0.00  0.00     0.007 A 
ATOM     19 BR   UNL d   1      49.530  34.730  52.171  0.00  0.00    -0.049 Br
ATOM     20  C   UNL d   1      50.917  33.622  53.412  0.00  0.00     0.002 A 
ENDBRANCH   3  14
TORSDOF 3
ENDMDL
MODEL 3
REMARK VINA RESULT:      -7.9      2.189      4.213
REMARK  3 active torsions:
REMARK  status: ('A' for Active; 'I' for Inactive)
REMARK    1  A    between atoms: N_4  and  C_1 
REMARK    2  A    between atoms: C_9  and  C_3 
REMARK    3  A    between atoms: C_7  and  N_4 
ROOT
ATOM      1  C   UNL d   1      52.916  33.555  53.339  0.00  0.00     0.196 A 
ATOM      2  N   UNL d   1      52.598  32.776  53.444  0.00  0.00    -0.221 NA
ATOM      3  C   UNL d   1      53.227  32.285  53.461  0.00  0.00     0.090 A 
ATOM      4  S   UNL d   1      53.716  33.528  53.294  0.00  0.00    -0.046 SA
ATOM      5  C   UNL d   1      53.931  32.724  53.370  0.00  0.00     0.058 A 
ENDROOT
BRANCH   1   6
ATOM      6  N   UNL d   1      52.483  34.303  53.282  0.00  0.00    -0.202 NA
BRANCH   6   7
ATOM      7  C   UNL d   1      51.742  34.324  52.895  0.00  0.00     0.165 A 
ATOM      8  N   UNL d   1      51.129  34.410  53.454  0.00  0.00    -0.225 NA
ATOM      9  C   UNL d   1      50.302  34.454  53.292  0.00  0.00     0.101 A 
ATOM     10  C   UNL d   1      49.911  34.426  52.584  0.00  0.00     0.021 A 
ATOM     11  C   UNL d   1      50.241  34.343  51.819  0.00  0.00     0.002 A 
ATOM     12  C   UNL d   1      51.021  34.271  51.592  0.00  0.00     0.003 A 
ATOM     13  C   UNL d   1      51.706  34.262  52.084  0.00  0.00     0.039 A 
ENDBRANCH   6   7
ENDBRANCH   1   6
BRANCH   3  14
ATOM     14  C   UNL d   1      53.223  31.470  53.551  0.00  0.00     0.018 A 
ATOM     15  C   UNL d   1      52.883  31.002  52.972  0.00  0.00     0.002 A 
ATOM     16  C   UNL d   1      52.876  30.189  53.054  0.00  0.00     0.007 A 
ATOM     17  C   UNL d   1      53.215  29.823  53.732  0.00  0.00     0.035 A 
ATOM     18  C   UNL d   1      53.559  30.301  54.318  0.00  0.00     0.007 A 
ATOM     19 BR   UNL d   1      53.231  29.008  53.859  0.00  0.00    -0.049 Br
ATOM     20  C   UNL d   1      53.563  31.116  54.228  0.00  0.00     0.002 A 
ENDBRANCH   3  14
TORSDOF 3
ENDMDL
MODEL 4
REMARK VINA RESULT:      -7.5      2.281      3.179
REMARK  3 active torsions:
REMARK  status: ('A' for Active; 'I' for Inactive)
REMARK    1  A    between atoms: N_4  and  C_1 
REMARK    2  A    between atoms: C_9  and  C_3 
REMARK    3  A    between atoms: C_7  and  N_4 
ROOT
ATOM      1  C   UNL d   1      52.544  31.924  52.832  0.00  0.00     0.196 A 
ATOM      2  N   UNL d   1      53.029  32.529  53.177  0.00  0.00    -0.221 NA
ATOM      3  C   UNL d   1      52.534  33.125  53.364  0.00  0.00     0.090 A 
ATOM      4  S   UNL d   1      51.777  32.156  52.816  0.00  0.00    -0.046 SA
ATOM      5  C   UNL d   1      51.753  32.921  53.152  0.00  0.00     0.058 A 
ENDROOT
BRANCH   1   6
ATOM      6  N   UNL d   1      52.792  31.152  52.528  0.00  0.00    -0.202 NA
BRANCH   6   7
ATOM      7  C   UNL d   1      52.973  30.536  53.063  0.00  0.00     0.165 A 
ATOM      8  N   UNL d   1      52.323  30.017  53.132  0.00  0.00    -0.225 NA
ATOM      9  C   UNL d   1      52.280  29.326  53.615  0.00  0.00     0.101 A 
ATOM     10  C   UNL d   1      52.834  29.005  54.111  0.00  0.00     0.021 A 
ATOM     11  C   UNL d   1      53.605  29.289  54.270  0.00  0.00     0.002 A 
ATOM     12  C   UNL d   1      53.991  29.945  53.976  0.00  0.00     0.003 A 
ATOM     13  C   UNL d   1      53.702  30.513  53.425  0.00  0.00     0.039 A 
ENDBRANCH   6   7
ENDBRANCH   1   6
BRANCH   3  14
ATOM     14  C   UNL d   1      52.724  33.843  53.713  0.00  0.00     0.018 A 
ATOM     15  C   UNL d   1      52.580  34.538  53.306  0.00  0.00     0.002 A 
ATOM     16  C   UNL d   1      52.766  35.258  53.646  0.00  0.00     0.007 A 
ATOM     17  C   UNL d   1      53.106  35.294  54.415  0.00  0.00     0.035 A 
ATOM     18  C   UNL d   1      53.251  34.586  54.825  0.00  0.00     0.007 A 
ATOM     19 BR   UNL d   1      53.311  35.995  54.799  0.00  0.00    -0.049 Br
ATOM     20  C   UNL d   1      53.061  33.868  54.477  0.00  0.00     0.002 A 
ENDBRANCH   3  14
TORSDOF 3
ENDMDL
