MODEL 1
REMARK VINA RESULT:      23.6      0.000      0.000
REMARK  2 active torsions:
REMARK  status: ('A' for Active; 'I' for Inactive)
REMARK       I    between atoms: N_3  and  C_1 
REMARK    1  A    between atoms: O_4  and  C_1 
REMARK    2  A    between atoms: C_6  and  O_4 
ROOT
ATOM      1  C   UNL d   1      13.423  12.608  -4.076  0.00  0.00     0.105 A 
ATOM      2  C   UNL d   1      13.173  13.268  -4.499  0.00  0.00     0.030 A 
ATOM      3  C   UNL d   1      13.544  12.662  -3.249  0.00  0.00     0.122 A 
ATOM      4  N   UNL d   1      13.557  11.888  -4.467  0.00  0.00    -0.242 NA
ATOM      5  C   UNL d   1      13.039  13.985  -4.109  0.00  0.00     0.059 A 
ATOM      6  C   UNL d   1      13.411  13.373  -2.862  0.00  0.00     0.027 A 
ATOM      7  C   UNL d   1      13.160  14.038  -3.281  0.00  0.00     0.013 A 
ATOM      8 CL   UNL d   1      12.787  14.653  -4.532  0.00  0.00    -0.082 Cl
ATOM      9  C   UNL d   1      13.054  13.215  -5.314  0.00  0.00     0.004 A 
ATOM     10  C   UNL d   1      13.438  11.835  -5.281  0.00  0.00     0.099 A 
ATOM     11  C   UNL d   1      13.185  12.503  -5.706  0.00  0.00     0.021 A 
ENDROOT
BRANCH   3  12
ATOM     12  O   UNL d   1      13.798  11.994  -2.817  0.00  0.00    -0.257 OA
BRANCH  12  13
ATOM     13  C   UNL d   1      13.578  11.897  -2.017  0.00  0.00     0.378 C 
ATOM     14  N   UNL d   1      14.143  11.887  -1.426  0.00  0.00    -0.252 N 
ATOM     15  C   UNL d   1      13.920  11.790  -0.638  0.00  0.00     0.085 A 
ATOM     16  C   UNL d   1      14.941  11.973  -1.618  0.00  0.00     0.085 A 
ATOM     17  C   UNL d   1      14.486  11.780  -0.042  0.00  0.00     0.019 A 
ATOM     18  C   UNL d   1      15.285  11.866  -0.234  0.00  0.00     0.003 A 
ATOM     19  C   UNL d   1      15.504  11.962  -1.017  0.00  0.00     0.019 A 
ATOM     20  O   UNL d   1      12.769  11.809  -1.823  0.00  0.00    -0.237 OA
ENDBRANCH  12  13
ENDBRANCH   3  12
TORSDOF 2
ENDMDL
MODEL 2
REMARK VINA RESULT:      25.8      1.226      1.743
REMARK  2 active torsions:
REMARK  status: ('A' for Active; 'I' for Inactive)
REMARK       I    between atoms: N_3  and  C_1 
REMARK    1  A    between atoms: O_4  and  C_1 
REMARK    2  A    between atoms: C_6  and  O_4 
ROOT
ATOM      1  C   UNL d   1      13.310  13.322  -3.737  0.00  0.00     0.105 A 
ATOM      2  C   UNL d   1      13.110  13.213  -4.527  0.00  0.00     0.030 A 
ATOM      3  C   UNL d   1      13.383  12.661  -3.227  0.00  0.00     0.122 A 
ATOM      4  N   UNL d   1      13.441  14.087  -3.441  0.00  0.00    -0.242 NA
ATOM      5  C   UNL d   1      12.981  12.450  -4.820  0.00  0.00     0.059 A 
ATOM      6  C   UNL d   1      13.254  11.905  -3.518  0.00  0.00     0.027 A 
ATOM      7  C   UNL d   1      13.053  11.789  -4.309  0.00  0.00     0.013 A 
ATOM      8 CL   UNL d   1      12.779  12.335  -5.617  0.00  0.00    -0.082 Cl
ATOM      9  C   UNL d   1      13.039  13.863  -5.029  0.00  0.00     0.004 A 
ATOM     10  C   UNL d   1      13.370  14.738  -3.943  0.00  0.00     0.099 A 
ATOM     11  C   UNL d   1      13.168  14.623  -4.741  0.00  0.00     0.021 A 
ENDROOT
BRANCH   3  12
ATOM     12  O   UNL d   1      13.586  12.770  -2.425  0.00  0.00    -0.257 OA
BRANCH  12  13
ATOM     13  C   UNL d   1      14.280  12.426  -2.112  0.00  0.00     0.378 C 
ATOM     14  N   UNL d   1      14.614  12.710  -1.422  0.00  0.00    -0.252 N 
ATOM     15  C   UNL d   1      15.299  12.366  -1.118  0.00  0.00     0.085 A 
ATOM     16  C   UNL d   1      14.265  13.346  -1.026  0.00  0.00     0.085 A 
ATOM     17  C   UNL d   1      15.637  12.651  -0.425  0.00  0.00     0.019 A 
ATOM     18  C   UNL d   1      15.288  13.286  -0.029  0.00  0.00     0.003 A 
ATOM     19  C   UNL d   1      14.607  13.627  -0.333  0.00  0.00     0.019 A 
ATOM     20  O   UNL d   1      14.633  11.782  -2.513  0.00  0.00    -0.237 OA
ENDBRANCH  12  13
ENDBRANCH   3  12
TORSDOF 2
ENDMDL
MODEL 3
REMARK VINA RESULT:      26.1      1.920      4.077
REMARK  2 active torsions:
REMARK  status: ('A' for Active; 'I' for Inactive)
REMARK       I    between atoms: N_3  and  C_1 
REMARK    1  A    between atoms: O_4  and  C_1 
REMARK    2  A    between atoms: C_6  and  O_4 
ROOT
ATOM      1  C   UNL d   1      14.602  13.358  -1.080  0.00  0.00     0.105 A 
ATOM      2  C   UNL d   1      15.198  13.132  -0.560  0.00  0.00     0.030 A 
ATOM      3  C   UNL d   1      14.253  12.792  -1.589  0.00  0.00     0.122 A 
ATOM      4  N   UNL d   1      14.345  14.147  -1.103  0.00  0.00    -0.242 NA
ATOM      5  C   UNL d   1      15.454  12.346  -0.538  0.00  0.00     0.059 A 
ATOM      6  C   UNL d   1      14.507  12.012  -1.567  0.00  0.00     0.027 A 
ATOM      7  C   UNL d   1      15.104  11.780  -1.048  0.00  0.00     0.013 A 
ATOM      8 CL   UNL d   1      16.055  12.114  -0.014  0.00  0.00    -0.082 Cl
ATOM      9  C   UNL d   1      15.542  13.690  -0.058  0.00  0.00     0.004 A 
ATOM     10  C   UNL d   1      14.688  14.705  -0.601  0.00  0.00     0.099 A 
ATOM     11  C   UNL d   1      15.290  14.473  -0.077  0.00  0.00     0.021 A 
ENDROOT
BRANCH   3  12
ATOM     12  O   UNL d   1      13.649  13.018  -2.118  0.00  0.00    -0.257 OA
BRANCH  12  13
ATOM     13  C   UNL d   1      13.269  12.449  -2.598  0.00  0.00     0.378 C 
ATOM     14  N   UNL d   1      13.237  12.540  -3.409  0.00  0.00    -0.252 N 
ATOM     15  C   UNL d   1      12.860  11.975  -3.878  0.00  0.00     0.085 A 
ATOM     16  C   UNL d   1      13.582  13.201  -3.764  0.00  0.00     0.085 A 
ATOM     17  C   UNL d   1      12.826  12.065  -4.694  0.00  0.00     0.019 A 
ATOM     18  C   UNL d   1      13.172  12.725  -5.049  0.00  0.00     0.003 A 
ATOM     19  C   UNL d   1      13.546  13.286  -4.582  0.00  0.00     0.019 A 
ATOM     20  O   UNL d   1      12.918  11.780  -2.238  0.00  0.00    -0.237 OA
ENDBRANCH  12  13
ENDBRANCH   3  12
TORSDOF 2
ENDMDL
