MODEL 1
REMARK VINA RESULT:      -5.4      0.000      0.000
REMARK  4 active torsions:
REMARK  status: ('A' for Active; 'I' for Inactive)
REMARK    1  A    between atoms: C_7  and  N_1 
REMARK    2  A    between atoms: C_6  and  C_4 
REMARK    3  A    between atoms: C_12  and  C_6 
REMARK    4  A    between atoms: C_8  and  C_7 
ROOT
ATOM      1  N   UNL d   1     -41.518-122.371 -53.575  0.00  0.00    -0.229 N 
ATOM      2  C   UNL d   1     -41.298-123.123 -53.318  0.00  0.00     0.299 A 
ATOM      3  C   UNL d   1     -41.480-121.848 -52.927  0.00  0.00     0.274 A 
ATOM      4  C   UNL d   1     -41.235-122.283 -52.262  0.00  0.00     0.090 A 
ATOM      5  S   UNL d   1     -41.123-123.069 -52.503  0.00  0.00    -0.022 SA
ATOM      6  O   UNL d   1     -41.259-123.808 -53.780  0.00  0.00    -0.259 OA
ATOM      7  O   UNL d   1     -41.657-121.041 -52.946  0.00  0.00    -0.266 OA
ENDROOT
BRANCH   4   8
ATOM      8  C   UNL d   1     -41.123-121.988 -51.502  0.00  0.00     0.011 C 
BRANCH   8   9
ATOM      9  C   UNL d   1     -41.526-122.446 -50.942  0.00  0.00     0.001 A 
ATOM     10  C   UNL d   1     -42.321-122.287 -50.777  0.00  0.00     0.003 A 
ATOM     11  C   UNL d   1     -42.720-122.743 -50.220  0.00  0.00     0.042 A 
ATOM     12  C   UNL d   1     -42.331-123.355 -49.829  0.00  0.00     0.196 A 
ATOM     13  C   UNL d   1     -41.541-123.508 -49.998  0.00  0.00     0.042 A 
ATOM     14  O   UNL d   1     -42.732-123.815 -49.267  0.00  0.00    -0.287 OA
ATOM     15  C   UNL d   1     -41.137-123.058 -50.551  0.00  0.00     0.003 A 
ENDBRANCH   8   9
ENDBRANCH   4   8
BRANCH   1  16
ATOM     16  C   UNL d   1     -41.708-122.342 -54.376  0.00  0.00     0.157 C 
BRANCH  16  17
ATOM     17  C   UNL d   1     -42.362-121.900 -54.634  0.00  0.00     0.230 C 
ATOM     18  O   UNL d   1     -43.122-122.087 -54.365  0.00  0.00    -0.643 OA
ATOM     19  O   UNL d   1     -42.257-121.273 -55.159  0.00  0.00    -0.643 OA
ENDBRANCH  16  17
ENDBRANCH   1  16
TORSDOF 4
ENDMDL
MODEL 2
REMARK VINA RESULT:      -5.2      1.127      3.916
REMARK  4 active torsions:
REMARK  status: ('A' for Active; 'I' for Inactive)
REMARK    1  A    between atoms: C_7  and  N_1 
REMARK    2  A    between atoms: C_6  and  C_4 
REMARK    3  A    between atoms: C_12  and  C_6 
REMARK    4  A    between atoms: C_8  and  C_7 
ROOT
ATOM      1  N   UNL d   1     -41.523-122.366 -51.369  0.00  0.00    -0.229 N 
ATOM      2  C   UNL d   1     -41.279-121.705 -51.796  0.00  0.00     0.299 A 
ATOM      3  C   UNL d   1     -41.520-123.026 -51.879  0.00  0.00     0.274 A 
ATOM      4  C   UNL d   1     -41.271-122.768 -52.630  0.00  0.00     0.090 A 
ATOM      5  S   UNL d   1     -41.123-121.953 -52.578  0.00  0.00    -0.022 SA
ATOM      6  O   UNL d   1     -41.202-120.933 -51.506  0.00  0.00    -0.259 OA
ATOM      7  O   UNL d   1     -41.729-123.798 -51.671  0.00  0.00    -0.266 OA
ENDROOT
BRANCH   4   8
ATOM      8  C   UNL d   1     -41.187-123.235 -53.302  0.00  0.00     0.011 C 
BRANCH   8   9
ATOM      9  C   UNL d   1     -41.541-122.878 -53.959  0.00  0.00     0.001 A 
ATOM     10  C   UNL d   1     -42.296-123.116 -54.199  0.00  0.00     0.003 A 
ATOM     11  C   UNL d   1     -42.647-122.759 -54.854  0.00  0.00     0.042 A 
ATOM     12  C   UNL d   1     -42.248-122.169 -55.267  0.00  0.00     0.196 A 
ATOM     13  C   UNL d   1     -41.498-121.937 -55.023  0.00  0.00     0.042 A 
ATOM     14  O   UNL d   1     -42.600-121.809 -55.927  0.00  0.00    -0.287 OA
ATOM     15  C   UNL d   1     -41.143-122.287 -54.373  0.00  0.00     0.003 A 
ENDBRANCH   8   9
ENDBRANCH   4   8
BRANCH   1  16
ATOM     16  C   UNL d   1     -41.697-122.201 -50.581  0.00  0.00     0.157 C 
BRANCH  16  17
ATOM     17  C   UNL d   1     -42.296-122.621 -50.190  0.00  0.00     0.230 C 
ATOM     18  O   UNL d   1     -43.092-122.467 -50.360  0.00  0.00    -0.643 OA
ATOM     19  O   UNL d   1     -42.102-123.194 -49.629  0.00  0.00    -0.643 OA
ENDBRANCH  16  17
ENDBRANCH   1  16
TORSDOF 4
ENDMDL
MODEL 3
REMARK VINA RESULT:      -4.9      0.896      1.645
REMARK  4 active torsions:
REMARK  status: ('A' for Active; 'I' for Inactive)
REMARK    1  A    between atoms: C_7  and  N_1 
REMARK    2  A    between atoms: C_6  and  C_4 
REMARK    3  A    between atoms: C_12  and  C_6 
REMARK    4  A    between atoms: C_8  and  C_7 
ROOT
ATOM      1  N   UNL d   1     -41.191-122.347 -52.754  0.00  0.00    -0.229 N 
ATOM      2  C   UNL d   1     -41.161-121.820 -52.121  0.00  0.00     0.299 A 
ATOM      3  C   UNL d   1     -41.225-123.123 -52.451  0.00  0.00     0.274 A 
ATOM      4  C   UNL d   1     -41.215-123.074 -51.621  0.00  0.00     0.090 A 
ATOM      5  S   UNL d   1     -41.176-122.270 -51.418  0.00  0.00    -0.022 SA
ATOM      6  O   UNL d   1     -41.123-120.994 -52.170  0.00  0.00    -0.259 OA
ATOM      7  O   UNL d   1     -41.261-123.816 -52.900  0.00  0.00    -0.266 OA
ENDROOT
BRANCH   4   8
ATOM      8  C   UNL d   1     -41.241-123.706 -51.096  0.00  0.00     0.011 C 
BRANCH   8   9
ATOM      9  C   UNL d   1     -41.611-123.491 -50.387  0.00  0.00     0.001 A 
ATOM     10  C   UNL d   1     -41.152-123.307 -49.723  0.00  0.00     0.003 A 
ATOM     11  C   UNL d   1     -41.522-123.093 -49.020  0.00  0.00     0.042 A 
ATOM     12  C   UNL d   1     -42.345-123.062 -48.976  0.00  0.00     0.196 A 
ATOM     13  C   UNL d   1     -42.794-123.246 -49.639  0.00  0.00     0.042 A 
ATOM     14  O   UNL d   1     -42.718-122.846 -48.267  0.00  0.00    -0.287 OA
ATOM     15  C   UNL d   1     -42.433-123.459 -50.343  0.00  0.00     0.003 A 
ENDBRANCH   8   9
ENDBRANCH   4   8
BRANCH   1  16
ATOM     16  C   UNL d   1     -41.180-121.976 -53.490  0.00  0.00     0.157 C 
BRANCH  16  17
ATOM     17  C   UNL d   1     -41.732-122.187 -54.072  0.00  0.00     0.230 C 
ATOM     18  O   UNL d   1     -41.500-122.653 -54.716  0.00  0.00    -0.643 OA
ATOM     19  O   UNL d   1     -42.514-121.934 -54.012  0.00  0.00    -0.643 OA
ENDBRANCH  16  17
ENDBRANCH   1  16
TORSDOF 4
ENDMDL
MODEL 4
REMARK VINA RESULT:      -4.3      1.619      4.278
REMARK  4 active torsions:
REMARK  status: ('A' for Active; 'I' for Inactive)
REMARK    1  A    between atoms: C_7  and  N_1 
REMARK    2  A    between atoms: C_6  and  C_4 
REMARK    3  A    between atoms: C_12  and  C_6 
REMARK    4  A    between atoms: C_8  and  C_7 
ROOT
ATOM      1  N   UNL d   1     -42.585-122.951 -49.453  0.00  0.00    -0.229 N 
ATOM      2  C   UNL d   1     -43.071-122.651 -50.048  0.00  0.00     0.299 A 
ATOM      3  C   UNL d   1     -41.791-122.867 -49.693  0.00  0.00     0.274 A 
ATOM      4  C   UNL d   1     -41.787-122.511 -50.445  0.00  0.00     0.090 A 
ATOM      5  S   UNL d   1     -42.577-122.378 -50.663  0.00  0.00    -0.022 SA
ATOM      6  O   UNL d   1     -43.898-122.624 -50.040  0.00  0.00    -0.259 OA
ATOM      7  O   UNL d   1     -41.127-123.098 -49.258  0.00  0.00    -0.266 OA
ENDROOT
BRANCH   4   8
ATOM      8  C   UNL d   1     -41.123-122.324 -50.892  0.00  0.00     0.011 C 
BRANCH   8   9
ATOM      9  C   UNL d   1     -41.237-122.514 -51.690  0.00  0.00     0.001 A 
ATOM     10  C   UNL d   1     -41.154-123.297 -51.942  0.00  0.00     0.003 A 
ATOM     11  C   UNL d   1     -41.267-123.483 -52.736  0.00  0.00     0.042 A 
ATOM     12  C   UNL d   1     -41.463-122.893 -53.277  0.00  0.00     0.196 A 
ATOM     13  C   UNL d   1     -41.544-122.117 -53.019  0.00  0.00     0.042 A 
ATOM     14  O   UNL d   1     -41.578-123.080 -54.077  0.00  0.00    -0.287 OA
ATOM     15  C   UNL d   1     -41.432-121.924 -52.231  0.00  0.00     0.003 A 
ENDBRANCH   8   9
ENDBRANCH   4   8
BRANCH   1  16
ATOM     16  C   UNL d   1     -43.002-123.242 -48.805  0.00  0.00     0.157 C 
BRANCH  16  17
ATOM     17  C   UNL d   1     -42.695-123.158 -48.039  0.00  0.00     0.230 C 
ATOM     18  O   UNL d   1     -42.772-122.439 -47.636  0.00  0.00    -0.643 OA
ATOM     19  O   UNL d   1     -42.311-123.791 -47.675  0.00  0.00    -0.643 OA
ENDBRANCH  16  17
ENDBRANCH   1  16
TORSDOF 4
ENDMDL
MODEL 5
REMARK VINA RESULT:      -3.5      0.761      1.354
REMARK  4 active torsions:
REMARK  status: ('A' for Active; 'I' for Inactive)
REMARK    1  A    between atoms: C_7  and  N_1 
REMARK    2  A    between atoms: C_6  and  C_4 
REMARK    3  A    between atoms: C_12  and  C_6 
REMARK    4  A    between atoms: C_8  and  C_7 
ROOT
ATOM      1  N   UNL d   1     -41.593-122.311 -53.692  0.00  0.00    -0.229 N 
ATOM      2  C   UNL d   1     -41.546-121.750 -53.089  0.00  0.00     0.299 A 
ATOM      3  C   UNL d   1     -41.441-123.062 -53.366  0.00  0.00     0.274 A 
ATOM      4  C   UNL d   1     -41.297-122.965 -52.553  0.00  0.00     0.090 A 
ATOM      5  S   UNL d   1     -41.362-122.156 -52.382  0.00  0.00    -0.022 SA
ATOM      6  O   UNL d   1     -41.659-120.934 -53.166  0.00  0.00    -0.259 OA
ATOM      7  O   UNL d   1     -41.434-123.777 -53.782  0.00  0.00    -0.266 OA
ENDROOT
BRANCH   4   8
ATOM      8  C   UNL d   1     -41.123-123.562 -52.014  0.00  0.00     0.011 C 
BRANCH   8   9
ATOM      9  C   UNL d   1     -41.459-123.404 -51.275  0.00  0.00     0.001 A 
ATOM     10  C   UNL d   1     -42.134-123.817 -51.033  0.00  0.00     0.003 A 
ATOM     11  C   UNL d   1     -42.466-123.658 -50.296  0.00  0.00     0.042 A 
ATOM     12  C   UNL d   1     -42.130-123.091 -49.803  0.00  0.00     0.196 A 
ATOM     13  C   UNL d   1     -41.460-122.684 -50.049  0.00  0.00     0.042 A 
ATOM     14  O   UNL d   1     -42.464-122.930 -49.061  0.00  0.00    -0.287 OA
ATOM     15  C   UNL d   1     -41.123-122.836 -50.781  0.00  0.00     0.003 A 
ENDBRANCH   8   9
ENDBRANCH   4   8
BRANCH   1  16
ATOM     16  C   UNL d   1     -41.772-121.985 -54.427  0.00  0.00     0.157 C 
BRANCH  16  17
ATOM     17  C   UNL d   1     -42.351-122.334 -54.908  0.00  0.00     0.230 C 
ATOM     18  O   UNL d   1     -43.119-122.024 -54.927  0.00  0.00    -0.643 OA
ATOM     19  O   UNL d   1     -42.165-122.993 -55.369  0.00  0.00    -0.643 OA
ENDBRANCH  16  17
ENDBRANCH   1  16
TORSDOF 4
ENDMDL
