MODEL 1
REMARK VINA RESULT:       0.0      0.000      0.000
REMARK  1 active torsions:
REMARK  status: ('A' for Active; 'I' for Inactive)
REMARK    1  A    between atoms: C_11  and  C_9 
ROOT
ATOM      1  C   UNL d   1      24.759  12.361  -3.261  0.00  0.00     0.215 A 
ATOM      2  N   UNL d   1      24.760  11.779  -2.683  0.00  0.00    -0.219 NA
ATOM      3  S   UNL d   1      24.754  13.093  -2.892  0.00  0.00    -0.045 SA
ATOM      4  C   UNL d   1      24.752  12.963  -2.072  0.00  0.00     0.050 A 
ATOM      5  C   UNL d   1      24.756  12.153  -1.944  0.00  0.00     0.090 A 
ATOM      6  C   UNL d   1      24.747  13.486  -1.435  0.00  0.00     0.008 A 
ATOM      7  N   UNL d   1      24.761  12.230  -4.080  0.00  0.00    -0.120 N 
ATOM      8  C   UNL d   1      24.756  11.852  -1.175  0.00  0.00     0.020 A 
ATOM      9  C   UNL d   1      24.747  13.184  -0.682  0.00  0.00     0.001 A 
ATOM     10  C   UNL d   1      24.751  12.369  -0.552  0.00  0.00     0.002 A 
ENDROOT
BRANCH   9  11
ATOM     11  C   UNL d   1      24.742  13.703  -0.039  0.00  0.00     0.000 C 
ATOM     12  C   UNL d   1      24.203  14.321  -0.016  0.00  0.00     0.000 C 
ENDBRANCH   9  11
TORSDOF 1
ENDMDL
