MODEL 1
REMARK VINA RESULT:      -3.0      0.000      0.000
REMARK  5 active torsions:
REMARK  status: ('A' for Active; 'I' for Inactive)
REMARK    1  A    between atoms: C_4  and  S_1 
REMARK    2  A    between atoms: N_5  and  S_1 
REMARK       I    between atoms: N_2  and  C_3 
REMARK    3  A    between atoms: C_3  and  C_12 
REMARK    4  A    between atoms: C_19  and  N_5 
REMARK    5  A    between atoms: C_20  and  C_19 
ROOT
ATOM      1  C   UNL d   1      56.767   0.253  33.384  0.00  0.00     0.057 A 
ATOM      2  C   UNL d   1      56.298  -0.222  32.897  0.00  0.00     0.005 A 
ATOM      3  C   UNL d   1      57.404   0.665  33.068  0.00  0.00     0.005 A 
ATOM      4  C   UNL d   1      57.107   0.129  31.775  0.00  0.00     0.020 A 
ATOM      5  C   UNL d   1      56.471  -0.281  32.099  0.00  0.00     0.002 A 
ATOM      6  C   UNL d   1      57.573   0.602  32.264  0.00  0.00     0.002 A 
ENDROOT
BRANCH   4   7
ATOM      7  C   UNL d   1      57.279   0.068  30.972  0.00  0.00     0.112 C 
BRANCH   7   8
ATOM      8  N   UNL d   1      58.027   0.296  30.692  0.00  0.00    -0.157 NA
BRANCH   8   9
ATOM      9  S   UNL d   1      58.420  -0.180  30.135  0.00  0.00     0.285 S 
ATOM     10  O   UNL d   1      57.821  -0.031  29.578  0.00  0.00    -0.198 OA
ATOM     11  O   UNL d   1      59.025  -0.333  30.692  0.00  0.00    -0.198 OA
BRANCH   9  12
ATOM     12  C   UNL d   1      58.819  -0.660  29.578  0.00  0.00     0.106 A 
ATOM     13  C   UNL d   1      58.563  -1.421  29.432  0.00  0.00     0.024 A 
ATOM     14  C   UNL d   1      58.957  -1.891  28.884  0.00  0.00     0.059 A 
ATOM     15 CL   UNL d   1      58.704  -2.663  28.731  0.00  0.00    -0.082 Cl
ATOM     16  C   UNL d   1      59.613  -1.595  28.478  0.00  0.00     0.011 A 
ATOM     17  C   UNL d   1      59.865  -0.829  28.629  0.00  0.00     0.002 A 
ATOM     18  C   UNL d   1      59.469  -0.356  29.181  0.00  0.00     0.013 A 
ENDBRANCH   9  12
ENDBRANCH   8   9
ENDBRANCH   7   8
ENDBRANCH   4   7
BRANCH   1  19
ATOM     19  C   UNL d   1      56.597   0.318  34.202  0.00  0.00     0.265 C 
ATOM     20  N   UNL d   1      55.815   0.434  34.452  0.00  0.00    -0.268 N 
ATOM     21  C   UNL d   1      55.206   0.485  33.895  0.00  0.00     0.108 A 
ATOM     22  C   UNL d   1      55.649   0.498  35.258  0.00  0.00     0.108 A 
ATOM     23  C   UNL d   1      54.421   0.601  34.149  0.00  0.00     0.118 A 
ATOM     24  C   UNL d   1      53.809   0.652  33.591  0.00  0.00     0.028 C 
ATOM     25  O   UNL d   1      54.256   0.664  34.955  0.00  0.00    -0.304 OA
ATOM     26  C   UNL d   1      54.862   0.614  35.516  0.00  0.00     0.118 A 
ATOM     27  C   UNL d   1      54.692   0.679  36.325  0.00  0.00     0.028 C 
ATOM     28  O   UNL d   1      57.211   0.267  34.756  0.00  0.00    -0.267 OA
ENDBRANCH   1  19
TORSDOF 5
ENDMDL
