MODEL 1
REMARK VINA RESULT:      19.2      0.000      0.000
REMARK  2 active torsions:
REMARK  status: ('A' for Active; 'I' for Inactive)
REMARK    1  A    between atoms: N_2  and  S_1 
REMARK    2  A    between atoms: C_4  and  S_1 
ROOT
ATOM      1  N   UNL d   1      45.809 -13.780  44.360  0.00  0.00    -0.231 N 
ATOM      2  C   UNL d   1      45.382 -13.341  43.799  0.00  0.00     0.075 A 
ATOM      3  C   UNL d   1      45.405 -12.523  43.815  0.00  0.00     0.017 A 
ATOM      4  C   UNL d   1      46.258 -13.386  44.936  0.00  0.00     0.092 A 
ATOM      5  C   UNL d   1      44.933 -13.734  43.223  0.00  0.00     0.018 A 
ATOM      6  C   UNL d   1      46.281 -12.569  44.952  0.00  0.00     0.020 A 
ATOM      7  C   UNL d   1      45.854 -12.128  44.391  0.00  0.00     0.003 A 
ATOM      8  C   UNL d   1      44.978 -12.082  43.254  0.00  0.00     0.002 A 
ATOM      9  C   UNL d   1      44.514 -13.295  42.672  0.00  0.00     0.002 A 
ATOM     10  C   UNL d   1      44.536 -12.478  42.688  0.00  0.00     0.000 A 
ENDROOT
BRANCH   1  11
ATOM     11  S   UNL d   1      45.786 -14.599  44.344  0.00  0.00     0.271 S 
ATOM     12  O   UNL d   1      44.923 -14.587  44.955  0.00  0.00    -0.200 OA
ATOM     13  O   UNL d   1      46.523 -14.609  43.824  0.00  0.00    -0.200 OA
BRANCH  11  14
ATOM     14  C   UNL d   1      45.764 -15.427  44.329  0.00  0.00     0.104 A 
ATOM     15  C   UNL d   1      45.415 -15.836  44.955  0.00  0.00     0.014 A 
ATOM     16  C   UNL d   1      45.390 -16.653  44.944  0.00  0.00     0.012 A 
ATOM     17  C   UNL d   1      45.711 -17.068  44.312  0.00  0.00     0.058 A 
ATOM     18  C   UNL d   1      46.059 -16.659  43.685  0.00  0.00     0.012 A 
ATOM     19 CL   UNL d   1      45.688 -17.897  44.296  0.00  0.00    -0.082 Cl
ATOM     20  C   UNL d   1      46.082 -15.830  43.701  0.00  0.00     0.014 A 
ENDBRANCH  11  14
ENDBRANCH   1  11
TORSDOF 2
ENDMDL
MODEL 2
REMARK VINA RESULT:      20.0      2.823      5.013
REMARK  2 active torsions:
REMARK  status: ('A' for Active; 'I' for Inactive)
REMARK    1  A    between atoms: N_2  and  S_1 
REMARK    2  A    between atoms: C_4  and  S_1 
ROOT
ATOM      1  N   UNL d   1      46.185 -18.709  43.928  0.00  0.00    -0.231 N 
ATOM      2  C   UNL d   1      46.336 -18.939  43.144  0.00  0.00     0.075 A 
ATOM      3  C   UNL d   1      46.496 -19.722  42.970  0.00  0.00     0.017 A 
ATOM      4  C   UNL d   1      46.196 -19.277  44.533  0.00  0.00     0.092 A 
ATOM      5  C   UNL d   1      46.325 -18.371  42.539  0.00  0.00     0.018 A 
ATOM      6  C   UNL d   1      46.356 -20.060  44.359  0.00  0.00     0.020 A 
ATOM      7  C   UNL d   1      46.507 -20.291  43.575  0.00  0.00     0.003 A 
ATOM      8  C   UNL d   1      46.647 -19.954  42.187  0.00  0.00     0.002 A 
ATOM      9  C   UNL d   1      46.475 -18.604  41.767  0.00  0.00     0.002 A 
ATOM     10  C   UNL d   1      46.634 -19.387  41.593  0.00  0.00     0.000 A 
ENDROOT
BRANCH   1  11
ATOM     11  S   UNL d   1      46.025 -17.925  44.102  0.00  0.00     0.271 S 
ATOM     12  O   UNL d   1      46.647 -17.988  44.955  0.00  0.00    -0.200 OA
ATOM     13  O   UNL d   1      45.495 -17.871  43.375  0.00  0.00    -0.200 OA
BRANCH  11  14
ATOM     14  C   UNL d   1      45.864 -17.131  44.279  0.00  0.00     0.104 A 
ATOM     15  C   UNL d   1      45.219 -16.945  44.758  0.00  0.00     0.014 A 
ATOM     16  C   UNL d   1      45.055 -16.163  44.935  0.00  0.00     0.012 A 
ATOM     17  C   UNL d   1      45.531 -15.564  44.638  0.00  0.00     0.058 A 
ATOM     18  C   UNL d   1      46.177 -15.751  44.159  0.00  0.00     0.012 A 
ATOM     19 CL   UNL d   1      45.370 -14.770  44.815  0.00  0.00    -0.082 Cl
ATOM     20  C   UNL d   1      46.338 -16.544  43.982  0.00  0.00     0.014 A 
ENDBRANCH  11  14
ENDBRANCH   1  11
TORSDOF 2
ENDMDL
MODEL 3
REMARK VINA RESULT:      21.2      2.591      5.084
REMARK  2 active torsions:
REMARK  status: ('A' for Active; 'I' for Inactive)
REMARK    1  A    between atoms: N_2  and  S_1 
REMARK    2  A    between atoms: C_4  and  S_1 
ROOT
ATOM      1  N   UNL d   1      46.088 -18.219  43.166  0.00  0.00    -0.231 N 
ATOM      2  C   UNL d   1      46.276 -18.881  43.632  0.00  0.00     0.075 A 
ATOM      3  C   UNL d   1      46.439 -19.600  43.277  0.00  0.00     0.017 A 
ATOM      4  C   UNL d   1      46.068 -18.291  42.339  0.00  0.00     0.092 A 
ATOM      5  C   UNL d   1      46.296 -18.810  44.459  0.00  0.00     0.018 A 
ATOM      6  C   UNL d   1      46.231 -19.010  41.985  0.00  0.00     0.020 A 
ATOM      7  C   UNL d   1      46.419 -19.672  42.450  0.00  0.00     0.003 A 
ATOM      8  C   UNL d   1      46.627 -20.262  43.742  0.00  0.00     0.002 A 
ATOM      9  C   UNL d   1      46.482 -19.466  44.914  0.00  0.00     0.002 A 
ATOM     10  C   UNL d   1      46.645 -20.185  44.559  0.00  0.00     0.000 A 
ENDROOT
BRANCH   1  11
ATOM     11  S   UNL d   1      45.925 -17.500  43.521  0.00  0.00     0.271 S 
ATOM     12  O   UNL d   1      45.078 -17.385  42.898  0.00  0.00    -0.200 OA
ATOM     13  O   UNL d   1      46.647 -17.598  44.053  0.00  0.00    -0.200 OA
BRANCH  11  14
ATOM     14  C   UNL d   1      45.759 -16.771  43.881  0.00  0.00     0.104 A 
ATOM     15  C   UNL d   1      46.015 -16.074  43.522  0.00  0.00     0.014 A 
ATOM     16  C   UNL d   1      45.854 -15.353  43.873  0.00  0.00     0.012 A 
ATOM     17  C   UNL d   1      45.438 -15.321  44.580  0.00  0.00     0.058 A 
ATOM     18  C   UNL d   1      45.182 -16.019  44.938  0.00  0.00     0.012 A 
ATOM     19 CL   UNL d   1      45.273 -14.592  44.940  0.00  0.00    -0.082 Cl
ATOM     20  C   UNL d   1      45.348 -16.747  44.579  0.00  0.00     0.014 A 
ENDBRANCH  11  14
ENDBRANCH   1  11
TORSDOF 2
ENDMDL
