MODEL 1
REMARK VINA RESULT:      60.1      0.000      0.000
REMARK  8 active torsions:
REMARK  status: ('A' for Active; 'I' for Inactive)
REMARK    1  A    between atoms: C_2  and  N_1 
REMARK    2  A    between atoms: O_17  and  C_3 
REMARK    3  A    between atoms: O_18  and  C_4 
REMARK    4  A    between atoms: O_19  and  C_5 
REMARK    5  A    between atoms: O_21  and  C_6 
REMARK    6  A    between atoms: C_9  and  C_11 
REMARK    7  A    between atoms: C_12  and  C_9 
REMARK    8  A    between atoms: C_11  and  C_15 
ROOT
ATOM      1  C   UNL d   1     -48.681  28.207  34.531  0.00  0.00     0.000 C 
ENDROOT
BRANCH   1   2
ATOM      2  C   UNL d   1     -49.049  28.095  33.801  0.00  0.00     0.000 C 
BRANCH   2   3
ATOM      3  C   UNL d   1     -49.533  27.432  33.676  0.00  0.00     0.002 A 
ATOM      4  C   UNL d   1     -50.337  27.526  33.604  0.00  0.00     0.026 A 
ATOM      5  C   UNL d   1     -50.820  26.871  33.480  0.00  0.00     0.149 A 
ATOM      6  C   UNL d   1     -50.488  26.115  33.430  0.00  0.00     0.116 A 
ATOM      7  C   UNL d   1     -49.671  26.024  33.504  0.00  0.00     0.026 A 
ATOM      8  C   UNL d   1     -49.188  26.678  33.628  0.00  0.00     0.002 A 
BRANCH   5   9
ATOM      9  N   UNL d   1     -51.636  26.967  33.407  0.00  0.00    -0.112 N 
ATOM     10  O   UNL d   1     -51.955  27.724  33.306  0.00  0.00    -0.532 OA
ATOM     11  O   UNL d   1     -52.141  26.312  33.433  0.00  0.00    -0.532 OA
ENDBRANCH   5   9
BRANCH   6  12
ATOM     12  O   UNL d   1     -50.967  25.452  33.306  0.00  0.00    -0.326 OA
ATOM     13  C   UNL d   1     -50.795  24.740  33.692  0.00  0.00     0.181 C 
ENDBRANCH   6  12
ENDBRANCH   2   3
ENDBRANCH   1   2
BRANCH   1  14
ATOM     14  C   UNL d   1     -48.420  28.961  34.746  0.00  0.00     0.004 A 
ATOM     15  C   UNL d   1     -47.804  29.045  35.289  0.00  0.00     0.026 A 
ATOM     16  C   UNL d   1     -47.544  29.803  35.504  0.00  0.00     0.118 A 
ATOM     17  C   UNL d   1     -47.898  30.470  35.178  0.00  0.00     0.138 A 
ATOM     18  C   UNL d   1     -48.514  30.387  34.635  0.00  0.00     0.118 A 
ATOM     19  C   UNL d   1     -48.776  29.637  34.419  0.00  0.00     0.026 A 
BRANCH  16  20
ATOM     20  O   UNL d   1     -46.928  29.886  36.046  0.00  0.00    -0.326 OA
ATOM     21  C   UNL d   1     -47.079  29.835  36.855  0.00  0.00     0.181 C 
ENDBRANCH  16  20
BRANCH  17  22
ATOM     22  O   UNL d   1     -47.637  31.221  35.393  0.00  0.00    -0.324 OA
ATOM     23  C   UNL d   1     -46.886  31.473  35.173  0.00  0.00     0.182 C 
ENDBRANCH  17  22
BRANCH  18  24
ATOM     24  O   UNL d   1     -48.869  31.055  34.308  0.00  0.00    -0.326 OA
ATOM     25  C   UNL d   1     -48.575  31.374  33.609  0.00  0.00     0.181 C 
ENDBRANCH  18  24
ENDBRANCH   1  14
TORSDOF 8
ENDMDL
MODEL 2
REMARK VINA RESULT:      61.0      0.434      1.484
REMARK  8 active torsions:
REMARK  status: ('A' for Active; 'I' for Inactive)
REMARK    1  A    between atoms: C_2  and  N_1 
REMARK    2  A    between atoms: O_17  and  C_3 
REMARK    3  A    between atoms: O_18  and  C_4 
REMARK    4  A    between atoms: O_19  and  C_5 
REMARK    5  A    between atoms: O_21  and  C_6 
REMARK    6  A    between atoms: C_9  and  C_11 
REMARK    7  A    between atoms: C_12  and  C_9 
REMARK    8  A    between atoms: C_11  and  C_15 
ROOT
ATOM      1  C   UNL d   1     -48.853  28.111  34.698  0.00  0.00     0.000 C 
ENDROOT
BRANCH   1   2
ATOM      2  C   UNL d   1     -49.054  27.918  33.922  0.00  0.00     0.000 C 
BRANCH   2   3
ATOM      3  C   UNL d   1     -49.519  27.248  33.767  0.00  0.00     0.002 A 
ATOM      4  C   UNL d   1     -50.324  27.283  33.872  0.00  0.00     0.026 A 
ATOM      5  C   UNL d   1     -50.789  26.620  33.720  0.00  0.00     0.149 A 
ATOM      6  C   UNL d   1     -50.437  25.918  33.460  0.00  0.00     0.116 A 
ATOM      7  C   UNL d   1     -49.619  25.887  33.356  0.00  0.00     0.026 A 
ATOM      8  C   UNL d   1     -49.154  26.549  33.508  0.00  0.00     0.002 A 
BRANCH   5   9
ATOM      9  N   UNL d   1     -51.606  26.655  33.826  0.00  0.00    -0.112 N 
ATOM     10  O   UNL d   1     -51.959  26.251  34.455  0.00  0.00    -0.532 OA
ATOM     11  O   UNL d   1     -52.079  27.093  33.306  0.00  0.00    -0.532 OA
ENDBRANCH   5   9
BRANCH   6  12
ATOM     12  O   UNL d   1     -50.898  25.248  33.306  0.00  0.00    -0.326 OA
ATOM     13  C   UNL d   1     -50.576  24.492  33.409  0.00  0.00     0.181 C 
ENDBRANCH   6  12
ENDBRANCH   2   3
ENDBRANCH   1   2
BRANCH   1  14
ATOM     14  C   UNL d   1     -48.475  28.830  34.857  0.00  0.00     0.004 A 
ATOM     15  C   UNL d   1     -48.639  29.493  34.394  0.00  0.00     0.026 A 
ATOM     16  C   UNL d   1     -48.258  30.213  34.555  0.00  0.00     0.118 A 
ATOM     17  C   UNL d   1     -47.718  30.266  35.174  0.00  0.00     0.138 A 
ATOM     18  C   UNL d   1     -47.554  29.603  35.637  0.00  0.00     0.118 A 
ATOM     19  C   UNL d   1     -47.929  28.887  35.481  0.00  0.00     0.026 A 
BRANCH  16  20
ATOM     20  O   UNL d   1     -48.422  30.875  34.093  0.00  0.00    -0.326 OA
ATOM     21  C   UNL d   1     -48.850  31.504  34.409  0.00  0.00     0.181 C 
ENDBRANCH  16  20
BRANCH  17  22
ATOM     22  O   UNL d   1     -47.342  30.981  35.331  0.00  0.00    -0.324 OA
ATOM     23  C   UNL d   1     -46.906  31.354  34.742  0.00  0.00     0.182 C 
ENDBRANCH  17  22
BRANCH  18  24
ATOM     24  O   UNL d   1     -47.014  29.655  36.257  0.00  0.00    -0.326 OA
ATOM     25  C   UNL d   1     -46.937  30.361  36.674  0.00  0.00     0.181 C 
ENDBRANCH  18  24
ENDBRANCH   1  14
TORSDOF 8
ENDMDL
