MODEL 1
REMARK VINA RESULT:      13.2      0.000      0.000
REMARK  4 active torsions:
REMARK  status: ('A' for Active; 'I' for Inactive)
REMARK    1  A    between atoms: C_6  and  C_4 
REMARK    2  A    between atoms: C_9  and  C_6 
REMARK    3  A    between atoms: O_15  and  C_8 
REMARK    4  A    between atoms: O_16  and  C_12 
ROOT
ATOM      1  C   UNL d   1      13.155  12.278  -4.002  0.00  0.00     0.116 A 
ATOM      2  C   UNL d   1      13.532  12.219  -2.627  0.00  0.00     0.003 A 
ATOM      3  C   UNL d   1      13.331  11.842  -3.332  0.00  0.00     0.026 A 
ATOM      4  C   UNL d   1      13.177  13.109  -3.979  0.00  0.00     0.116 A 
ATOM      5  C   UNL d   1      13.380  13.486  -3.267  0.00  0.00     0.026 A 
ATOM      6  C   UNL d   1      13.556  13.050  -2.597  0.00  0.00     0.002 A 
ENDROOT
BRANCH   2   7
ATOM      7  C   UNL d   1      13.709  11.779  -1.953  0.00  0.00     0.009 C 
BRANCH   7   8
ATOM      8  C   UNL d   1      14.188  12.098  -1.370  0.00  0.00     0.062 A 
ATOM      9  C   UNL d   1      14.023  12.107  -0.557  0.00  0.00     0.145 A 
ATOM     10  N   UNL d   1      14.650  12.480  -0.172  0.00  0.00    -0.191 NA
ATOM     11  S   UNL d   1      13.348  11.798  -0.203  0.00  0.00    -0.057 SA
ATOM     12  C   UNL d   1      15.206  12.702  -0.746  0.00  0.00     0.311 A 
ATOM     13  S   UNL d   1      14.918  12.465  -1.478  0.00  0.00    -0.023 SA
ATOM     14  O   UNL d   1      15.919  13.091  -0.598  0.00  0.00    -0.258 OA
ENDBRANCH   7   8
ENDBRANCH   2   7
BRANCH   1  15
ATOM     15  O   UNL d   1      12.955  11.892  -4.705  0.00  0.00    -0.326 OA
ATOM     16  C   UNL d   1      13.510  11.843  -5.322  0.00  0.00     0.181 C 
ENDBRANCH   1  15
BRANCH   4  17
ATOM     17  O   UNL d   1      13.003  13.552  -4.644  0.00  0.00    -0.326 OA
ATOM     18  C   UNL d   1      12.870  14.364  -4.581  0.00  0.00     0.181 C 
ENDBRANCH   4  17
TORSDOF 4
ENDMDL
