REMARK  6 active torsions:
REMARK  status: ('A' for Active; 'I' for Inactive)
REMARK    1  A    between atoms: N_3  and  S_1 
REMARK    2  A    between atoms: C_11  and  S_1 
REMARK    3  A    between atoms: C_2  and  N_3 
REMARK    4  A    between atoms: C_5  and  C_7 
REMARK       I    between atoms: C_7  and  N_12 
REMARK    5  A    between atoms: C_27  and  C_9 
REMARK    6  A    between atoms: N_12  and  C_20 
ROOT
ATOM      1  C   UNL d   1       0.792   0.970   0.000  0.00  0.00     0.105 A 
ATOM      2  C   UNL d   1       0.082   0.550   0.000  0.00  0.00     0.015 A 
ATOM      3  C   UNL d   1       0.792   1.789   0.000  0.00  0.00     0.015 A 
ATOM      4  C   UNL d   1      -0.632   1.789   0.000  0.00  0.00     0.085 A 
ATOM      5  C   UNL d   1      -0.632   0.970   0.000  0.00  0.00     0.020 A 
ATOM      6  C   UNL d   1       0.082   2.199   0.000  0.00  0.00     0.020 A 
ENDROOT
BRANCH   1   7
ATOM      7  S   UNL d   1       1.519   0.550   0.000  0.00  0.00     0.287 S 
ATOM      8  O   UNL d   1       1.929   1.267   0.000  0.00  0.00    -0.198 OA
ATOM      9  O   UNL d   1       2.226   0.123   0.000  0.00  0.00    -0.198 OA
BRANCH   7  10
ATOM     10  N   UNL d   1       1.096  -0.167   0.000  0.00  0.00    -0.130 NA
BRANCH  10  11
ATOM     11  C   UNL d   1       1.499  -0.891   0.000  0.00  0.00     0.227 A 
ATOM     12  S   UNL d   1       2.298  -0.973   0.000  0.00  0.00    -0.025 SA
ATOM     13  C   UNL d   1       2.472  -1.803   0.000  0.00  0.00     0.135 A 
ATOM     14  N   UNL d   1       1.745  -2.212   0.000  0.00  0.00    -0.139 NA
ATOM     15  N   UNL d   1       1.147  -1.622   0.000  0.00  0.00    -0.120 NA
BRANCH  13  16
ATOM     16  C   UNL d   1       3.168  -2.236   0.000  0.00  0.00     0.028 C 
ATOM     17  C   UNL d   1       3.895  -1.827   0.000  0.00  0.00     0.002 C 
ENDBRANCH  13  16
ENDBRANCH  10  11
ENDBRANCH   7  10
ENDBRANCH   1   7
BRANCH   4  18
ATOM     18  N   UNL d   1      -1.352   2.219   0.000  0.00  0.00    -0.208 NA
ATOM     19  C   UNL d   1      -2.076   1.809   0.000  0.00  0.00     0.280 C 
ATOM     20  O   UNL d   1      -2.786   2.219   0.000  0.00  0.00    -0.265 OA
BRANCH  19  21
ATOM     21  C   UNL d   1      -2.076   0.983   0.000  0.00  0.00     0.069 A 
ATOM     22  C   UNL d   1      -2.786   0.570   0.000  0.00  0.00     0.063 A 
ATOM     23  C   UNL d   1      -2.786  -0.249   0.000  0.00  0.00     0.023 A 
ATOM     24 CL   UNL d   1      -3.499   0.970   0.000  0.00  0.00    -0.082 Cl
ATOM     25  C   UNL d   1      -2.076  -0.679   0.000  0.00  0.00     0.059 A 
ATOM     26  C   UNL d   1      -1.352  -0.249   0.000  0.00  0.00     0.012 A 
ATOM     27 CL   UNL d   1      -2.076  -1.506   0.000  0.00  0.00    -0.082 Cl
ATOM     28  C   UNL d   1      -1.352   0.570   0.000  0.00  0.00     0.006 A 
ENDBRANCH  19  21
ENDBRANCH   4  18
TORSDOF 6
