REMARK  9 active torsions:
REMARK  status: ('A' for Active; 'I' for Inactive)
REMARK    1  A    between atoms: N_2  and  C_1 
REMARK    2  A    between atoms: N_3  and  C_5 
REMARK    3  A    between atoms: N_16  and  C_6 
REMARK    4  A    between atoms: C_11  and  C_18 
REMARK    5  A    between atoms: O_14  and  C_11 
REMARK    6  A    between atoms: C_17  and  O_14 
REMARK    7  A    between atoms: C_19  and  N_16 
REMARK    8  A    between atoms: C_18  and  C_20 
REMARK    9  A    between atoms: C_20  and  C_19 
ROOT
ATOM      1  C   UNL d   1      -2.071   1.205   0.000  0.00  0.00     0.146 A 
ATOM      2  C   UNL d   1      -2.896   1.205   0.000  0.00  0.00     0.049 A 
ATOM      3  C   UNL d   1      -3.310   1.899   0.000  0.00  0.00     0.128 A 
ATOM      4  C   UNL d   1      -1.657   1.899   0.000  0.00  0.00     0.103 A 
ATOM      5  C   UNL d   1      -2.896   2.638   0.000  0.00  0.00     0.025 A 
ATOM      6  C   UNL d   1      -2.071   2.616   0.000  0.00  0.00     0.022 A 
ENDROOT
BRANCH   4   7
ATOM      7  N   UNL d   1      -0.817   1.899   0.000  0.00  0.00    -0.242 NA
BRANCH   7   8
ATOM      8  C   UNL d   1      -0.403   1.205   0.000  0.00  0.00     0.099 C 
BRANCH   8   9
ATOM      9  C   UNL d   1       0.418   1.205   0.000  0.00  0.00     0.026 C 
BRANCH   9  10
ATOM     10  C   UNL d   1       0.832   0.489   0.000  0.00  0.00     0.070 C 
BRANCH  10  11
ATOM     11  C   UNL d   1       1.657   0.489   0.000  0.00  0.00     0.300 C 
ATOM     12  O   UNL d   1       2.064   1.205   0.000  0.00  0.00    -0.259 OA
BRANCH  11  13
ATOM     13  O   UNL d   1       2.064  -0.228   0.000  0.00  0.00    -0.273 OA
BRANCH  13  14
ATOM     14  C   UNL d   1       2.892  -0.250   0.000  0.00  0.00     0.103 C 
ATOM     15  C   UNL d   1       3.303   0.466   0.000  0.00  0.00     0.027 C 
ATOM     16  C   UNL d   1       3.303  -0.967   0.000  0.00  0.00     0.027 C 
ENDBRANCH  13  14
ENDBRANCH  11  13
ENDBRANCH  10  11
ENDBRANCH   9  10
ENDBRANCH   8   9
ENDBRANCH   7   8
ENDBRANCH   4   7
BRANCH   1  17
ATOM     17  N   UNL d   1      -1.642   0.466   0.000  0.00  0.00    -0.112 N 
ATOM     18  O   UNL d   1      -0.802   0.466   0.000  0.00  0.00    -0.532 OA
ATOM     19  O   UNL d   1      -2.056  -0.250   0.000  0.00  0.00    -0.532 OA
ENDBRANCH   1  17
BRANCH   3  20
ATOM     20  N   UNL d   1      -4.131   1.881   0.000  0.00  0.00    -0.114 N 
ATOM     21  O   UNL d   1      -4.523   1.164   0.000  0.00  0.00    -0.532 OA
ATOM     22  O   UNL d   1      -4.542   2.597   0.000  0.00  0.00    -0.532 OA
ENDBRANCH   3  20
TORSDOF 9
