REMARK  1 active torsions:
REMARK  status: ('A' for Active; 'I' for Inactive)
REMARK    1  A    between atoms: C_7  and  N_1 
ROOT
ATOM      1  N   UNL d   1      -1.139   1.317   0.000  0.00  0.00    -0.242 N 
ATOM      2  C   UNL d   1      -1.196   2.113   0.000  0.00  0.00     0.267 A 
ATOM      3  C   UNL d   1      -1.808   0.795   0.000  0.00  0.00     0.267 A 
ATOM      4  C   UNL d   1      -1.960   2.444   0.000  0.00  0.00     0.057 A 
ATOM      5  C   UNL d   1      -2.539   1.165   0.000  0.00  0.00     0.057 A 
ATOM      6  C   UNL d   1      -2.597   1.986   0.000  0.00  0.00     0.009 A 
ATOM      7  O   UNL d   1      -1.750  -0.025   0.000  0.00  0.00    -0.267 OA
ATOM      8  O   UNL d   1      -0.528   2.597   0.000  0.00  0.00    -0.267 OA
ATOM      9  C   UNL d   1      -3.361   2.323   0.000  0.00  0.00     0.000 A 
ATOM     10  C   UNL d   1      -3.208   0.681   0.000  0.00  0.00     0.005 A 
ATOM     11  C   UNL d   1      -2.018   3.278   0.000  0.00  0.00     0.005 A 
ATOM     12  C   UNL d   1      -3.946   1.012   0.000  0.00  0.00     0.000 A 
ATOM     13  C   UNL d   1      -2.749   3.640   0.000  0.00  0.00     0.000 A 
ATOM     14  C   UNL d   1      -4.003   1.833   0.000  0.00  0.00     0.000 A 
ATOM     15  C   UNL d   1      -3.430   3.125   0.000  0.00  0.00     0.000 A 
ENDROOT
BRANCH   1  16
ATOM     16  C   UNL d   1      -0.376   0.987   0.000  0.00  0.00     0.070 A 
ATOM     17  C   UNL d   1       0.305   1.470   0.000  0.00  0.00     0.021 A 
ATOM     18  C   UNL d   1       1.038   1.139   0.000  0.00  0.00     0.043 A 
ATOM     19  C   UNL d   1       1.152   0.280   0.000  0.00  0.00     0.196 A 
ATOM     20  C   UNL d   1       0.484  -0.210   0.000  0.00  0.00     0.043 A 
ATOM     21  O   UNL d   1       1.916  -0.121   0.000  0.00  0.00    -0.287 OA
ATOM     22  C   UNL d   1      -0.280   0.153   0.000  0.00  0.00     0.021 A 
ENDBRANCH   1  16
TORSDOF 1
