REMARK  0 active torsions:
REMARK  status: ('A' for Active; 'I' for Inactive)
ROOT
ATOM      1  C   UNL d   1      -2.583   0.153   0.000  0.00  0.00     0.150 A 
ATOM      2  N   UNL d   1      -3.105  -0.494   0.000  0.00  0.00    -0.275 N 
ATOM      3  N   UNL d   1      -3.014   0.843   0.000  0.00  0.00    -0.227 NA
ATOM      4  C   UNL d   1      -2.875  -1.270   0.000  0.00  0.00     0.149 A 
ATOM      5  N   UNL d   1      -2.070  -1.438   0.000  0.00  0.00    -0.228 NA
ATOM      6  C   UNL d   1      -1.778  -0.034   0.000  0.00  0.00     0.052 A 
ATOM      7  C   UNL d   1      -3.867  -0.149   0.000  0.00  0.00     0.084 A 
ATOM      8  C   UNL d   1      -1.519  -0.839   0.000  0.00  0.00     0.086 A 
ATOM      9  C   UNL d   1      -3.819   0.633   0.000  0.00  0.00     0.099 A 
ATOM     10  C   UNL d   1      -3.407  -1.898   0.000  0.00  0.00     0.041 C 
ATOM     11  C   UNL d   1      -1.222   0.589   0.000  0.00  0.00     0.004 A 
ATOM     12  C   UNL d   1      -4.625  -0.518   0.000  0.00  0.00     0.019 A 
ATOM     13  C   UNL d   1      -0.714  -0.997   0.000  0.00  0.00     0.019 A 
ATOM     14  C   UNL d   1      -4.509   1.093   0.000  0.00  0.00     0.021 A 
ATOM     15  C   UNL d   1      -0.417   0.403   0.000  0.00  0.00     0.000 A 
ATOM     16  C   UNL d   1      -5.314  -0.034   0.000  0.00  0.00     0.002 A 
ATOM     17  C   UNL d   1      -5.247   0.728   0.000  0.00  0.00     0.002 A 
ATOM     18  C   UNL d   1      -0.168  -0.379   0.000  0.00  0.00     0.002 A 
ENDROOT
TORSDOF 0
