REMARK  5 active torsions:
REMARK  status: ('A' for Active; 'I' for Inactive)
REMARK    1  A    between atoms: C_10  and  N_3 
REMARK    2  A    between atoms: C_11  and  N_8 
REMARK    3  A    between atoms: C_14  and  C_10 
REMARK    4  A    between atoms: C_19  and  C_11 
REMARK    5  A    between atoms: C_20  and  C_19 
ROOT
ATOM      1  C   UNL d   1      -2.023  -0.116   0.000  0.00  0.00     0.174 A 
ATOM      2  C   UNL d   1      -2.023   0.732   0.000  0.00  0.00     0.158 A 
ATOM      3  N   UNL d   1      -3.459   0.732   0.000  0.00  0.00    -0.219 N 
ATOM      4  N   UNL d   1      -1.258  -0.355   0.000  0.00  0.00    -0.203 NA
ATOM      5  N   UNL d   1      -2.744  -0.515   0.000  0.00  0.00    -0.240 N 
ATOM      6  C   UNL d   1      -3.459  -0.116   0.000  0.00  0.00     0.343 A 
ATOM      7  C   UNL d   1      -2.744   1.159   0.000  0.00  0.00     0.287 A 
ATOM      8  N   UNL d   1      -1.258   0.998   0.000  0.00  0.00    -0.279 N 
ATOM      9  C   UNL d   1      -0.776   0.333   0.000  0.00  0.00     0.185 A 
ATOM     10  O   UNL d   1      -4.185  -0.538   0.000  0.00  0.00    -0.245 OA
ATOM     11  O   UNL d   1      -2.744   1.990   0.000  0.00  0.00    -0.265 OA
ATOM     12 BR   UNL d   1       0.072   0.394   0.000  0.00  0.00    -0.008 Br
ATOM     13  C   UNL d   1      -2.744  -1.369   0.000  0.00  0.00     0.105 C 
ENDROOT
BRANCH   8  14
ATOM     14  C   UNL d   1      -0.959   1.796   0.000  0.00  0.00     0.082 C 
BRANCH  14  15
ATOM     15  C   UNL d   1      -0.161   1.990   0.000  0.00  0.00     0.019 C 
BRANCH  15  16
ATOM     16  C   UNL d   1       0.105   2.755   0.000  0.00  0.00     0.002 C 
ATOM     17  C   UNL d   1       0.904   2.921   0.000  0.00  0.00     0.000 C 
ATOM     18  C   UNL d   1      -0.460   3.370   0.000  0.00  0.00     0.000 C 
ENDBRANCH  15  16
ENDBRANCH  14  15
ENDBRANCH   8  14
BRANCH   3  19
ATOM     19  C   UNL d   1      -4.185   1.159   0.000  0.00  0.00     0.151 C 
BRANCH  19  20
ATOM     20  C   UNL d   1      -4.900   0.759   0.000  0.00  0.00     0.315 C 
ATOM     21  O   UNL d   1      -4.922  -0.067   0.000  0.00  0.00    -0.262 OA
ATOM     22  N   UNL d   1      -5.599   1.192   0.000  0.00  0.00    -0.101 N 
ENDBRANCH  19  20
ENDBRANCH   3  19
TORSDOF 5
