REMARK  3 active torsions:
REMARK  status: ('A' for Active; 'I' for Inactive)
REMARK       I    between atoms: C_2  and  N_1 
REMARK    1  A    between atoms: C_4  and  N_1 
REMARK    2  A    between atoms: C_5  and  N_1 
REMARK    3  A    between atoms: C_6  and  C_2 
ROOT
ATOM      1  N   UNL d   1      -0.382   0.859   0.000  0.00  0.00    -0.274 N 
ATOM      2  C   UNL d   1       0.195   1.470   0.000  0.00  0.00     0.276 C 
ATOM      3  O   UNL d   1      -0.042   2.248   0.000  0.00  0.00    -0.266 OA
ENDROOT
BRANCH   1   4
ATOM      4  C   UNL d   1      -1.184   1.046   0.000  0.00  0.00     0.067 A 
ATOM      5  C   UNL d   1      -1.757   0.452   0.000  0.00  0.00     0.018 A 
ATOM      6  C   UNL d   1      -2.556   0.675   0.000  0.00  0.00     0.002 A 
ATOM      7  C   UNL d   1      -2.775   1.470   0.000  0.00  0.00     0.000 A 
ATOM      8  C   UNL d   1      -2.202   2.047   0.000  0.00  0.00     0.002 A 
ATOM      9  C   UNL d   1      -1.400   1.842   0.000  0.00  0.00     0.018 A 
ENDBRANCH   1   4
BRANCH   1  10
ATOM     10  C   UNL d   1      -0.127   0.081   0.000  0.00  0.00     0.067 C 
ATOM     11  C   UNL d   1      -0.707  -0.534   0.000  0.00  0.00     0.019 C 
ATOM     12  C   UNL d   1       0.668  -0.127   0.000  0.00  0.00     0.019 C 
ENDBRANCH   1  10
BRANCH   2  13
ATOM     13  C   UNL d   1       0.990   1.269   0.000  0.00  0.00     0.129 C 
ATOM     14 CL   UNL d   1       1.552   1.877   0.000  0.00  0.00    -0.076 Cl
ENDBRANCH   2  13
TORSDOF 3
