REMARK  3 active torsions:
REMARK  status: ('A' for Active; 'I' for Inactive)
REMARK    1  A    between atoms: N_3  and  C_1 
REMARK       I    between atoms: C_5  and  N_3 
REMARK    2  A    between atoms: C_10  and  C_4 
REMARK       I    between atoms: N_8  and  C_5 
REMARK    3  A    between atoms: C_11  and  N_8 
ROOT
ATOM      1  C   UNL d   1      -3.334   1.438   0.000  0.00  0.00     0.199 A 
ATOM      2  N   UNL d   1      -3.806   0.761   0.000  0.00  0.00    -0.221 NA
ATOM      3  C   UNL d   1      -4.624   1.008   0.000  0.00  0.00     0.090 A 
ATOM      4  S   UNL d   1      -3.806   2.115   0.000  0.00  0.00    -0.046 SA
ATOM      5  C   UNL d   1      -4.624   1.854   0.000  0.00  0.00     0.058 A 
ENDROOT
BRANCH   1   6
ATOM      6  N   UNL d   1      -2.488   1.438   0.000  0.00  0.00    -0.166 NA
ATOM      7  C   UNL d   1      -2.086   0.698   0.000  0.00  0.00     0.370 C 
ATOM      8  N   UNL d   1      -1.241   0.698   0.000  0.00  0.00    -0.191 NA
ATOM      9  O   UNL d   1      -2.488  -0.007   0.000  0.00  0.00    -0.242 OA
BRANCH   8  10
ATOM     10  C   UNL d   1      -0.839   1.410   0.000  0.00  0.00     0.086 A 
ATOM     11  C   UNL d   1      -1.219   2.136   0.000  0.00  0.00     0.019 A 
ATOM     12  C   UNL d   1      -0.796   2.848   0.000  0.00  0.00     0.002 A 
ATOM     13  C   UNL d   1       0.028   2.827   0.000  0.00  0.00     0.000 A 
ATOM     14  C   UNL d   1       0.423   2.108   0.000  0.00  0.00     0.002 A 
ATOM     15  C   UNL d   1      -0.021   1.410   0.000  0.00  0.00     0.019 A 
ENDBRANCH   8  10
ENDBRANCH   1   6
BRANCH   3  16
ATOM     16  C   UNL d   1      -5.280   0.507   0.000  0.00  0.00     0.018 A 
ATOM     17  C   UNL d   1      -6.062   0.818   0.000  0.00  0.00     0.002 A 
ATOM     18  C   UNL d   1      -6.704   0.331   0.000  0.00  0.00     0.000 A 
ATOM     19  C   UNL d   1      -6.598  -0.507   0.000  0.00  0.00     0.000 A 
ATOM     20  C   UNL d   1      -5.829  -0.811   0.000  0.00  0.00     0.000 A 
ATOM     21  C   UNL d   1      -5.181  -0.303   0.000  0.00  0.00     0.002 A 
ENDBRANCH   3  16
TORSDOF 3
