REMARK  1 active torsions:
REMARK  status: ('A' for Active; 'I' for Inactive)
REMARK    1  A    between atoms: C_9  and  C_1 
ROOT
ATOM      1  C   UNL d   1      -0.123   1.410   0.000  0.00  0.00     0.087 A 
ATOM      2  N   UNL d   1       0.627   1.802   0.000  0.00  0.00    -0.191 NA
ATOM      3  C   UNL d   1      -0.815   1.845   0.000  0.00  0.00     0.036 A 
ATOM      4  C   UNL d   1       0.627   2.665   0.000  0.00  0.00     0.369 A 
ATOM      5  N   UNL d   1      -0.123   3.067   0.000  0.00  0.00    -0.191 NA
ATOM      6  C   UNL d   1      -0.815   2.665   0.000  0.00  0.00     0.088 A 
ATOM      7  C   UNL d   1      -1.539   1.410   0.000  0.00  0.00     0.014 A 
ATOM      8  O   UNL d   1       1.351   3.148   0.000  0.00  0.00    -0.242 OA
ATOM      9  C   UNL d   1      -1.539   3.067   0.000  0.00  0.00     0.020 A 
ATOM     10  C   UNL d   1      -2.252   1.802   0.000  0.00  0.00     0.058 A 
ATOM     11  C   UNL d   1      -2.252   2.665   0.000  0.00  0.00     0.013 A 
ATOM     12 CL   UNL d   1      -2.976   1.346   0.000  0.00  0.00    -0.082 Cl
ENDROOT
BRANCH   1  13
ATOM     13  C   UNL d   1      -0.123   0.622   0.000  0.00  0.00     0.018 A 
ATOM     14  C   UNL d   1      -0.837   0.220   0.000  0.00  0.00     0.002 A 
ATOM     15  C   UNL d   1      -0.879  -0.601   0.000  0.00  0.00     0.000 A 
ATOM     16  C   UNL d   1      -0.123  -1.067   0.000  0.00  0.00     0.000 A 
ATOM     17  C   UNL d   1       0.585  -0.643   0.000  0.00  0.00     0.000 A 
ATOM     18  C   UNL d   1       0.585   0.188   0.000  0.00  0.00     0.002 A 
ENDBRANCH   1  13
TORSDOF 1
