REMARK  5 active torsions:
REMARK  status: ('A' for Active; 'I' for Inactive)
REMARK    1  A    between atoms: C_2  and  C_1 
REMARK       I    between atoms: N_3  and  C_2 
REMARK    2  A    between atoms: C_6  and  N_3 
REMARK    3  A    between atoms: O_15  and  C_5 
REMARK    4  A    between atoms: O_17  and  C_11 
REMARK    5  A    between atoms: O_18  and  C_14 
ROOT
ATOM      1  C   UNL d   1      -0.601   1.071   0.000  0.00  0.00     0.281 C 
ATOM      2  N   UNL d   1      -1.328   0.651   0.000  0.00  0.00    -0.206 NA
ATOM      3  O   UNL d   1      -0.601   1.879   0.000  0.00  0.00    -0.265 OA
ENDROOT
BRANCH   1   4
ATOM      4  C   UNL d   1       0.119   0.651   0.000  0.00  0.00     0.080 A 
ATOM      5  C   UNL d   1       0.833   1.046   0.000  0.00  0.00     0.007 A 
ATOM      6  C   UNL d   1       1.560   0.651   0.000  0.00  0.00     0.000 A 
ATOM      7  C   UNL d   1       2.255   1.046   0.000  0.00  0.00     0.000 A 
ATOM      8  C   UNL d   1       1.560  -0.194   0.000  0.00  0.00     0.002 A 
ATOM      9  C   UNL d   1       2.975   0.651   0.000  0.00  0.00     0.000 A 
ATOM     10  C   UNL d   1       2.975  -0.194   0.000  0.00  0.00     0.000 A 
ATOM     11  C   UNL d   1       2.255  -0.608   0.000  0.00  0.00     0.000 A 
ATOM     12  C   UNL d   1       0.833  -0.608   0.000  0.00  0.00     0.024 A 
ATOM     13  C   UNL d   1       0.119  -0.194   0.000  0.00  0.00     0.099 A 
BRANCH  13  14
ATOM     14  O   UNL d   1      -0.601  -0.608   0.000  0.00  0.00    -0.328 OA
ATOM     15  C   UNL d   1      -0.601  -1.453   0.000  0.00  0.00     0.181 C 
ENDBRANCH  13  14
ENDBRANCH   1   4
BRANCH   2  16
ATOM     16  C   UNL d   1      -2.048   1.071   0.000  0.00  0.00     0.109 A 
ATOM     17  C   UNL d   1      -2.023   1.879   0.000  0.00  0.00     0.045 A 
ATOM     18  C   UNL d   1      -2.737   2.273   0.000  0.00  0.00     0.096 A 
ATOM     19  C   UNL d   1      -3.457   1.879   0.000  0.00  0.00     0.026 A 
ATOM     20  C   UNL d   1      -3.457   1.071   0.000  0.00  0.00     0.028 A 
ATOM     21  C   UNL d   1      -2.774   0.651   0.000  0.00  0.00     0.112 A 
BRANCH  18  22
ATOM     22  O   UNL d   1      -2.737   3.113   0.000  0.00  0.00    -0.328 OA
ATOM     23  C   UNL d   1      -3.432   3.507   0.000  0.00  0.00     0.181 C 
ENDBRANCH  18  22
BRANCH  21  24
ATOM     24  O   UNL d   1      -2.800  -0.194   0.000  0.00  0.00    -0.327 OA
ATOM     25  C   UNL d   1      -3.526  -0.583   0.000  0.00  0.00     0.181 C 
ENDBRANCH  21  24
ENDBRANCH   2  16
TORSDOF 5
