REMARK  1 active torsions:
REMARK  status: ('A' for Active; 'I' for Inactive)
REMARK    1  A    between atoms: C_9  and  C_3 
REMARK       I    between atoms: C_10  and  N_4 
ROOT
ATOM      1  N   UNL d   1      -0.372   0.133   0.000  0.00  0.00    -0.047 N 
ATOM      2  N   UNL d   1      -0.080   0.898   0.000  0.00  0.00    -0.188 N 
ATOM      3  C   UNL d   1       0.745   0.898   0.000  0.00  0.00     0.194 A 
ATOM      4  N   UNL d   1      -1.137   0.133   0.000  0.00  0.00    -0.172 N 
ATOM      5  N   UNL d   1       1.004   0.100   0.000  0.00  0.00    -0.083 NA
ATOM      6  C   UNL d   1      -0.718   1.377   0.000  0.00  0.00     0.104 A 
ATOM      7  O   UNL d   1       0.299  -0.379   0.000  0.00  0.00    -0.089 OA
ATOM      8  C   UNL d   1      -1.390   0.898   0.000  0.00  0.00     0.106 A 
ATOM      9  C   UNL d   1      -1.617  -0.566   0.000  0.00  0.00     0.282 C 
ATOM     10  O   UNL d   1      -1.270  -1.304   0.000  0.00  0.00    -0.265 OA
ATOM     11  C   UNL d   1      -0.792   2.208   0.000  0.00  0.00     0.021 A 
ATOM     12  C   UNL d   1      -2.129   1.250   0.000  0.00  0.00     0.021 A 
ATOM     13  C   UNL d   1      -2.448  -0.506   0.000  0.00  0.00     0.068 C 
ATOM     14  C   UNL d   1      -2.228   2.049   0.000  0.00  0.00     0.002 A 
ATOM     15  C   UNL d   1      -1.550   2.554   0.000  0.00  0.00     0.002 A 
ENDROOT
BRANCH   3  16
ATOM     16  C   UNL d   1       1.164   1.597   0.000  0.00  0.00     0.038 A 
ATOM     17  C   UNL d   1       1.962   1.597   0.000  0.00  0.00     0.003 A 
ATOM     18  C   UNL d   1       2.375   2.335   0.000  0.00  0.00     0.000 A 
ATOM     19  C   UNL d   1       2.401   0.898   0.000  0.00  0.00     0.000 C 
ATOM     20  C   UNL d   1       3.200   2.368   0.000  0.00  0.00     0.000 C 
ATOM     21  C   UNL d   1       1.962   3.007   0.000  0.00  0.00     0.000 A 
ATOM     22  C   UNL d   1       1.164   3.007   0.000  0.00  0.00     0.000 A 
ATOM     23  C   UNL d   1       0.745   2.308   0.000  0.00  0.00     0.003 A 
ATOM     24  C   UNL d   1       0.718   3.745   0.000  0.00  0.00     0.000 C 
ATOM     25  C   UNL d   1      -0.080   2.308   0.000  0.00  0.00     0.000 C 
ENDBRANCH   3  16
TORSDOF 1
