REMARK  6 active torsions:
REMARK  status: ('A' for Active; 'I' for Inactive)
REMARK       I    between atoms: C_2  and  N_1 
REMARK    1  A    between atoms: C_5  and  N_1 
REMARK    2  A    between atoms: C_4  and  C_2 
REMARK    3  A    between atoms: C_3  and  C_6 
REMARK    4  A    between atoms: C_6  and  C_4 
REMARK    5  A    between atoms: O_11  and  C_7 
REMARK    6  A    between atoms: C_14  and  O_11 
ROOT
ATOM      1  C   UNL d   1      -0.898  -0.808   0.000  0.00  0.00     0.107 A 
ATOM      2  C   UNL d   1      -0.898   0.022   0.000  0.00  0.00     0.118 A 
ATOM      3  C   UNL d   1      -1.585  -1.217   0.000  0.00  0.00     0.021 A 
ATOM      4  C   UNL d   1      -1.617   0.427   0.000  0.00  0.00     0.026 A 
ATOM      5  C   UNL d   1      -2.317  -0.826   0.000  0.00  0.00     0.002 A 
ATOM      6  C   UNL d   1      -2.340  -0.018   0.000  0.00  0.00     0.002 A 
ENDROOT
BRANCH   1   7
ATOM      7  N   UNL d   1      -0.175  -1.217   0.000  0.00  0.00    -0.206 NA
ATOM      8  C   UNL d   1       0.539  -0.808   0.000  0.00  0.00     0.280 C 
ATOM      9  O   UNL d   1       0.543  -0.004   0.000  0.00  0.00    -0.265 OA
BRANCH   8  10
ATOM     10  C   UNL d   1       1.271  -1.226   0.000  0.00  0.00     0.068 C 
BRANCH  10  11
ATOM     11  C   UNL d   1       1.981  -0.813   0.000  0.00  0.00     0.069 C 
BRANCH  11  12
ATOM     12  C   UNL d   1       2.681  -1.226   0.000  0.00  0.00     0.297 C 
ATOM     13  O   UNL d   1       3.395  -0.813   0.000  0.00  0.00    -0.264 OA
ATOM     14  N   UNL d   1       2.699  -2.048   0.000  0.00  0.00    -0.102 N 
ENDBRANCH  11  12
ENDBRANCH  10  11
ENDBRANCH   8  10
ENDBRANCH   1   7
BRANCH   2  15
ATOM     15  O   UNL d   1      -0.184   0.454   0.000  0.00  0.00    -0.304 OA
BRANCH  15  16
ATOM     16  C   UNL d   1      -0.198   1.289   0.000  0.00  0.00     0.123 C 
ATOM     17  C   UNL d   1      -0.939   1.666   0.000  0.00  0.00     0.029 C 
ENDBRANCH  15  16
ENDBRANCH   2  15
TORSDOF 6
