REMARK  1 active torsions:
REMARK  status: ('A' for Active; 'I' for Inactive)
REMARK    1  A    between atoms: C_6  and  C_2 
ROOT
ATOM      1  C   UNL d   1      -3.986   0.665   0.000  0.00  0.00     0.018 A 
ATOM      2  C   UNL d   1      -4.704   1.080   0.000  0.00  0.00     0.002 A 
ATOM      3  C   UNL d   1      -5.422   0.665   0.000  0.00  0.00     0.000 A 
ATOM      4  C   UNL d   1      -3.986  -0.149   0.000  0.00  0.00     0.002 A 
ATOM      5  C   UNL d   1      -5.422  -0.176   0.000  0.00  0.00     0.000 A 
ATOM      6  C   UNL d   1      -4.704  -0.580   0.000  0.00  0.00     0.000 A 
ATOM      7  C   UNL d   1      -6.130   1.080   0.000  0.00  0.00     0.000 A 
ATOM      8  C   UNL d   1      -6.130  -0.580   0.000  0.00  0.00     0.000 A 
ATOM      9  C   UNL d   1      -6.848   0.665   0.000  0.00  0.00     0.000 A 
ATOM     10  C   UNL d   1      -6.848  -0.149   0.000  0.00  0.00     0.000 A 
ENDROOT
BRANCH   1  11
ATOM     11  C   UNL d   1      -3.272   1.080   0.000  0.00  0.00     0.090 A 
ATOM     12  N   UNL d   1      -2.517   0.825   0.000  0.00  0.00    -0.219 NA
ATOM     13  C   UNL d   1      -2.022   1.485   0.000  0.00  0.00     0.215 A 
ATOM     14  S   UNL d   1      -2.517   2.150   0.000  0.00  0.00    -0.045 SA
ATOM     15  N   UNL d   1      -1.176   1.485   0.000  0.00  0.00    -0.120 N 
ATOM     16  C   UNL d   1      -3.272   1.894   0.000  0.00  0.00     0.058 A 
ENDBRANCH   1  11
TORSDOF 1
