REMARK  6 active torsions:
REMARK  status: ('A' for Active; 'I' for Inactive)
REMARK    1  A    between atoms: C_2  and  C_1 
REMARK    2  A    between atoms: C_6  and  C_1 
REMARK       I    between atoms: N_10  and  C_2 
REMARK    3  A    between atoms: C_14  and  C_3 
REMARK    4  A    between atoms: C_4  and  C_12 
REMARK    5  A    between atoms: C_7  and  C_6 
REMARK    6  A    between atoms: C_15  and  N_10 
ROOT
ATOM      1  C   UNL d   1      -1.128   3.050   0.000  0.00  0.00     0.128 C 
ATOM      2  C   UNL d   1      -1.512   2.326   0.000  0.00  0.00     0.106 C 
ATOM      3  N   UNL d   1      -1.916   1.609   0.000  0.00  0.00    -0.191 NA
ENDROOT
BRANCH   1   4
ATOM      4  C   UNL d   1      -0.282   3.050   0.000  0.00  0.00     0.289 C 
ATOM      5  N   UNL d   1       0.135   2.377   0.000  0.00  0.00    -0.207 NA
ATOM      6  O   UNL d   1       0.122   3.800   0.000  0.00  0.00    -0.264 OA
BRANCH   5   7
ATOM      7  C   UNL d   1       0.968   2.384   0.000  0.00  0.00     0.085 A 
ATOM      8  C   UNL d   1       1.384   3.108   0.000  0.00  0.00     0.023 A 
ATOM      9  C   UNL d   1       2.198   3.127   0.000  0.00  0.00     0.073 A 
ATOM     10  C   UNL d   1       2.640   2.416   0.000  0.00  0.00     0.004 A 
ATOM     11  C   UNL d   1       2.230   1.692   0.000  0.00  0.00     0.002 A 
ATOM     12  C   UNL d   1       1.410   1.692   0.000  0.00  0.00     0.019 A 
BRANCH   9  13
ATOM     13  C   UNL d   1       2.563   3.845   0.000  0.00  0.00     0.419 C 
ATOM     14  F   UNL d   1       2.871   4.608   0.000  0.00  0.00    -0.166 F 
ATOM     15  F   UNL d   1       3.461   3.922   0.000  0.00  0.00    -0.166 F 
ATOM     16  F   UNL d   1       2.102   4.460   0.000  0.00  0.00    -0.166 F 
ENDBRANCH   9  13
ENDBRANCH   5   7
ENDBRANCH   1   4
BRANCH   1  17
ATOM     17  C   UNL d   1      -1.538   3.762   0.000  0.00  0.00     0.040 C 
BRANCH  17  18
ATOM     18  C   UNL d   1      -2.377   3.762   0.000  0.00  0.00     0.101 A 
ATOM     19  O   UNL d   1      -2.845   3.070   0.000  0.00  0.00    -0.307 OA
ATOM     20  C   UNL d   1      -3.634   3.326   0.000  0.00  0.00     0.100 A 
ATOM     21  C   UNL d   1      -3.634   4.172   0.000  0.00  0.00     0.027 A 
ATOM     22  C   UNL d   1      -2.845   4.415   0.000  0.00  0.00     0.027 A 
BRANCH  20  23
ATOM     23  C   UNL d   1      -4.358   2.897   0.000  0.00  0.00     0.024 A 
ATOM     24  C   UNL d   1      -4.403   2.070   0.000  0.00  0.00     0.013 A 
ATOM     25  C   UNL d   1      -5.146   1.666   0.000  0.00  0.00     0.058 A 
ATOM     26 CL   UNL d   1      -5.146   0.820   0.000  0.00  0.00    -0.082 Cl
ATOM     27  C   UNL d   1      -5.838   2.108   0.000  0.00  0.00     0.011 A 
ATOM     28  C   UNL d   1      -5.819   2.916   0.000  0.00  0.00     0.001 A 
ATOM     29  C   UNL d   1      -5.127   3.326   0.000  0.00  0.00     0.002 A 
ENDBRANCH  20  23
ENDBRANCH  17  18
ENDBRANCH   1  17
TORSDOF 6
