REMARK  3 active torsions:
REMARK  status: ('A' for Active; 'I' for Inactive)
REMARK    1  A    between atoms: C_5  and  C_1 
REMARK    2  A    between atoms: C_7  and  C_5 
REMARK    3  A    between atoms: C_10  and  C_7 
ROOT
ATOM      1  C   UNL d   1       0.112   0.742   0.000  0.00  0.00     0.220 A 
ATOM      2  C   UNL d   1       0.579   0.093   0.000  0.00  0.00     0.315 A 
ATOM      3  N   UNL d   1       0.112  -0.579   0.000  0.00  0.00    -0.205 NA
ATOM      4  C   UNL d   1      -0.672   0.499   0.000  0.00  0.00     0.059 A 
ATOM      5  C   UNL d   1      -0.672  -0.336   0.000  0.00  0.00     0.088 A 
ATOM      6  O   UNL d   1       1.405   0.135   0.000  0.00  0.00    -0.262 OA
ATOM      7  O   UNL d   1      -0.499   1.283   0.000  0.00  0.00    -0.285 OA
ATOM      8  C   UNL d   1      -1.395   0.896   0.000  0.00  0.00     0.005 A 
ATOM      9  C   UNL d   1      -1.395  -0.761   0.000  0.00  0.00     0.019 A 
ATOM     10  C   UNL d   1      -2.109   0.499   0.000  0.00  0.00     0.000 A 
ATOM     11  C   UNL d   1      -2.109  -0.336   0.000  0.00  0.00     0.002 A 
ENDROOT
BRANCH   1  12
ATOM     12  C   UNL d   1       0.467   1.479   0.000  0.00  0.00     0.086 C 
BRANCH  12  13
ATOM     13  C   UNL d   1       1.293   1.568   0.000  0.00  0.00     0.199 C 
ATOM     14  O   UNL d   1       1.769   0.896   0.000  0.00  0.00    -0.286 OA
BRANCH  13  15
ATOM     15  C   UNL d   1       1.629   2.310   0.000  0.00  0.00     0.039 A 
ATOM     16  C   UNL d   1       1.162   3.006   0.000  0.00  0.00     0.003 A 
ATOM     17  C   UNL d   1       1.498   3.748   0.000  0.00  0.00     0.000 A 
ATOM     18  C   UNL d   1       2.329   3.808   0.000  0.00  0.00     0.000 A 
ATOM     19  C   UNL d   1       2.800   3.136   0.000  0.00  0.00     0.000 A 
ATOM     20  C   UNL d   1       2.455   2.404   0.000  0.00  0.00     0.003 A 
ENDBRANCH  13  15
ENDBRANCH  12  13
ENDBRANCH   1  12
TORSDOF 3
