REMARK  4 active torsions:
REMARK  status: ('A' for Active; 'I' for Inactive)
REMARK    1  A    between atoms: C_12  and  C_2 
REMARK    2  A    between atoms: N_9  and  C_3 
REMARK       I    between atoms: C_7  and  N_8 
REMARK    3  A    between atoms: C_10  and  C_7 
REMARK    4  A    between atoms: N_8  and  N_9 
ROOT
ATOM      1  C   UNL d   1       1.009   4.043   0.000  0.00  0.00     0.037 A 
ATOM      2  C   UNL d   1       1.303   3.269   0.000  0.00  0.00     0.101 A 
ATOM      3  C   UNL d   1       2.664   3.785   0.000  0.00  0.00     0.768 A 
ATOM      4  N   UNL d   1       2.119   3.151   0.000  0.00  0.00    -0.058 NA
ATOM      5  N   UNL d   1       2.347   4.571   0.000  0.00  0.00    -0.058 NA
ATOM      6  C   UNL d   1       1.538   4.695   0.000  0.00  0.00     0.101 A 
ATOM      7  C   UNL d   1       0.200   4.202   0.000  0.00  0.00     0.010 A 
ATOM      8  C   UNL d   1       1.238   5.487   0.000  0.00  0.00     0.020 A 
ATOM      9  C   UNL d   1      -0.100   4.959   0.000  0.00  0.00     0.035 A 
ATOM     10  C   UNL d   1       0.428   5.593   0.000  0.00  0.00     0.008 A 
ATOM     11 BR   UNL d   1      -0.945   5.099   0.000  0.00  0.00    -0.049 Br
ENDROOT
BRANCH   3  12
ATOM     12  N   UNL d   1       3.486   3.674   0.000  0.00  0.00     0.049 NA
BRANCH  12  13
ATOM     13  N   UNL d   1       4.002   4.313   0.000  0.00  0.00    -0.094 NA
ATOM     14  C   UNL d   1       4.795   4.202   0.000  0.00  0.00     0.273 C 
ATOM     15  O   UNL d   1       5.287   4.871   0.000  0.00  0.00    -0.269 OA
BRANCH  14  16
ATOM     16  C   UNL d   1       5.111   3.445   0.000  0.00  0.00     0.075 C 
ATOM     17  C   UNL d   1       4.319   3.116   0.000  0.00  0.00     0.009 C 
ATOM     18  C   UNL d   1       5.868   3.785   0.000  0.00  0.00     0.009 C 
ATOM     19  C   UNL d   1       5.428   2.688   0.000  0.00  0.00     0.009 C 
ENDBRANCH  14  16
ENDBRANCH  12  13
ENDBRANCH   3  12
BRANCH   2  20
ATOM     20  C   UNL d   1       0.810   2.623   0.000  0.00  0.00     0.018 A 
ATOM     21  C   UNL d   1       1.097   1.866   0.000  0.00  0.00     0.002 A 
ATOM     22  C   UNL d   1       0.605   1.226   0.000  0.00  0.00     0.000 A 
ATOM     23  C   UNL d   1      -0.211   1.350   0.000  0.00  0.00     0.000 A 
ATOM     24  C   UNL d   1      -0.505   2.071   0.000  0.00  0.00     0.000 A 
ATOM     25  C   UNL d   1      -0.012   2.740   0.000  0.00  0.00     0.002 A 
ENDBRANCH   2  20
TORSDOF 4
