REMARK  4 active torsions:
REMARK  status: ('A' for Active; 'I' for Inactive)
REMARK    1  A    between atoms: C_3  and  S_1 
REMARK    2  A    between atoms: N_4  and  S_1 
REMARK    3  A    between atoms: C_2  and  C_8 
REMARK       I    between atoms: N_5  and  C_2 
REMARK    4  A    between atoms: C_14  and  N_5 
ROOT
ATOM      1  C   UNL d   1      -3.803   2.558   0.000  0.00  0.00     0.104 A 
ATOM      2  C   UNL d   1      -2.125   2.564   0.000  0.00  0.00     0.058 A 
ATOM      3  C   UNL d   1      -3.388   1.880   0.000  0.00  0.00     0.013 A 
ATOM      4  C   UNL d   1      -3.388   3.254   0.000  0.00  0.00     0.013 A 
ATOM      5  C   UNL d   1      -2.564   3.291   0.000  0.00  0.00     0.005 A 
ATOM      6  C   UNL d   1      -2.558   1.880   0.000  0.00  0.00     0.005 A 
ENDROOT
BRANCH   2   7
ATOM      7  C   UNL d   1      -1.276   2.564   0.000  0.00  0.00     0.279 C 
ATOM      8  N   UNL d   1      -0.855   1.905   0.000  0.00  0.00    -0.208 NA
ATOM      9  O   UNL d   1      -0.897   3.327   0.000  0.00  0.00    -0.265 OA
BRANCH   8  10
ATOM     10  C   UNL d   1      -0.030   1.935   0.000  0.00  0.00     0.085 A 
ATOM     11  C   UNL d   1       0.391   1.245   0.000  0.00  0.00     0.020 A 
ATOM     12  C   UNL d   1       1.215   1.276   0.000  0.00  0.00     0.013 A 
ATOM     13  C   UNL d   1       1.618   1.996   0.000  0.00  0.00     0.058 A 
ATOM     14  C   UNL d   1       1.172   2.704   0.000  0.00  0.00     0.013 A 
ATOM     15 CL   UNL d   1       2.497   1.978   0.000  0.00  0.00    -0.082 Cl
ATOM     16  C   UNL d   1       0.348   2.668   0.000  0.00  0.00     0.020 A 
ENDBRANCH   8  10
ENDBRANCH   2   7
BRANCH   1  17
ATOM     17  S   UNL d   1      -4.689   2.631   0.000  0.00  0.00     0.271 S 
ATOM     18  O   UNL d   1      -4.689   3.474   0.000  0.00  0.00    -0.200 OA
ATOM     19  O   UNL d   1      -4.683   1.825   0.000  0.00  0.00    -0.200 OA
BRANCH  17  20
ATOM     20  N   UNL d   1      -5.568   2.631   0.000  0.00  0.00    -0.226 N 
ATOM     21  C   UNL d   1      -5.983   1.905   0.000  0.00  0.00     0.111 C 
ATOM     22  C   UNL d   1      -5.983   3.345   0.000  0.00  0.00     0.111 C 
ENDBRANCH  17  20
ENDBRANCH   1  17
TORSDOF 4
