REMARK  4 active torsions:
REMARK  status: ('A' for Active; 'I' for Inactive)
REMARK    1  A    between atoms: N_10  and  C_1 
REMARK       I    between atoms: C_12  and  N_10 
REMARK    2  A    between atoms: C_17  and  C_12 
REMARK    3  A    between atoms: C_18  and  C_17 
REMARK    4  A    between atoms: C_19  and  C_18 
ROOT
ATOM      1  C   UNL d   1      -1.994   2.504   0.000  0.00  0.00     0.197 A 
ATOM      2  C   UNL d   1      -3.239   2.933   0.000  0.00  0.00     0.057 A 
ATOM      3  C   UNL d   1      -3.920   3.348   0.000  0.00  0.00     0.056 A 
ATOM      4  N   UNL d   1      -2.450   1.851   0.000  0.00  0.00    -0.221 NA
ATOM      5  S   UNL d   1      -2.450   3.199   0.000  0.00  0.00    -0.046 SA
ATOM      6  N   UNL d   1      -5.226   3.512   0.000  0.00  0.00    -0.238 NA
ATOM      7  S   UNL d   1      -4.083   4.138   0.000  0.00  0.00    -0.066 SA
ATOM      8  C   UNL d   1      -3.239   2.116   0.000  0.00  0.00     0.090 A 
ATOM      9  C   UNL d   1      -4.648   2.960   0.000  0.00  0.00     0.088 A 
ATOM     10  C   UNL d   1      -4.934   4.240   0.000  0.00  0.00     0.111 A 
ATOM     11  C   UNL d   1      -4.675   2.144   0.000  0.00  0.00     0.021 A 
ATOM     12  C   UNL d   1      -3.954   1.715   0.000  0.00  0.00     0.021 A 
ATOM     13  C   UNL d   1      -5.363   4.954   0.000  0.00  0.00     0.028 C 
ENDROOT
BRANCH   1  14
ATOM     14  N   UNL d   1      -1.143   2.504   0.000  0.00  0.00    -0.183 NA
ATOM     15  C   UNL d   1      -0.755   3.219   0.000  0.00  0.00     0.281 C 
ATOM     16  O   UNL d   1      -1.245   3.913   0.000  0.00  0.00    -0.265 OA
BRANCH  15  17
ATOM     17  C   UNL d   1       0.027   3.219   0.000  0.00  0.00     0.063 C 
BRANCH  17  18
ATOM     18  C   UNL d   1       0.490   2.389   0.000  0.00  0.00     0.005 C 
BRANCH  18  19
ATOM     19  C   UNL d   1       1.436   2.389   0.000  0.00  0.00     0.000 C 
ATOM     20  C   UNL d   1       1.960   1.749   0.000  0.00  0.00     0.000 C 
ENDBRANCH  18  19
ENDBRANCH  17  18
ENDBRANCH  15  17
ENDBRANCH   1  14
TORSDOF 4
