REMARK  3 active torsions:
REMARK  status: ('A' for Active; 'I' for Inactive)
REMARK    1  A    between atoms: C_7  and  N_1 
REMARK    2  A    between atoms: C_11  and  C_4 
REMARK    3  A    between atoms: C_9  and  C_7 
ROOT
ATOM      1  N   UNL d   1       6.594  -4.263   0.000  0.00  0.00    -0.252 N 
ATOM      2  C   UNL d   1       7.034  -3.532   0.000  0.00  0.00     0.354 A 
ATOM      3  C   UNL d   1       5.389  -3.478   0.000  0.00  0.00     0.035 A 
ATOM      4  C   UNL d   1       5.771  -4.225   0.000  0.00  0.00     0.070 A 
ATOM      5  N   UNL d   1       6.631  -2.809   0.000  0.00  0.00    -0.192 NA
ATOM      6  C   UNL d   1       5.808  -2.771   0.000  0.00  0.00     0.087 A 
ATOM      7  C   UNL d   1       4.566  -3.478   0.000  0.00  0.00     0.010 A 
ATOM      8  O   UNL d   1       7.857  -3.532   0.000  0.00  0.00    -0.244 OA
ATOM      9  C   UNL d   1       5.439  -2.069   0.000  0.00  0.00     0.020 A 
ATOM     10  C   UNL d   1       4.155  -2.759   0.000  0.00  0.00     0.035 A 
ATOM     11  C   UNL d   1       4.616  -2.023   0.000  0.00  0.00     0.008 A 
ATOM     12 BR   UNL d   1       3.307  -2.759   0.000  0.00  0.00    -0.049 Br
ENDROOT
BRANCH   4  13
ATOM     13  C   UNL d   1       5.335  -4.878   0.000  0.00  0.00     0.016 A 
ATOM     14  C   UNL d   1       5.700  -5.613   0.000  0.00  0.00     0.001 A 
ATOM     15  C   UNL d   1       5.252  -6.311   0.000  0.00  0.00     0.000 A 
ATOM     16  C   UNL d   1       4.417  -6.269   0.000  0.00  0.00     0.000 A 
ATOM     17  C   UNL d   1       4.043  -5.534   0.000  0.00  0.00     0.000 A 
ATOM     18  C   UNL d   1       4.479  -4.865   0.000  0.00  0.00     0.001 A 
ENDBRANCH   4  13
BRANCH   1  19
ATOM     19  C   UNL d   1       6.968  -5.011   0.000  0.00  0.00     0.155 C 
BRANCH  19  20
ATOM     20  C   UNL d   1       7.794  -5.048   0.000  0.00  0.00     0.230 C 
ATOM     21  O   UNL d   1       8.239  -4.329   0.000  0.00  0.00    -0.643 OA
ATOM     22  O   UNL d   1       8.156  -5.783   0.000  0.00  0.00    -0.643 OA
ENDBRANCH  19  20
ENDBRANCH   1  19
TORSDOF 3
