REMARK  1 active torsions:
REMARK  status: ('A' for Active; 'I' for Inactive)
REMARK    1  A    between atoms: C_7  and  C_3 
ROOT
ATOM      1  C   UNL d   1       0.859   1.475   0.000  0.00  0.00     0.179 A 
ATOM      2  N   UNL d   1       1.514   1.002   0.000  0.00  0.00    -0.221 NA
ATOM      3  C   UNL d   1       1.276   0.211   0.000  0.00  0.00     0.101 A 
ATOM      4  N   UNL d   1       0.207   0.986   0.000  0.00  0.00    -0.282 N 
ATOM      5  C   UNL d   1       0.477   0.211   0.000  0.00  0.00     0.101 A 
ATOM      6  S   UNL d   1       0.572   2.254   0.000  0.00  0.00    -0.048 SA
ATOM      7  C   UNL d   1      -0.477   1.463   0.000  0.00  0.00     0.089 A 
ATOM      8  C   UNL d   1      -0.270   2.238   0.000  0.00  0.00     0.057 A 
ENDROOT
BRANCH   3   9
ATOM      9  C   UNL d   1       1.733  -0.477   0.000  0.00  0.00     0.019 A 
ATOM     10  C   UNL d   1       1.383  -1.220   0.000  0.00  0.00     0.002 A 
ATOM     11  C   UNL d   1       1.841  -1.912   0.000  0.00  0.00     0.011 A 
ATOM     12  C   UNL d   1       2.639  -1.860   0.000  0.00  0.00     0.058 A 
ATOM     13  C   UNL d   1       3.021  -1.101   0.000  0.00  0.00     0.011 A 
ATOM     14 CL   UNL d   1       3.105  -2.564   0.000  0.00  0.00    -0.082 Cl
ATOM     15  C   UNL d   1       2.556  -0.417   0.000  0.00  0.00     0.002 A 
ENDBRANCH   3   9
TORSDOF 1
