REMARK  4 active torsions:
REMARK  status: ('A' for Active; 'I' for Inactive)
REMARK    1  A    between atoms: N_2  and  S_1 
REMARK    2  A    between atoms: C_4  and  S_1 
REMARK    3  A    between atoms: C_3  and  C_8 
REMARK       I    between atoms: N_5  and  C_3 
REMARK    4  A    between atoms: C_17  and  N_5 
ROOT
ATOM      1  C   UNL d   1      -2.683   1.154   0.000  0.00  0.00     0.104 A 
ATOM      2  C   UNL d   1      -1.265   1.992   0.000  0.00  0.00     0.058 A 
ATOM      3  C   UNL d   1      -2.683   1.992   0.000  0.00  0.00     0.013 A 
ATOM      4  C   UNL d   1      -1.955   0.740   0.000  0.00  0.00     0.013 A 
ATOM      5  C   UNL d   1      -1.972   2.399   0.000  0.00  0.00     0.005 A 
ATOM      6  C   UNL d   1      -1.245   1.154   0.000  0.00  0.00     0.005 A 
ENDROOT
BRANCH   1   7
ATOM      7  S   UNL d   1      -3.397   0.723   0.000  0.00  0.00     0.272 S 
ATOM      8  O   UNL d   1      -2.978  -0.004   0.000  0.00  0.00    -0.200 OA
ATOM      9  O   UNL d   1      -3.829   1.450   0.000  0.00  0.00    -0.200 OA
BRANCH   7  10
ATOM     10  N   UNL d   1      -4.125   0.308   0.000  0.00  0.00    -0.225 N 
ATOM     11  C   UNL d   1      -4.839   0.723   0.000  0.00  0.00     0.118 A 
ATOM     12  C   UNL d   1      -5.542   0.308   0.000  0.00  0.00     0.142 A 
ATOM     13  O   UNL d   1      -5.542  -0.542   0.000  0.00  0.00    -0.300 OA
ATOM     14  C   UNL d   1      -4.839  -0.953   0.000  0.00  0.00     0.142 A 
ATOM     15  C   UNL d   1      -4.125  -0.542   0.000  0.00  0.00     0.118 A 
ENDBRANCH   7  10
ENDBRANCH   1   7
BRANCH   2  16
ATOM     16  C   UNL d   1      -0.538   2.399   0.000  0.00  0.00     0.279 C 
ATOM     17  N   UNL d   1       0.177   1.992   0.000  0.00  0.00    -0.208 NA
ATOM     18  O   UNL d   1      -0.555   3.225   0.000  0.00  0.00    -0.265 OA
BRANCH  17  19
ATOM     19  C   UNL d   1       0.904   2.399   0.000  0.00  0.00     0.085 A 
ATOM     20  C   UNL d   1       0.904   3.225   0.000  0.00  0.00     0.019 A 
ATOM     21  C   UNL d   1       1.615   3.644   0.000  0.00  0.00     0.002 A 
ATOM     22  C   UNL d   1       2.321   3.225   0.000  0.00  0.00     0.000 A 
ATOM     23  C   UNL d   1       2.321   2.399   0.000  0.00  0.00     0.002 A 
ATOM     24  C   UNL d   1       1.615   1.992   0.000  0.00  0.00     0.019 A 
ENDBRANCH  17  19
ENDBRANCH   2  16
TORSDOF 4
