REMARK  3 active torsions:
REMARK  status: ('A' for Active; 'I' for Inactive)
REMARK    1  A    between atoms: N_2  and  C_1 
REMARK       I    between atoms: C_4  and  N_2 
REMARK    2  A    between atoms: C_8  and  C_4 
REMARK    3  A    between atoms: C_10  and  C_5 
ROOT
ATOM      1  C   UNL d   1      -3.330   0.400   0.000  0.00  0.00     0.197 A 
ATOM      2  N   UNL d   1      -3.787  -0.272   0.000  0.00  0.00    -0.221 NA
ATOM      3  C   UNL d   1      -4.597   0.014   0.000  0.00  0.00     0.090 A 
ATOM      4  S   UNL d   1      -3.797   1.086   0.000  0.00  0.00    -0.046 SA
ATOM      5  C   UNL d   1      -4.573   0.853   0.000  0.00  0.00     0.058 A 
ENDROOT
BRANCH   1   6
ATOM      6  N   UNL d   1      -2.482   0.400   0.000  0.00  0.00    -0.183 NA
ATOM      7  C   UNL d   1      -2.082   1.143   0.000  0.00  0.00     0.281 C 
ATOM      8  O   UNL d   1      -2.511   1.853   0.000  0.00  0.00    -0.265 OA
BRANCH   7   9
ATOM      9  C   UNL d   1      -1.258   1.181   0.000  0.00  0.00     0.058 A 
ATOM     10  C   UNL d   1      -0.838   0.481   0.000  0.00  0.00     0.006 A 
ATOM     11  C   UNL d   1       0.000   0.510   0.000  0.00  0.00     0.012 A 
ATOM     12  C   UNL d   1       0.405   1.224   0.000  0.00  0.00     0.058 A 
ATOM     13  C   UNL d   1      -0.038   1.939   0.000  0.00  0.00     0.012 A 
ATOM     14 CL   UNL d   1       1.162   1.272   0.000  0.00  0.00    -0.082 Cl
ATOM     15  C   UNL d   1      -0.872   1.910   0.000  0.00  0.00     0.006 A 
ENDBRANCH   7   9
ENDBRANCH   1   6
BRANCH   3  16
ATOM     16  C   UNL d   1      -5.283  -0.434   0.000  0.00  0.00     0.018 A 
ATOM     17  C   UNL d   1      -5.255  -1.258   0.000  0.00  0.00     0.002 A 
ATOM     18  C   UNL d   1      -5.955  -1.715   0.000  0.00  0.00     0.000 A 
ATOM     19  C   UNL d   1      -6.689  -1.320   0.000  0.00  0.00     0.000 A 
ATOM     20  C   UNL d   1      -6.712  -0.500   0.000  0.00  0.00     0.000 A 
ATOM     21  C   UNL d   1      -6.003  -0.057   0.000  0.00  0.00     0.002 A 
ENDBRANCH   3  16
TORSDOF 3
