REMARK  2 active torsions:
REMARK  status: ('A' for Active; 'I' for Inactive)
REMARK    1  A    between atoms: N_5  and  C_1 
REMARK       I    between atoms: C_7  and  N_5 
REMARK    2  A    between atoms: C_11  and  C_7 
ROOT
ATOM      1  C   UNL d   1      -3.300   1.074   0.000  0.00  0.00     0.124 A 
ATOM      2  C   UNL d   1      -3.767   1.717   0.000  0.00  0.00     0.093 A 
ATOM      3  S   UNL d   1      -3.767   0.396   0.000  0.00  0.00    -0.067 SA
ATOM      4  C   UNL d   1      -4.551   1.477   0.000  0.00  0.00     0.018 A 
ATOM      5  C   UNL d   1      -4.551   0.629   0.000  0.00  0.00     0.032 A 
ATOM      6  C   UNL d   1      -3.498   2.537   0.000  0.00  0.00     0.103 C 
ATOM      7  N   UNL d   1      -3.258   3.322   0.000  0.00  0.00    -0.191 NA
ATOM      8  C   UNL d   1      -5.258   1.887   0.000  0.00  0.00     0.001 A 
ATOM      9  C   UNL d   1      -5.258   0.226   0.000  0.00  0.00     0.006 A 
ATOM     10  C   UNL d   1      -5.972   1.442   0.000  0.00  0.00     0.000 A 
ATOM     11  C   UNL d   1      -5.972   0.671   0.000  0.00  0.00     0.001 A 
ENDROOT
BRANCH   1  12
ATOM     12  N   UNL d   1      -2.452   1.074   0.000  0.00  0.00    -0.201 NA
ATOM     13  C   UNL d   1      -2.035   0.360   0.000  0.00  0.00     0.280 C 
ATOM     14  O   UNL d   1      -2.452  -0.389   0.000  0.00  0.00    -0.265 OA
BRANCH  13  15
ATOM     15  C   UNL d   1      -1.223   0.360   0.000  0.00  0.00     0.058 A 
ATOM     16  C   UNL d   1      -0.820  -0.389   0.000  0.00  0.00     0.005 A 
ATOM     17  C   UNL d   1       0.028  -0.389   0.000  0.00  0.00     0.000 A 
ATOM     18  C   UNL d   1       0.431   0.360   0.000  0.00  0.00     0.000 A 
ATOM     19  C   UNL d   1       0.028   1.074   0.000  0.00  0.00     0.000 A 
ATOM     20  C   UNL d   1      -0.784   1.074   0.000  0.00  0.00     0.005 A 
ENDBRANCH  13  15
ENDBRANCH   1  12
TORSDOF 2
