REMARK  5 active torsions:
REMARK  status: ('A' for Active; 'I' for Inactive)
REMARK    1  A    between atoms: C_10  and  C_1 
REMARK    2  A    between atoms: C_16  and  C_2 
REMARK    3  A    between atoms: C_7  and  C_14 
REMARK    4  A    between atoms: C_13  and  C_10 
REMARK    5  A    between atoms: C_14  and  C_13 
ROOT
ATOM      1  C   UNL d   1      -0.579  -0.570   0.000  0.00  0.00     0.097 A 
ATOM      2  C   UNL d   1      -1.310  -0.143   0.000  0.00  0.00     0.009 A 
ATOM      3  C   UNL d   1      -0.579  -1.390   0.000  0.00  0.00     0.282 A 
ATOM      4  C   UNL d   1      -1.996  -0.570   0.000  0.00  0.00     0.019 A 
ATOM      5  N   UNL d   1      -1.310  -1.817   0.000  0.00  0.00    -0.208 NA
ATOM      6  C   UNL d   1      -1.996  -1.390   0.000  0.00  0.00     0.085 A 
ATOM      7  C   UNL d   1      -2.717  -0.143   0.000  0.00  0.00     0.013 A 
ATOM      8  C   UNL d   1      -2.717  -1.817   0.000  0.00  0.00     0.020 A 
ATOM      9  O   UNL d   1       0.143  -1.817   0.000  0.00  0.00    -0.265 OA
ATOM     10  C   UNL d   1      -3.448  -0.570   0.000  0.00  0.00     0.058 A 
ATOM     11  C   UNL d   1      -3.448  -1.390   0.000  0.00  0.00     0.013 A 
ATOM     12 CL   UNL d   1      -4.170  -0.143   0.000  0.00  0.00    -0.082 Cl
ENDROOT
BRANCH   1  13
ATOM     13  C   UNL d   1       0.143  -0.143   0.000  0.00  0.00     0.200 C 
ATOM     14  O   UNL d   1       0.143   0.713   0.000  0.00  0.00    -0.286 OA
BRANCH  13  15
ATOM     15  C   UNL d   1       0.864  -0.534   0.000  0.00  0.00     0.045 C 
BRANCH  15  16
ATOM     16  C   UNL d   1       1.604  -0.143   0.000  0.00  0.00     0.042 C 
BRANCH  16  17
ATOM     17  C   UNL d   1       2.325  -0.570   0.000  0.00  0.00     0.163 A 
ATOM     18  N   UNL d   1       3.100  -0.321   0.000  0.00  0.00    -0.225 NA
ATOM     19  C   UNL d   1       3.564  -0.998   0.000  0.00  0.00     0.101 A 
ATOM     20  C   UNL d   1       4.383  -1.078   0.000  0.00  0.00     0.021 A 
ATOM     21  C   UNL d   1       3.100  -1.639   0.000  0.00  0.00     0.101 A 
ATOM     22  C   UNL d   1       4.713  -1.853   0.000  0.00  0.00     0.002 A 
ATOM     23  C   UNL d   1       4.205  -2.495   0.000  0.00  0.00     0.002 A 
ATOM     24  C   UNL d   1       3.394  -2.361   0.000  0.00  0.00     0.021 A 
ATOM     25  N   UNL d   1       2.281  -1.390   0.000  0.00  0.00    -0.225 NA
ENDBRANCH  16  17
ENDBRANCH  15  16
ENDBRANCH  13  15
ENDBRANCH   1  13
BRANCH   2  26
ATOM     26  C   UNL d   1      -1.310   0.713   0.000  0.00  0.00     0.000 A 
ATOM     27  C   UNL d   1      -0.579   1.096   0.000  0.00  0.00     0.000 A 
ATOM     28  C   UNL d   1      -0.534   1.915   0.000  0.00  0.00     0.000 A 
ATOM     29  C   UNL d   1      -1.310   2.343   0.000  0.00  0.00     0.000 A 
ATOM     30  C   UNL d   1      -1.996   1.951   0.000  0.00  0.00     0.000 A 
ATOM     31  C   UNL d   1      -1.996   1.096   0.000  0.00  0.00     0.000 A 
ENDBRANCH   2  26
TORSDOF 5
