REMARK  6 active torsions:
REMARK  status: ('A' for Active; 'I' for Inactive)
REMARK    1  A    between atoms: C_17  and  N_1 
REMARK    2  A    between atoms: N_9  and  C_8 
REMARK    3  A    between atoms: C_11  and  O_21 
REMARK    4  A    between atoms: C_15  and  C_11 
REMARK    5  A    between atoms: C_30  and  C_17 
REMARK    6  A    between atoms: O_21  and  C_30 
ROOT
ATOM      1  N   UNL d   1      -0.297   0.998   0.000  0.00  0.00    -0.238 N 
ATOM      2  C   UNL d   1      -0.701   1.715   0.000  0.00  0.00     0.267 A 
ATOM      3  C   UNL d   1      -0.701   0.281   0.000  0.00  0.00     0.267 A 
ATOM      4  C   UNL d   1      -1.545   1.715   0.000  0.00  0.00     0.057 A 
ATOM      5  C   UNL d   1      -1.954   0.998   0.000  0.00  0.00     0.011 A 
ATOM      6  C   UNL d   1      -1.524   0.281   0.000  0.00  0.00     0.057 A 
ATOM      7  C   UNL d   1      -2.766   0.998   0.000  0.00  0.00     0.016 A 
ATOM      8  C   UNL d   1      -3.180   1.715   0.000  0.00  0.00     0.064 A 
ATOM      9  C   UNL d   1      -1.954   2.421   0.000  0.00  0.00     0.006 A 
ATOM     10  C   UNL d   1      -2.766   2.421   0.000  0.00  0.00     0.018 A 
ATOM     11  O   UNL d   1      -0.297  -0.483   0.000  0.00  0.00    -0.267 OA
ATOM     12  O   UNL d   1      -0.271   2.421   0.000  0.00  0.00    -0.267 OA
ATOM     13  C   UNL d   1      -1.927  -0.451   0.000  0.00  0.00     0.005 A 
ATOM     14  C   UNL d   1      -3.180   0.281   0.000  0.00  0.00     0.002 A 
ATOM     15  C   UNL d   1      -2.766  -0.451   0.000  0.00  0.00     0.000 A 
ENDROOT
BRANCH   1  16
ATOM     16  C   UNL d   1       0.547   0.998   0.000  0.00  0.00     0.113 C 
BRANCH  16  17
ATOM     17  C   UNL d   1       0.956   1.715   0.000  0.00  0.00     0.145 C 
BRANCH  17  18
ATOM     18  O   UNL d   1       1.768   1.715   0.000  0.00  0.00    -0.269 OA
BRANCH  18  19
ATOM     19  C   UNL d   1       2.171   2.421   0.000  0.00  0.00     0.300 C 
ATOM     20  O   UNL d   1       1.768   3.137   0.000  0.00  0.00    -0.259 OA
BRANCH  19  21
ATOM     21  C   UNL d   1       2.994   2.421   0.000  0.00  0.00     0.064 A 
ATOM     22  C   UNL d   1       3.397   3.137   0.000  0.00  0.00     0.006 A 
ATOM     23  C   UNL d   1       4.242   3.137   0.000  0.00  0.00     0.012 A 
ATOM     24  C   UNL d   1       4.650   2.421   0.000  0.00  0.00     0.058 A 
ATOM     25  C   UNL d   1       4.242   1.715   0.000  0.00  0.00     0.012 A 
ATOM     26 CL   UNL d   1       5.462   2.421   0.000  0.00  0.00    -0.082 Cl
ATOM     27  C   UNL d   1       3.424   1.715   0.000  0.00  0.00     0.006 A 
ENDBRANCH  19  21
ENDBRANCH  18  19
ENDBRANCH  17  18
ENDBRANCH  16  17
ENDBRANCH   1  16
BRANCH   8  28
ATOM     28  N   UNL d   1      -4.013   1.715   0.000  0.00  0.00    -0.300 N 
ATOM     29  C   UNL d   1      -4.422   2.421   0.000  0.00  0.00     0.107 A 
ATOM     30  C   UNL d   1      -5.239   2.421   0.000  0.00  0.00     0.142 A 
ATOM     31  O   UNL d   1      -5.648   1.715   0.000  0.00  0.00    -0.300 OA
ATOM     32  C   UNL d   1      -5.239   0.998   0.000  0.00  0.00     0.142 A 
ATOM     33  C   UNL d   1      -4.422   0.998   0.000  0.00  0.00     0.107 A 
ENDBRANCH   8  28
TORSDOF 6
