REMARK  3 active torsions:
REMARK  status: ('A' for Active; 'I' for Inactive)
REMARK    1  A    between atoms: N_5  and  C_1 
REMARK       I    between atoms: C_6  and  N_5 
REMARK    2  A    between atoms: C_8  and  C_6 
REMARK    3  A    between atoms: O_16  and  C_12 
ROOT
ATOM      1  C   UNL d   1       0.624   1.895   0.000  0.00  0.00     0.124 A 
ATOM      2  C   UNL d   1       0.156   2.559   0.000  0.00  0.00     0.093 A 
ATOM      3  S   UNL d   1       0.156   1.222   0.000  0.00  0.00    -0.067 SA
ATOM      4  C   UNL d   1      -0.631   2.329   0.000  0.00  0.00     0.018 A 
ATOM      5  C   UNL d   1      -0.631   1.468   0.000  0.00  0.00     0.032 A 
ATOM      6  C   UNL d   1       0.427   3.388   0.000  0.00  0.00     0.103 C 
ATOM      7  N   UNL d   1       0.697   4.175   0.000  0.00  0.00    -0.191 NA
ATOM      8  C   UNL d   1      -1.419   2.559   0.000  0.00  0.00     0.001 A 
ATOM      9  C   UNL d   1      -1.419   1.222   0.000  0.00  0.00     0.006 A 
ATOM     10  C   UNL d   1      -1.895   1.895   0.000  0.00  0.00     0.001 A 
ENDROOT
BRANCH   1  11
ATOM     11  N   UNL d   1       1.485   1.895   0.000  0.00  0.00    -0.201 NA
ATOM     12  C   UNL d   1       1.879   1.181   0.000  0.00  0.00     0.281 C 
ATOM     13  O   UNL d   1       1.485   0.435   0.000  0.00  0.00    -0.265 OA
BRANCH  12  14
ATOM     14  C   UNL d   1       2.715   1.181   0.000  0.00  0.00     0.080 A 
ATOM     15  C   UNL d   1       3.150   0.435   0.000  0.00  0.00     0.099 A 
ATOM     16  C   UNL d   1       3.970   0.435   0.000  0.00  0.00     0.024 A 
ATOM     17  C   UNL d   1       4.364   1.181   0.000  0.00  0.00     0.002 A 
ATOM     18  C   UNL d   1       4.011   1.862   0.000  0.00  0.00     0.000 A 
ATOM     19  C   UNL d   1       3.150   1.895   0.000  0.00  0.00     0.007 A 
BRANCH  15  20
ATOM     20  O   UNL d   1       2.756  -0.304   0.000  0.00  0.00    -0.328 OA
ATOM     21  C   UNL d   1       1.928  -0.353   0.000  0.00  0.00     0.181 C 
ENDBRANCH  15  20
ENDBRANCH  12  14
ENDBRANCH   1  11
TORSDOF 3
