REMARK  3 active torsions:
REMARK  status: ('A' for Active; 'I' for Inactive)
REMARK    1  A    between atoms: N_4  and  C_1 
REMARK       I    between atoms: C_8  and  N_4 
REMARK    2  A    between atoms: C_16  and  C_8 
REMARK       I    between atoms: C_9  and  N_10 
REMARK    3  A    between atoms: N_10  and  C_11 
ROOT
ATOM      1  C   UNL d   1      -2.843   2.226   0.000  0.00  0.00     0.197 A 
ATOM      2  N   UNL d   1      -3.294   1.567   0.000  0.00  0.00    -0.221 NA
ATOM      3  S   UNL d   1      -3.294   2.878   0.000  0.00  0.00    -0.047 SA
ATOM      4  C   UNL d   1      -4.059   2.653   0.000  0.00  0.00     0.051 A 
ATOM      5  C   UNL d   1      -4.059   1.828   0.000  0.00  0.00     0.090 A 
ATOM      6  C   UNL d   1      -4.772   3.056   0.000  0.00  0.00     0.027 A 
ATOM      7  C   UNL d   1      -5.484   2.653   0.000  0.00  0.00     0.085 A 
ATOM      8  C   UNL d   1      -4.772   1.401   0.000  0.00  0.00     0.021 A 
ATOM      9  C   UNL d   1      -5.484   1.828   0.000  0.00  0.00     0.021 A 
ENDROOT
BRANCH   1  10
ATOM     10  N   UNL d   1      -2.012   2.202   0.000  0.00  0.00    -0.183 NA
ATOM     11  C   UNL d   1      -1.585   1.490   0.000  0.00  0.00     0.281 C 
ATOM     12  O   UNL d   1      -2.012   0.777   0.000  0.00  0.00    -0.265 OA
BRANCH  11  13
ATOM     13  C   UNL d   1      -0.783   1.490   0.000  0.00  0.00     0.063 C 
ATOM     14  C   UNL d   1      -0.356   0.777   0.000  0.00  0.00     0.005 C 
ENDBRANCH  11  13
ENDBRANCH   1  10
BRANCH   7  15
ATOM     15  N   UNL d   1      -6.226   3.056   0.000  0.00  0.00    -0.208 NA
ATOM     16  C   UNL d   1      -6.226   3.875   0.000  0.00  0.00     0.279 C 
ATOM     17  O   UNL d   1      -5.513   4.303   0.000  0.00  0.00    -0.265 OA
ATOM     18  C   UNL d   1      -6.938   4.303   0.000  0.00  0.00     0.068 C 
ENDBRANCH   7  15
TORSDOF 3
