REMARK  2 active torsions:
REMARK  status: ('A' for Active; 'I' for Inactive)
REMARK    1  A    between atoms: N_6  and  C_1 
REMARK    2  A    between atoms: C_7  and  C_2 
REMARK       I    between atoms: C_8  and  N_6 
ROOT
ATOM      1  C   UNL d   1       0.362  -0.051   0.000  0.00  0.00     0.119 A 
ATOM      2  C   UNL d   1       0.000   0.665   0.000  0.00  0.00     0.084 A 
ATOM      3  S   UNL d   1      -0.226  -0.644   0.000  0.00  0.00    -0.068 SA
ATOM      4  C   UNL d   1      -0.801   0.546   0.000  0.00  0.00     0.013 A 
ATOM      5  C   UNL d   1      -0.942  -0.273   0.000  0.00  0.00     0.031 A 
ATOM      6  C   UNL d   1      -1.433   1.075   0.000  0.00  0.00     0.001 A 
ATOM      7  C   UNL d   1      -1.722  -0.541   0.000  0.00  0.00     0.006 A 
ATOM      8  C   UNL d   1      -2.213   0.789   0.000  0.00  0.00     0.000 A 
ATOM      9  C   UNL d   1      -2.337  -0.004   0.000  0.00  0.00     0.001 A 
ENDROOT
BRANCH   1  10
ATOM     10  N   UNL d   1       1.207  -0.171   0.000  0.00  0.00    -0.201 NA
ATOM     11  C   UNL d   1       1.535  -0.925   0.000  0.00  0.00     0.280 C 
ATOM     12  O   UNL d   1       1.040  -1.603   0.000  0.00  0.00    -0.265 OA
ATOM     13  C   UNL d   1       2.354  -1.028   0.000  0.00  0.00     0.068 C 
ENDBRANCH   1  10
BRANCH   2  14
ATOM     14  C   UNL d   1       0.409   1.403   0.000  0.00  0.00     0.299 C 
ATOM     15  O   UNL d   1      -0.047   2.098   0.000  0.00  0.00    -0.264 OA
ATOM     16  N   UNL d   1       1.228   1.445   0.000  0.00  0.00    -0.102 N 
ENDBRANCH   2  14
TORSDOF 2
