REMARK  5 active torsions:
REMARK  status: ('A' for Active; 'I' for Inactive)
REMARK    1  A    between atoms: C_3  and  C_1 
REMARK    2  A    between atoms: C_2  and  C_3 
REMARK    3  A    between atoms: C_4  and  C_2 
REMARK    4  A    between atoms: C_7  and  C_4 
REMARK    5  A    between atoms: O_14  and  C_8 
ROOT
ATOM      1  C   UNL d   1      -0.489  -0.599   0.000  0.00  0.00     0.042 C 
ENDROOT
BRANCH   1   2
ATOM      2  C   UNL d   1      -1.345  -0.571   0.000  0.00  0.00     0.199 C 
ATOM      3  O   UNL d   1      -1.773  -1.284   0.000  0.00  0.00    -0.286 OA
BRANCH   2   4
ATOM      4  C   UNL d   1      -1.723   0.171   0.000  0.00  0.00     0.078 A 
ATOM      5  C   UNL d   1      -2.543   0.210   0.000  0.00  0.00     0.199 A 
ATOM      6  O   UNL d   1      -2.992  -0.496   0.000  0.00  0.00    -0.286 OA
ATOM      7  C   UNL d   1      -2.921   0.927   0.000  0.00  0.00     0.042 A 
ATOM      8  C   UNL d   1      -2.457   1.637   0.000  0.00  0.00     0.003 A 
ATOM      9  C   UNL d   1      -1.666   1.594   0.000  0.00  0.00     0.000 A 
ATOM     10  C   UNL d   1      -1.284   0.867   0.000  0.00  0.00     0.006 A 
ENDBRANCH   2   4
ENDBRANCH   1   2
BRANCH   1  11
ATOM     11  C   UNL d   1      -0.053   0.125   0.000  0.00  0.00     0.003 C 
BRANCH  11  12
ATOM     12  C   UNL d   1       0.753   0.061   0.000  0.00  0.00     0.000 A 
ATOM     13  C   UNL d   1       1.127  -0.656   0.000  0.00  0.00     0.002 A 
ATOM     14  C   UNL d   1       1.951  -0.688   0.000  0.00  0.00     0.024 A 
ATOM     15  C   UNL d   1       2.411  -0.004   0.000  0.00  0.00     0.094 A 
ATOM     16  C   UNL d   1       2.026   0.728   0.000  0.00  0.00     0.024 A 
ATOM     17  C   UNL d   1       1.198   0.770   0.000  0.00  0.00     0.002 A 
BRANCH  15  18
ATOM     18  O   UNL d   1       3.242  -0.046   0.000  0.00  0.00    -0.328 OA
ATOM     19  C   UNL d   1       3.706   0.638   0.000  0.00  0.00     0.181 C 
ENDBRANCH  15  18
ENDBRANCH  11  12
ENDBRANCH   1  11
TORSDOF 5
