REMARK  4 active torsions:
REMARK  status: ('A' for Active; 'I' for Inactive)
REMARK    1  A    between atoms: N_2  and  S_1 
REMARK    2  A    between atoms: C_4  and  S_1 
REMARK    3  A    between atoms: C_3  and  C_8 
REMARK       I    between atoms: N_5  and  C_3 
REMARK    4  A    between atoms: C_17  and  N_5 
ROOT
ATOM      1  C   UNL d   1      -2.614   1.081   0.000  0.00  0.00     0.104 A 
ATOM      2  C   UNL d   1      -1.196   1.907   0.000  0.00  0.00     0.058 A 
ATOM      3  C   UNL d   1      -2.614   1.907   0.000  0.00  0.00     0.013 A 
ATOM      4  C   UNL d   1      -1.887   0.662   0.000  0.00  0.00     0.013 A 
ATOM      5  C   UNL d   1      -1.907   2.318   0.000  0.00  0.00     0.005 A 
ATOM      6  C   UNL d   1      -1.180   1.081   0.000  0.00  0.00     0.005 A 
ENDROOT
BRANCH   2   7
ATOM      7  C   UNL d   1      -0.465   2.318   0.000  0.00  0.00     0.279 C 
ATOM      8  N   UNL d   1       0.247   1.907   0.000  0.00  0.00    -0.208 NA
ATOM      9  O   UNL d   1      -0.489   3.153   0.000  0.00  0.00    -0.265 OA
BRANCH   8  10
ATOM     10  C   UNL d   1       0.974   2.318   0.000  0.00  0.00     0.085 A 
ATOM     11  C   UNL d   1       0.974   3.153   0.000  0.00  0.00     0.020 A 
ATOM     12  C   UNL d   1       1.681   3.564   0.000  0.00  0.00     0.013 A 
ATOM     13  C   UNL d   1       2.397   3.153   0.000  0.00  0.00     0.058 A 
ATOM     14  C   UNL d   1       2.397   2.318   0.000  0.00  0.00     0.013 A 
ATOM     15 CL   UNL d   1       3.124   3.585   0.000  0.00  0.00    -0.082 Cl
ATOM     16  C   UNL d   1       1.681   1.907   0.000  0.00  0.00     0.020 A 
ENDBRANCH   8  10
ENDBRANCH   2   7
BRANCH   1  17
ATOM     17  S   UNL d   1      -3.326   0.641   0.000  0.00  0.00     0.272 S 
ATOM     18  O   UNL d   1      -2.910  -0.086   0.000  0.00  0.00    -0.200 OA
ATOM     19  O   UNL d   1      -3.761   1.377   0.000  0.00  0.00    -0.200 OA
BRANCH  17  20
ATOM     20  N   UNL d   1      -4.057   0.230   0.000  0.00  0.00    -0.225 N 
ATOM     21  C   UNL d   1      -4.768   0.641   0.000  0.00  0.00     0.118 A 
ATOM     22  C   UNL d   1      -5.476   0.230   0.000  0.00  0.00     0.142 A 
ATOM     23  O   UNL d   1      -5.476  -0.621   0.000  0.00  0.00    -0.300 OA
ATOM     24  C   UNL d   1      -4.768  -1.036   0.000  0.00  0.00     0.142 A 
ATOM     25  C   UNL d   1      -4.057  -0.621   0.000  0.00  0.00     0.118 A 
ENDBRANCH  17  20
ENDBRANCH   1  17
TORSDOF 4
