REMARK  7 active torsions:
REMARK  status: ('A' for Active; 'I' for Inactive)
REMARK    1  A    between atoms: C_17  and  N_1 
REMARK       I    between atoms: C_4  and  N_7 
REMARK    2  A    between atoms: C_8  and  C_4 
REMARK    3  A    between atoms: N_7  and  C_26 
REMARK    4  A    between atoms: C_9  and  N_7 
REMARK    5  A    between atoms: C_27  and  C_17 
REMARK    6  A    between atoms: C_26  and  C_28 
REMARK    7  A    between atoms: C_28  and  C_27 
ROOT
ATOM      1  C   UNL d   1      -0.554   0.734   0.000  0.00  0.00     0.287 C 
ATOM      2  N   UNL d   1      -0.145   0.015   0.000  0.00  0.00    -0.272 N 
ATOM      3  O   UNL d   1      -0.145   1.433   0.000  0.00  0.00    -0.264 OA
ENDROOT
BRANCH   2   4
ATOM      4  C   UNL d   1       0.664   0.015   0.000  0.00  0.00     0.083 C 
BRANCH   4   5
ATOM      5  C   UNL d   1       1.079  -0.704   0.000  0.00  0.00     0.021 C 
BRANCH   5   6
ATOM      6  C   UNL d   1       1.893  -0.704   0.000  0.00  0.00     0.021 C 
BRANCH   6   7
ATOM      7  C   UNL d   1       2.297  -1.423   0.000  0.00  0.00     0.086 C 
BRANCH   7   8
ATOM      8  N   UNL d   1       3.136  -1.423   0.000  0.00  0.00    -0.240 N 
ATOM      9  C   UNL d   1       3.595  -0.779   0.000  0.00  0.00     0.267 A 
ATOM     10  C   UNL d   1       4.379  -1.019   0.000  0.00  0.00     0.061 A 
ATOM     11  O   UNL d   1       3.331   0.040   0.000  0.00  0.00    -0.267 OA
ATOM     12  C   UNL d   1       5.078  -0.604   0.000  0.00  0.00     0.005 A 
ATOM     13  C   UNL d   1       4.379  -1.857   0.000  0.00  0.00     0.061 A 
ATOM     14  C   UNL d   1       5.797  -1.019   0.000  0.00  0.00     0.000 A 
ATOM     15  C   UNL d   1       5.797  -1.857   0.000  0.00  0.00     0.000 A 
ATOM     16  C   UNL d   1       5.078  -2.262   0.000  0.00  0.00     0.005 A 
ATOM     17  C   UNL d   1       3.595  -2.097   0.000  0.00  0.00     0.267 A 
ATOM     18  O   UNL d   1       3.331  -2.911   0.000  0.00  0.00    -0.267 OA
ENDBRANCH   7   8
ENDBRANCH   6   7
ENDBRANCH   5   6
ENDBRANCH   4   5
ENDBRANCH   2   4
BRANCH   2  19
ATOM     19  C   UNL d   1      -0.554  -0.704   0.000  0.00  0.00     0.067 A 
ATOM     20  C   UNL d   1      -0.145  -1.423   0.000  0.00  0.00     0.018 A 
ATOM     21  C   UNL d   1      -0.554  -2.142   0.000  0.00  0.00     0.013 A 
ATOM     22  C   UNL d   1      -1.373  -2.142   0.000  0.00  0.00     0.058 A 
ATOM     23  C   UNL d   1      -1.778  -1.423   0.000  0.00  0.00     0.013 A 
ATOM     24 CL   UNL d   1      -1.778  -2.861   0.000  0.00  0.00    -0.082 Cl
ATOM     25  C   UNL d   1      -1.373  -0.704   0.000  0.00  0.00     0.018 A 
ENDBRANCH   2  19
BRANCH   1  26
ATOM     26  C   UNL d   1      -1.373   0.734   0.000  0.00  0.00     0.156 A 
ATOM     27  O   UNL d   1      -1.942   0.135   0.000  0.00  0.00    -0.300 OA
ATOM     28  C   UNL d   1      -2.691   0.474   0.000  0.00  0.00     0.123 A 
ATOM     29  C   UNL d   1      -2.592   1.258   0.000  0.00  0.00     0.029 A 
ATOM     30  C   UNL d   1      -1.778   1.453   0.000  0.00  0.00     0.032 A 
ENDBRANCH   1  26
TORSDOF 7
