REMARK  3 active torsions:
REMARK  status: ('A' for Active; 'I' for Inactive)
REMARK    1  A    between atoms: C_5  and  C_4 
REMARK    2  A    between atoms: C_6  and  C_5 
REMARK       I    between atoms: N_9  and  C_6 
REMARK    3  A    between atoms: C_12  and  N_9 
ROOT
ATOM      1  N   UNL d   1      -1.083   2.968   0.000  0.00  0.00    -0.205 NA
ATOM      2  C   UNL d   1      -0.374   3.391   0.000  0.00  0.00     0.297 A 
ATOM      3  N   UNL d   1      -1.083   4.644   0.000  0.00  0.00    -0.239 NA
ATOM      4  C   UNL d   1      -0.374   4.215   0.000  0.00  0.00     0.144 A 
ATOM      5  C   UNL d   1      -1.797   3.391   0.000  0.00  0.00     0.102 A 
ATOM      6  C   UNL d   1      -1.797   4.215   0.000  0.00  0.00     0.099 A 
ATOM      7  O   UNL d   1       0.335   2.968   0.000  0.00  0.00    -0.264 OA
ATOM      8  C   UNL d   1      -2.517   2.968   0.000  0.00  0.00     0.021 A 
ATOM      9  C   UNL d   1      -2.517   4.644   0.000  0.00  0.00     0.021 A 
ATOM     10  C   UNL d   1      -3.226   3.391   0.000  0.00  0.00     0.002 A 
ATOM     11  C   UNL d   1      -3.226   4.215   0.000  0.00  0.00     0.002 A 
ENDROOT
BRANCH   4  12
ATOM     12  C   UNL d   1       0.335   4.644   0.000  0.00  0.00     0.086 C 
BRANCH  12  13
ATOM     13  C   UNL d   1       1.055   4.237   0.000  0.00  0.00     0.281 C 
ATOM     14  N   UNL d   1       1.737   4.660   0.000  0.00  0.00    -0.208 NA
ATOM     15  O   UNL d   1       1.077   3.424   0.000  0.00  0.00    -0.265 OA
BRANCH  14  16
ATOM     16  C   UNL d   1       2.479   4.265   0.000  0.00  0.00     0.085 A 
ATOM     17  C   UNL d   1       3.166   4.682   0.000  0.00  0.00     0.019 A 
ATOM     18  C   UNL d   1       3.897   4.287   0.000  0.00  0.00     0.002 A 
ATOM     19  C   UNL d   1       3.897   3.473   0.000  0.00  0.00     0.000 A 
ATOM     20  C   UNL d   1       3.215   3.050   0.000  0.00  0.00     0.002 A 
ATOM     21  C   UNL d   1       2.506   3.446   0.000  0.00  0.00     0.019 A 
ENDBRANCH  14  16
ENDBRANCH  12  13
ENDBRANCH   4  12
TORSDOF 3
