REMARK  7 active torsions:
REMARK  status: ('A' for Active; 'I' for Inactive)
REMARK    1  A    between atoms: C_3  and  C_1 
REMARK    2  A    between atoms: N_5  and  C_2 
REMARK    3  A    between atoms: N_4  and  C_3 
REMARK    4  A    between atoms: C_10  and  C_3 
REMARK    5  A    between atoms: C_13  and  N_4 
REMARK       I    between atoms: C_6  and  N_5 
REMARK    6  A    between atoms: C_8  and  C_13 
REMARK    7  A    between atoms: O_16  and  C_8 
ROOT
ATOM      1  C   UNL d   1      -1.761  -0.447   0.000  0.00  0.00     0.083 C 
ENDROOT
BRANCH   1   2
ATOM      2  C   UNL d   1      -1.761   0.378   0.000  0.00  0.00     0.036 A 
ATOM      3  C   UNL d   1      -1.065   0.798   0.000  0.00  0.00     0.086 A 
ATOM      4  C   UNL d   1      -1.065   1.623   0.000  0.00  0.00     0.020 A 
ATOM      5  C   UNL d   1      -1.761   2.028   0.000  0.00  0.00     0.008 A 
ATOM      6  C   UNL d   1      -2.494   1.604   0.000  0.00  0.00     0.035 A 
ATOM      7  C   UNL d   1      -2.475   0.779   0.000  0.00  0.00     0.010 A 
ATOM      8 BR   UNL d   1      -3.227   2.013   0.000  0.00  0.00    -0.049 Br
BRANCH   3   9
ATOM      9  N   UNL d   1      -0.332   0.378   0.000  0.00  0.00    -0.208 NA
ATOM     10  C   UNL d   1       0.382   0.798   0.000  0.00  0.00     0.279 C 
ATOM     11  O   UNL d   1       1.081   0.397   0.000  0.00  0.00    -0.265 OA
ATOM     12  C   UNL d   1       0.393   1.615   0.000  0.00  0.00     0.068 C 
ENDBRANCH   3   9
ENDBRANCH   1   2
BRANCH   1  13
ATOM     13  N   UNL d   1      -1.065  -0.871   0.000  0.00  0.00    -0.238 NA
BRANCH  13  14
ATOM     14  C   UNL d   1      -0.351  -0.447   0.000  0.00  0.00     0.167 C 
BRANCH  14  15
ATOM     15  C   UNL d   1       0.367  -0.886   0.000  0.00  0.00     0.315 C 
ATOM     16  O   UNL d   1       1.100  -0.462   0.000  0.00  0.00    -0.257 OA
BRANCH  15  17
ATOM     17  O   UNL d   1       0.367  -1.711   0.000  0.00  0.00    -0.295 OA
ATOM     18  C   UNL d   1       1.058  -2.112   0.000  0.00  0.00     0.185 C 
ENDBRANCH  15  17
ENDBRANCH  14  15
ENDBRANCH  13  14
ENDBRANCH   1  13
BRANCH   1  19
ATOM     19  C   UNL d   1      -2.475  -0.852   0.000  0.00  0.00     0.018 A 
ATOM     20  C   UNL d   1      -2.494  -1.677   0.000  0.00  0.00     0.002 A 
ATOM     21  C   UNL d   1      -3.193  -2.097   0.000  0.00  0.00     0.000 A 
ATOM     22  C   UNL d   1      -3.926  -1.654   0.000  0.00  0.00     0.000 A 
ATOM     23  C   UNL d   1      -3.914  -0.829   0.000  0.00  0.00     0.000 A 
ATOM     24  C   UNL d   1      -3.193  -0.428   0.000  0.00  0.00     0.002 A 
ENDBRANCH   1  19
TORSDOF 7
