REMARK  3 active torsions:
REMARK  status: ('A' for Active; 'I' for Inactive)
REMARK    1  A    between atoms: N_3  and  C_1 
REMARK       I    between atoms: C_5  and  N_3 
REMARK    2  A    between atoms: C_8  and  C_5 
REMARK       I    between atoms: C_11  and  N_12 
REMARK    3  A    between atoms: N_12  and  C_13 
ROOT
ATOM      1  C   UNL d   1       0.000   2.157   0.000  0.00  0.00     0.197 A 
ATOM      2  N   UNL d   1      -0.479   1.490   0.000  0.00  0.00    -0.221 NA
ATOM      3  S   UNL d   1      -0.479   2.816   0.000  0.00  0.00    -0.047 SA
ATOM      4  C   UNL d   1      -1.253   2.559   0.000  0.00  0.00     0.051 A 
ATOM      5  C   UNL d   1      -1.253   1.732   0.000  0.00  0.00     0.090 A 
ATOM      6  C   UNL d   1      -1.973   2.985   0.000  0.00  0.00     0.027 A 
ATOM      7  C   UNL d   1      -2.686   2.575   0.000  0.00  0.00     0.085 A 
ATOM      8  C   UNL d   1      -1.973   1.329   0.000  0.00  0.00     0.021 A 
ATOM      9  C   UNL d   1      -2.686   1.732   0.000  0.00  0.00     0.021 A 
ENDROOT
BRANCH   1  10
ATOM     10  N   UNL d   1       0.828   2.172   0.000  0.00  0.00    -0.182 NA
ATOM     11  C   UNL d   1       1.230   1.456   0.000  0.00  0.00     0.287 C 
ATOM     12  O   UNL d   1       0.785   0.736   0.000  0.00  0.00    -0.265 OA
BRANCH  11  13
ATOM     13  C   UNL d   1       2.038   1.437   0.000  0.00  0.00     0.087 A 
ATOM     14  S   UNL d   1       2.609   2.042   0.000  0.00  0.00    -0.082 SA
ATOM     15  C   UNL d   1       3.345   1.713   0.000  0.00  0.00     0.036 A 
ATOM     16  C   UNL d   1       3.268   0.904   0.000  0.00  0.00     0.008 A 
ATOM     17  C   UNL d   1       2.441   0.720   0.000  0.00  0.00     0.012 A 
ENDBRANCH  11  13
ENDBRANCH   1  10
BRANCH   7  18
ATOM     18  N   UNL d   1      -3.402   3.019   0.000  0.00  0.00    -0.208 NA
ATOM     19  C   UNL d   1      -4.138   2.617   0.000  0.00  0.00     0.279 C 
ATOM     20  O   UNL d   1      -4.847   3.054   0.000  0.00  0.00    -0.265 OA
ATOM     21  C   UNL d   1      -4.157   1.789   0.000  0.00  0.00     0.068 C 
ENDBRANCH   7  18
TORSDOF 3
