REMARK  6 active torsions:
REMARK  status: ('A' for Active; 'I' for Inactive)
REMARK    1  A    between atoms: C_5  and  C_4 
REMARK    2  A    between atoms: C_6  and  C_5 
REMARK       I    between atoms: N_9  and  C_6 
REMARK    3  A    between atoms: C_10  and  N_9 
REMARK    4  A    between atoms: O_14  and  C_13 
REMARK    5  A    between atoms: C_19  and  O_14 
REMARK    6  A    between atoms: C_20  and  C_19 
ROOT
ATOM      1  C   UNL d   1      -0.836   1.601   0.000  0.00  0.00     0.281 C 
ATOM      2  N   UNL d   1      -0.148   2.024   0.000  0.00  0.00    -0.206 NA
ATOM      3  O   UNL d   1      -0.808   0.786   0.000  0.00  0.00    -0.265 OA
ENDROOT
BRANCH   1   4
ATOM      4  C   UNL d   1      -1.546   1.996   0.000  0.00  0.00     0.086 C 
BRANCH   4   5
ATOM      5  C   UNL d   1      -2.260   1.579   0.000  0.00  0.00     0.144 A 
ATOM      6  C   UNL d   1      -2.260   0.753   0.000  0.00  0.00     0.297 A 
ATOM      7  N   UNL d   1      -2.970   0.330   0.000  0.00  0.00    -0.205 NA
ATOM      8  O   UNL d   1      -1.546   0.330   0.000  0.00  0.00    -0.264 OA
ATOM      9  C   UNL d   1      -3.691   0.753   0.000  0.00  0.00     0.102 A 
ATOM     10  C   UNL d   1      -3.691   1.579   0.000  0.00  0.00     0.099 A 
ATOM     11  C   UNL d   1      -4.400   0.330   0.000  0.00  0.00     0.021 A 
ATOM     12  N   UNL d   1      -2.970   1.996   0.000  0.00  0.00    -0.239 NA
ATOM     13  C   UNL d   1      -4.400   1.996   0.000  0.00  0.00     0.021 A 
ATOM     14  C   UNL d   1      -5.109   1.579   0.000  0.00  0.00     0.002 A 
ATOM     15  C   UNL d   1      -5.109   0.753   0.000  0.00  0.00     0.002 A 
ENDBRANCH   4   5
ENDBRANCH   1   4
BRANCH   2  16
ATOM     16  C   UNL d   1       0.726   1.677   0.000  0.00  0.00     0.107 A 
ATOM     17  C   UNL d   1       1.435   2.112   0.000  0.00  0.00     0.118 A 
ATOM     18  C   UNL d   1       2.134   1.677   0.000  0.00  0.00     0.026 A 
ATOM     19  C   UNL d   1       2.134   0.820   0.000  0.00  0.00     0.002 A 
ATOM     20  C   UNL d   1       1.435   0.440   0.000  0.00  0.00     0.002 A 
ATOM     21  C   UNL d   1       0.726   0.853   0.000  0.00  0.00     0.021 A 
BRANCH  17  22
ATOM     22  O   UNL d   1       1.458   2.948   0.000  0.00  0.00    -0.304 OA
BRANCH  22  23
ATOM     23  C   UNL d   1       0.748   3.382   0.000  0.00  0.00     0.123 C 
BRANCH  23  24
ATOM     24  C   UNL d   1       0.748   4.235   0.000  0.00  0.00     0.027 C 
ATOM     25  C   UNL d   1       0.038   4.686   0.000  0.00  0.00     0.002 C 
ENDBRANCH  23  24
ENDBRANCH  22  23
ENDBRANCH  17  22
ENDBRANCH   2  16
TORSDOF 6
