REMARK  2 active torsions:
REMARK  status: ('A' for Active; 'I' for Inactive)
REMARK    1  A    between atoms: C_7  and  C_1 
REMARK    2  A    between atoms: C_11  and  C_7 
ROOT
ATOM      1  C   UNL d   1       0.045  -1.368   0.000  0.00  0.00     0.116 A 
ATOM      2  N   UNL d   1       0.955  -0.279   0.000  0.00  0.00    -0.152 NA
ATOM      3  N   UNL d   1       1.451  -1.637   0.000  0.00  0.00    -0.152 NA
ATOM      4  C   UNL d   1       0.196  -0.579   0.000  0.00  0.00     0.288 A 
ATOM      5  C   UNL d   1       0.675  -1.902   0.000  0.00  0.00     0.288 A 
ATOM      6  C   UNL d   1       1.602  -0.827   0.000  0.00  0.00     0.374 A 
ATOM      7  O   UNL d   1       0.541  -2.729   0.000  0.00  0.00    -0.265 OA
ATOM      8  O   UNL d   1      -0.451  -0.045   0.000  0.00  0.00    -0.265 OA
ATOM      9  O   UNL d   1       2.398  -0.579   0.000  0.00  0.00    -0.242 OA
ENDROOT
BRANCH   1  10
ATOM     10  C   UNL d   1      -0.744  -1.654   0.000  0.00  0.00     0.010 C 
BRANCH  10  11
ATOM     11  C   UNL d   1      -1.361  -1.106   0.000  0.00  0.00     0.000 A 
ATOM     12  C   UNL d   1      -2.136  -1.368   0.000  0.00  0.00     0.002 A 
ATOM     13  C   UNL d   1      -2.746  -0.827   0.000  0.00  0.00     0.030 A 
ATOM     14  C   UNL d   1      -2.581  -0.014   0.000  0.00  0.00     0.140 A 
ATOM     15  C   UNL d   1      -1.806   0.248   0.000  0.00  0.00     0.030 A 
ATOM     16  F   UNL d   1      -3.194   0.565   0.000  0.00  0.00    -0.204 F 
ATOM     17  C   UNL d   1      -1.196  -0.293   0.000  0.00  0.00     0.002 A 
ENDBRANCH  10  11
ENDBRANCH   1  10
TORSDOF 2
