REMARK  5 active torsions:
REMARK  status: ('A' for Active; 'I' for Inactive)
REMARK    1  A    between atoms: C_3  and  S_1 
REMARK    2  A    between atoms: N_5  and  S_1 
REMARK    3  A    between atoms: C_2  and  C_8 
REMARK       I    between atoms: N_4  and  C_2 
REMARK    4  A    between atoms: C_9  and  N_4 
REMARK    5  A    between atoms: O_17  and  C_16 
ROOT
ATOM      1  C   UNL d   1      -3.803   2.558   0.000  0.00  0.00     0.104 A 
ATOM      2  C   UNL d   1      -2.125   2.564   0.000  0.00  0.00     0.058 A 
ATOM      3  C   UNL d   1      -3.388   1.880   0.000  0.00  0.00     0.013 A 
ATOM      4  C   UNL d   1      -3.388   3.254   0.000  0.00  0.00     0.013 A 
ATOM      5  C   UNL d   1      -2.564   3.291   0.000  0.00  0.00     0.005 A 
ATOM      6  C   UNL d   1      -2.558   1.880   0.000  0.00  0.00     0.005 A 
ENDROOT
BRANCH   2   7
ATOM      7  C   UNL d   1      -1.276   2.564   0.000  0.00  0.00     0.279 C 
ATOM      8  N   UNL d   1      -0.855   1.905   0.000  0.00  0.00    -0.208 NA
ATOM      9  O   UNL d   1      -0.897   3.327   0.000  0.00  0.00    -0.265 OA
BRANCH   8  10
ATOM     10  C   UNL d   1      -0.030   1.935   0.000  0.00  0.00     0.087 A 
ATOM     11  C   UNL d   1       0.391   1.245   0.000  0.00  0.00     0.043 A 
ATOM     12  C   UNL d   1       1.215   1.276   0.000  0.00  0.00     0.096 A 
ATOM     13  C   UNL d   1       1.618   1.996   0.000  0.00  0.00     0.024 A 
ATOM     14  C   UNL d   1       1.172   2.704   0.000  0.00  0.00     0.004 A 
ATOM     15  C   UNL d   1       0.348   2.668   0.000  0.00  0.00     0.019 A 
BRANCH  12  16
ATOM     16  O   UNL d   1       1.545   0.733   0.000  0.00  0.00    -0.328 OA
ATOM     17  C   UNL d   1       1.288  -0.043   0.000  0.00  0.00     0.181 C 
ENDBRANCH  12  16
ENDBRANCH   8  10
ENDBRANCH   2   7
BRANCH   1  18
ATOM     18  S   UNL d   1      -4.689   2.631   0.000  0.00  0.00     0.271 S 
ATOM     19  O   UNL d   1      -4.689   3.474   0.000  0.00  0.00    -0.200 OA
ATOM     20  O   UNL d   1      -4.683   1.825   0.000  0.00  0.00    -0.200 OA
BRANCH  18  21
ATOM     21  N   UNL d   1      -5.568   2.631   0.000  0.00  0.00    -0.226 N 
ATOM     22  C   UNL d   1      -5.983   1.905   0.000  0.00  0.00     0.111 C 
ATOM     23  C   UNL d   1      -5.983   3.345   0.000  0.00  0.00     0.111 C 
ENDBRANCH  18  21
ENDBRANCH   1  18
TORSDOF 5
