REMARK  7 active torsions:
REMARK  status: ('A' for Active; 'I' for Inactive)
REMARK    1  A    between atoms: S_10  and  C_5 
REMARK    2  A    between atoms: C_11  and  N_8 
REMARK    3  A    between atoms: C_15  and  S_10 
REMARK    4  A    between atoms: C_19  and  C_11 
REMARK    5  A    between atoms: C_14  and  C_15 
REMARK    6  A    between atoms: C_17  and  C_14 
REMARK    7  A    between atoms: C_20  and  C_19 
ROOT
ATOM      1  C   UNL d   1      -0.712   2.259   0.000  0.00  0.00     0.174 A 
ATOM      2  C   UNL d   1      -0.712   3.084   0.000  0.00  0.00     0.159 A 
ATOM      3  N   UNL d   1       0.065   2.000   0.000  0.00  0.00    -0.203 NA
ATOM      4  N   UNL d   1      -1.440   1.839   0.000  0.00  0.00    -0.239 N 
ATOM      5  C   UNL d   1       0.523   2.696   0.000  0.00  0.00     0.181 A 
ATOM      6  C   UNL d   1      -2.135   2.227   0.000  0.00  0.00     0.358 A 
ATOM      7  N   UNL d   1      -2.135   3.084   0.000  0.00  0.00    -0.152 NA
ATOM      8  N   UNL d   1       0.065   3.316   0.000  0.00  0.00    -0.279 N 
ATOM      9  C   UNL d   1      -1.440   3.505   0.000  0.00  0.00     0.302 A 
ATOM     10  O   UNL d   1      -2.842   1.790   0.000  0.00  0.00    -0.244 OA
ATOM     11  O   UNL d   1      -1.467   4.330   0.000  0.00  0.00    -0.263 OA
ATOM     12  C   UNL d   1      -1.467   1.014   0.000  0.00  0.00     0.105 C 
ENDROOT
BRANCH   5  13
ATOM     13  S   UNL d   1       1.359   2.718   0.000  0.00  0.00    -0.046 SA
BRANCH  13  14
ATOM     14  C   UNL d   1       1.796   2.022   0.000  0.00  0.00     0.080 C 
BRANCH  14  15
ATOM     15  C   UNL d   1       2.626   2.049   0.000  0.00  0.00     0.202 C 
ATOM     16  O   UNL d   1       3.041   1.353   0.000  0.00  0.00    -0.286 OA
BRANCH  15  17
ATOM     17  C   UNL d   1       3.014   2.777   0.000  0.00  0.00     0.040 A 
ATOM     18  C   UNL d   1       2.594   3.473   0.000  0.00  0.00     0.003 A 
ATOM     19  C   UNL d   1       2.982   4.200   0.000  0.00  0.00     0.000 A 
ATOM     20  C   UNL d   1       3.818   4.233   0.000  0.00  0.00     0.000 A 
ATOM     21  C   UNL d   1       4.228   3.521   0.000  0.00  0.00     0.000 A 
ATOM     22  C   UNL d   1       3.839   2.799   0.000  0.00  0.00     0.003 A 
ENDBRANCH  15  17
ENDBRANCH  14  15
ENDBRANCH  13  14
ENDBRANCH   5  13
BRANCH   8  23
ATOM     23  C   UNL d   1       0.345   4.120   0.000  0.00  0.00     0.082 C 
BRANCH  23  24
ATOM     24  C   UNL d   1       1.149   4.298   0.000  0.00  0.00     0.019 C 
BRANCH  24  25
ATOM     25  C   UNL d   1       1.407   5.047   0.000  0.00  0.00     0.002 C 
ATOM     26  C   UNL d   1       0.863   5.667   0.000  0.00  0.00     0.000 C 
ATOM     27  C   UNL d   1       2.184   5.214   0.000  0.00  0.00     0.000 C 
ENDBRANCH  24  25
ENDBRANCH  23  24
ENDBRANCH   8  23
TORSDOF 7
