REMARK  3 active torsions:
REMARK  status: ('A' for Active; 'I' for Inactive)
REMARK    1  A    between atoms: C_4  and  C_1 
REMARK    2  A    between atoms: C_6  and  C_4 
REMARK    3  A    between atoms: N_5  and  C_7 
ROOT
ATOM      1  C   UNL d   1      -0.596   1.071   0.000  0.00  0.00     0.231 C 
ATOM      2  O   UNL d   1      -1.013   1.772   0.000  0.00  0.00    -0.283 OA
ENDROOT
BRANCH   1   3
ATOM      3  C   UNL d   1       0.237   1.071   0.000  0.00  0.00     0.188 A 
ATOM      4  N   UNL d   1       0.717   1.735   0.000  0.00  0.00    -0.224 NA
ATOM      5  C   UNL d   1       1.519   1.498   0.000  0.00  0.00     0.099 A 
ATOM      6  C   UNL d   1       2.220   1.899   0.000  0.00  0.00     0.021 A 
ATOM      7  C   UNL d   1       1.519   0.659   0.000  0.00  0.00     0.083 A 
ATOM      8  C   UNL d   1       2.917   1.498   0.000  0.00  0.00     0.002 A 
ATOM      9  C   UNL d   1       2.959   0.675   0.000  0.00  0.00     0.002 A 
ATOM     10  C   UNL d   1       2.236   0.269   0.000  0.00  0.00     0.019 A 
ATOM     11  N   UNL d   1       0.717   0.422   0.000  0.00  0.00    -0.285 N 
ATOM     12  C   UNL d   1       0.380  -0.338   0.000  0.00  0.00     0.101 C 
ENDBRANCH   1   3
BRANCH   1  13
ATOM     13  C   UNL d   1      -1.013   0.332   0.000  0.00  0.00     0.064 A 
ATOM     14  C   UNL d   1      -1.830   0.317   0.000  0.00  0.00     0.130 A 
ATOM     15  C   UNL d   1      -2.231  -0.401   0.000  0.00  0.00     0.024 A 
ATOM     16  C   UNL d   1      -1.814  -1.113   0.000  0.00  0.00     0.002 A 
ATOM     17  C   UNL d   1      -0.976  -1.081   0.000  0.00  0.00     0.000 A 
ATOM     18  C   UNL d   1      -0.570  -0.364   0.000  0.00  0.00     0.005 A 
BRANCH  14  19
ATOM     19  N   UNL d   1      -2.257   1.028   0.000  0.00  0.00    -0.114 N 
ATOM     20  O   UNL d   1      -1.798   1.704   0.000  0.00  0.00    -0.532 OA
ATOM     21  O   UNL d   1      -3.101   1.039   0.000  0.00  0.00    -0.532 OA
ENDBRANCH  14  19
ENDBRANCH   1  13
TORSDOF 3
