REMARK  5 active torsions:
REMARK  status: ('A' for Active; 'I' for Inactive)
REMARK    1  A    between atoms: N_6  and  S_1 
REMARK    2  A    between atoms: C_11  and  S_1 
REMARK    3  A    between atoms: C_2  and  N_5 
REMARK    4  A    between atoms: C_9  and  C_4 
REMARK       I    between atoms: N_5  and  C_7 
REMARK    5  A    between atoms: C_7  and  C_15 
ROOT
ATOM      1  C   UNL d   1      -3.176   0.941   0.000  0.00  0.00     0.104 A 
ATOM      2  C   UNL d   1      -1.459   0.979   0.000  0.00  0.00     0.058 A 
ATOM      3  C   UNL d   1      -2.703   0.227   0.000  0.00  0.00     0.013 A 
ATOM      4  C   UNL d   1      -2.747   1.642   0.000  0.00  0.00     0.013 A 
ATOM      5  C   UNL d   1      -1.913   1.667   0.000  0.00  0.00     0.005 A 
ATOM      6  C   UNL d   1      -1.888   0.221   0.000  0.00  0.00     0.005 A 
ENDROOT
BRANCH   2   7
ATOM      7  C   UNL d   1      -0.657   0.985   0.000  0.00  0.00     0.281 C 
ATOM      8  N   UNL d   1      -0.221   0.278   0.000  0.00  0.00    -0.183 NA
ATOM      9  O   UNL d   1      -0.246   1.737   0.000  0.00  0.00    -0.265 OA
BRANCH   8  10
ATOM     10  C   UNL d   1       0.650   0.278   0.000  0.00  0.00     0.197 A 
ATOM     11  N   UNL d   1       1.143   0.979   0.000  0.00  0.00    -0.220 NA
ATOM     12  C   UNL d   1       1.951   0.733   0.000  0.00  0.00     0.096 A 
ATOM     13  C   UNL d   1       1.939  -0.133   0.000  0.00  0.00     0.058 A 
ATOM     14  S   UNL d   1       1.143  -0.385   0.000  0.00  0.00    -0.046 SA
BRANCH  12  15
ATOM     15  C   UNL d   1       2.633   1.187   0.000  0.00  0.00     0.048 A 
ATOM     16  S   UNL d   1       3.410   0.941   0.000  0.00  0.00    -0.085 SA
ATOM     17  C   UNL d   1       3.909   1.591   0.000  0.00  0.00     0.035 A 
ATOM     18  C   UNL d   1       3.417   2.248   0.000  0.00  0.00     0.007 A 
ATOM     19  C   UNL d   1       2.633   2.002   0.000  0.00  0.00     0.009 A 
ENDBRANCH  12  15
ENDBRANCH   8  10
ENDBRANCH   2   7
BRANCH   1  20
ATOM     20  S   UNL d   1      -4.010   0.903   0.000  0.00  0.00     0.271 S 
ATOM     21  O   UNL d   1      -4.048   1.743   0.000  0.00  0.00    -0.200 OA
ATOM     22  O   UNL d   1      -3.991   0.051   0.000  0.00  0.00    -0.200 OA
BRANCH  20  23
ATOM     23  N   UNL d   1      -4.869   0.853   0.000  0.00  0.00    -0.229 N 
ATOM     24  C   UNL d   1      -5.412   0.227   0.000  0.00  0.00     0.092 A 
ATOM     25  C   UNL d   1      -6.170   0.530   0.000  0.00  0.00     0.021 A 
ATOM     26  C   UNL d   1      -6.138   1.358   0.000  0.00  0.00     0.021 A 
ATOM     27  C   UNL d   1      -5.324   1.547   0.000  0.00  0.00     0.092 A 
ENDBRANCH  20  23
ENDBRANCH   1  20
TORSDOF 5
