REMARK  7 active torsions:
REMARK  status: ('A' for Active; 'I' for Inactive)
REMARK    1  A    between atoms: N_2  and  C_1 
REMARK    2  A    between atoms: N_4  and  C_3 
REMARK       I    between atoms: C_6  and  N_4 
REMARK    3  A    between atoms: C_7  and  C_6 
REMARK    4  A    between atoms: C_10  and  C_7 
REMARK    5  A    between atoms: C_14  and  C_10 
REMARK    6  A    between atoms: O_16  and  C_13 
REMARK    7  A    between atoms: C_17  and  O_16 
ROOT
ATOM      1  C   UNL d   1      -2.027   0.447   0.000  0.00  0.00     0.146 A 
ATOM      2  C   UNL d   1      -1.454  -0.102   0.000  0.00  0.00     0.107 A 
ATOM      3  C   UNL d   1      -2.819   0.224   0.000  0.00  0.00     0.050 A 
ATOM      4  C   UNL d   1      -1.659  -0.913   0.000  0.00  0.00     0.023 A 
ATOM      5  C   UNL d   1      -3.043  -0.559   0.000  0.00  0.00     0.102 A 
ATOM      6  C   UNL d   1      -2.442  -1.137   0.000  0.00  0.00     0.026 A 
ENDROOT
BRANCH   2   7
ATOM      7  N   UNL d   1      -0.629   0.093   0.000  0.00  0.00    -0.206 NA
ATOM      8  C   UNL d   1      -0.126  -0.508   0.000  0.00  0.00     0.279 C 
ATOM      9  O   UNL d   1      -0.238  -1.118   0.000  0.00  0.00    -0.265 OA
BRANCH   8  10
ATOM     10  C   UNL d   1       0.690  -0.312   0.000  0.00  0.00     0.062 C 
BRANCH  10  11
ATOM     11  C   UNL d   1       1.272  -0.899   0.000  0.00  0.00     0.005 C 
BRANCH  11  12
ATOM     12  C   UNL d   1       2.074  -0.676   0.000  0.00  0.00     0.000 A 
ATOM     13  C   UNL d   1       2.279   0.070   0.000  0.00  0.00     0.000 A 
ATOM     14  C   UNL d   1       3.094   0.247   0.000  0.00  0.00     0.000 A 
ATOM     15  C   UNL d   1       3.639  -0.354   0.000  0.00  0.00     0.000 A 
ATOM     16  C   UNL d   1       3.429  -1.104   0.000  0.00  0.00     0.000 A 
ATOM     17  C   UNL d   1       2.628  -1.291   0.000  0.00  0.00     0.000 A 
ENDBRANCH  11  12
ENDBRANCH  10  11
ENDBRANCH   8  10
ENDBRANCH   2   7
BRANCH   1  18
ATOM     18  N   UNL d   1      -1.789   1.253   0.000  0.00  0.00    -0.112 N 
ATOM     19  O   UNL d   1      -1.002   1.468   0.000  0.00  0.00    -0.532 OA
ATOM     20  O   UNL d   1      -2.386   1.868   0.000  0.00  0.00    -0.532 OA
ENDBRANCH   1  18
BRANCH   5  21
ATOM     21  O   UNL d   1      -3.853  -0.769   0.000  0.00  0.00    -0.305 OA
BRANCH  21  22
ATOM     22  C   UNL d   1      -4.431  -0.224   0.000  0.00  0.00     0.123 C 
ATOM     23  C   UNL d   1      -5.251  -0.466   0.000  0.00  0.00     0.029 C 
ENDBRANCH  21  22
ENDBRANCH   5  21
TORSDOF 7
