REMARK  1 active torsions:
REMARK  status: ('A' for Active; 'I' for Inactive)
REMARK    1  A    between atoms: C_7  and  C_2 
ROOT
ATOM      1  C   UNL d   1      -1.139  -0.595   0.000  0.00  0.00     0.257 A 
ATOM      2  C   UNL d   1      -0.727   0.117   0.000  0.00  0.00     0.142 A 
ATOM      3  C   UNL d   1      -1.968  -0.595   0.000  0.00  0.00     0.238 A 
ATOM      4  O   UNL d   1      -1.139   0.819   0.000  0.00  0.00    -0.304 OA
ATOM      5  C   UNL d   1      -2.380   0.137   0.000  0.00  0.00     0.065 A 
ATOM      6  C   UNL d   1      -1.968   0.849   0.000  0.00  0.00     0.103 A 
ATOM      7  O   UNL d   1      -2.380  -1.327   0.000  0.00  0.00    -0.283 OA
ATOM      8  O   UNL d   1      -0.727  -1.327   0.000  0.00  0.00    -0.281 OA
ATOM      9  C   UNL d   1      -3.214   0.137   0.000  0.00  0.00     0.005 A 
ATOM     10  C   UNL d   1      -2.380   1.551   0.000  0.00  0.00     0.025 A 
ATOM     11  C   UNL d   1      -3.626   0.849   0.000  0.00  0.00     0.000 A 
ATOM     12  C   UNL d   1      -3.214   1.551   0.000  0.00  0.00     0.002 A 
ENDROOT
BRANCH   2  13
ATOM     13  C   UNL d   1       0.107   0.137   0.000  0.00  0.00     0.026 A 
ATOM     14  C   UNL d   1       0.524  -0.595   0.000  0.00  0.00     0.002 A 
ATOM     15  C   UNL d   1       1.347  -0.570   0.000  0.00  0.00     0.000 A 
ATOM     16  C   UNL d   1       1.770   0.137   0.000  0.00  0.00     0.000 A 
ATOM     17  C   UNL d   1       1.347   0.849   0.000  0.00  0.00     0.000 A 
ATOM     18  C   UNL d   1       0.524   0.849   0.000  0.00  0.00     0.002 A 
ENDBRANCH   2  13
TORSDOF 1
