REMARK  8 active torsions:
REMARK  status: ('A' for Active; 'I' for Inactive)
REMARK    1  A    between atoms: C_9  and  S_1 
REMARK    2  A    between atoms: N_10  and  S_1 
REMARK    3  A    between atoms: C_17  and  C_3 
REMARK    4  A    between atoms: C_4  and  N_14 
REMARK    5  A    between atoms: C_8  and  C_16 
REMARK       I    between atoms: N_11  and  C_8 
REMARK    6  A    between atoms: C_27  and  N_10 
REMARK    7  A    between atoms: C_28  and  N_10 
REMARK    8  A    between atoms: N_14  and  N_11 
ROOT
ATOM      1  N   UNL d   1       2.150   0.983   0.000  0.00  0.00     0.049 NA
ENDROOT
BRANCH   1   2
ATOM      2  C   UNL d   1       1.301   0.782   0.000  0.00  0.00     0.768 A 
ATOM      3  N   UNL d   1       1.069  -0.006   0.000  0.00  0.00    -0.058 NA
ATOM      4  C   UNL d   1       0.275  -0.189   0.000  0.00  0.00     0.101 A 
ATOM      5  C   UNL d   1      -0.311   0.397   0.000  0.00  0.00     0.037 A 
ATOM      6  C   UNL d   1      -0.049   1.191   0.000  0.00  0.00     0.101 A 
ATOM      7  C   UNL d   1      -1.099   0.220   0.000  0.00  0.00     0.010 A 
ATOM      8  N   UNL d   1       0.739   1.393   0.000  0.00  0.00    -0.058 NA
ATOM      9  C   UNL d   1      -0.605   1.808   0.000  0.00  0.00     0.020 A 
ATOM     10  C   UNL d   1      -1.393   1.631   0.000  0.00  0.00     0.008 A 
ATOM     11  C   UNL d   1      -1.661   0.806   0.000  0.00  0.00     0.035 A 
ATOM     12 BR   UNL d   1      -2.486   0.605   0.000  0.00  0.00    -0.049 Br
BRANCH   4  13
ATOM     13  C   UNL d   1       0.006  -0.977   0.000  0.00  0.00     0.018 A 
ATOM     14  C   UNL d   1      -0.782  -1.154   0.000  0.00  0.00     0.002 A 
ATOM     15  C   UNL d   1      -1.044  -1.948   0.000  0.00  0.00     0.000 A 
ATOM     16  C   UNL d   1      -0.458  -2.565   0.000  0.00  0.00     0.000 A 
ATOM     17  C   UNL d   1       0.336  -2.351   0.000  0.00  0.00     0.000 A 
ATOM     18  C   UNL d   1       0.568  -1.594   0.000  0.00  0.00     0.002 A 
ENDBRANCH   4  13
ENDBRANCH   1   2
BRANCH   1  19
ATOM     19  N   UNL d   1       2.388   1.777   0.000  0.00  0.00    -0.090 NA
ATOM     20  C   UNL d   1       3.176   1.979   0.000  0.00  0.00     0.297 C 
ATOM     21  O   UNL d   1       3.414   2.742   0.000  0.00  0.00    -0.264 OA
BRANCH  20  22
ATOM     22  C   UNL d   1       3.738   1.393   0.000  0.00  0.00     0.059 A 
ATOM     23  C   UNL d   1       3.487   0.605   0.000  0.00  0.00     0.006 A 
ATOM     24  C   UNL d   1       4.055   0.018   0.000  0.00  0.00     0.013 A 
ATOM     25  C   UNL d   1       4.843   0.220   0.000  0.00  0.00     0.104 A 
ATOM     26  C   UNL d   1       5.112   1.020   0.000  0.00  0.00     0.013 A 
ATOM     27  C   UNL d   1       4.526   1.606   0.000  0.00  0.00     0.006 A 
BRANCH  25  28
ATOM     28  S   UNL d   1       5.429  -0.391   0.000  0.00  0.00     0.271 S 
ATOM     29  O   UNL d   1       4.843  -0.977   0.000  0.00  0.00    -0.200 OA
ATOM     30  O   UNL d   1       6.052   0.165   0.000  0.00  0.00    -0.200 OA
BRANCH  28  31
ATOM     31  N   UNL d   1       6.016  -1.008   0.000  0.00  0.00    -0.229 N 
BRANCH  31  32
ATOM     32  C   UNL d   1       6.816  -0.831   0.000  0.00  0.00     0.092 C 
ATOM     33  C   UNL d   1       7.372  -1.417   0.000  0.00  0.00     0.021 C 
ENDBRANCH  31  32
BRANCH  31  34
ATOM     34  C   UNL d   1       5.790  -1.802   0.000  0.00  0.00     0.092 C 
ATOM     35  C   UNL d   1       4.990  -2.003   0.000  0.00  0.00     0.021 C 
ENDBRANCH  31  34
ENDBRANCH  28  31
ENDBRANCH  25  28
ENDBRANCH  20  22
ENDBRANCH   1  19
TORSDOF 8
