REMARK  6 active torsions:
REMARK  status: ('A' for Active; 'I' for Inactive)
REMARK    1  A    between atoms: N_6  and  C_1 
REMARK    2  A    between atoms: C_7  and  C_2 
REMARK       I    between atoms: C_8  and  N_6 
REMARK    3  A    between atoms: O_14  and  C_7 
REMARK    4  A    between atoms: C_10  and  C_8 
REMARK    5  A    between atoms: N_9  and  C_10 
REMARK    6  A    between atoms: C_21  and  O_14 
ROOT
ATOM      1  C   UNL d   1       0.350   2.000   0.000  0.00  0.00     0.119 A 
ATOM      2  C   UNL d   1      -0.125   2.674   0.000  0.00  0.00     0.088 A 
ATOM      3  S   UNL d   1      -0.125   1.342   0.000  0.00  0.00    -0.068 SA
ATOM      4  C   UNL d   1      -0.903   2.423   0.000  0.00  0.00     0.013 A 
ATOM      5  C   UNL d   1      -0.903   1.593   0.000  0.00  0.00     0.031 A 
ATOM      6  C   UNL d   1      -1.629   2.820   0.000  0.00  0.00     0.001 A 
ATOM      7  C   UNL d   1      -1.629   1.170   0.000  0.00  0.00     0.006 A 
ATOM      8  C   UNL d   1      -2.334   2.423   0.000  0.00  0.00     0.000 A 
ATOM      9  C   UNL d   1      -2.334   1.593   0.000  0.00  0.00     0.001 A 
ENDROOT
BRANCH   1  10
ATOM     10  N   UNL d   1       1.175   2.000   0.000  0.00  0.00    -0.200 NA
ATOM     11  C   UNL d   1       1.603   1.295   0.000  0.00  0.00     0.297 C 
ATOM     12  O   UNL d   1       1.175   0.590   0.000  0.00  0.00    -0.264 OA
BRANCH  11  13
ATOM     13  C   UNL d   1       2.428   1.316   0.000  0.00  0.00     0.144 C 
BRANCH  13  14
ATOM     14  N   UNL d   1       2.825   0.590   0.000  0.00  0.00    -0.295 N 
ATOM     15  C   UNL d   1       3.655   0.590   0.000  0.00  0.00     0.107 A 
ATOM     16  C   UNL d   1       4.057  -0.131   0.000  0.00  0.00     0.142 A 
ATOM     17  O   UNL d   1       3.655  -0.836   0.000  0.00  0.00    -0.300 OA
ATOM     18  C   UNL d   1       2.825  -0.836   0.000  0.00  0.00     0.142 A 
ATOM     19  C   UNL d   1       2.428  -0.131   0.000  0.00  0.00     0.107 A 
ENDBRANCH  13  14
ENDBRANCH  11  13
ENDBRANCH   1  10
BRANCH   2  20
ATOM     20  C   UNL d   1       0.125   3.472   0.000  0.00  0.00     0.302 C 
ATOM     21  O   UNL d   1      -0.454   4.073   0.000  0.00  0.00    -0.259 OA
BRANCH  20  22
ATOM     22  O   UNL d   1       0.924   3.650   0.000  0.00  0.00    -0.271 OA
BRANCH  22  23
ATOM     23  C   UNL d   1       1.175   4.428   0.000  0.00  0.00     0.126 C 
ATOM     24  C   UNL d   1       1.979   4.600   0.000  0.00  0.00     0.029 C 
ENDBRANCH  22  23
ENDBRANCH  20  22
ENDBRANCH   2  20
TORSDOF 6
