REMARK  2 active torsions:
REMARK  status: ('A' for Active; 'I' for Inactive)
REMARK    1  A    between atoms: N_10  and  C_1 
REMARK       I    between atoms: C_12  and  N_10 
REMARK    2  A    between atoms: C_17  and  C_12 
ROOT
ATOM      1  C   UNL d   1      -2.007   2.521   0.000  0.00  0.00     0.197 A 
ATOM      2  C   UNL d   1      -3.261   2.952   0.000  0.00  0.00     0.057 A 
ATOM      3  C   UNL d   1      -3.946   3.370   0.000  0.00  0.00     0.056 A 
ATOM      4  N   UNL d   1      -2.466   1.863   0.000  0.00  0.00    -0.221 NA
ATOM      5  S   UNL d   1      -2.466   3.220   0.000  0.00  0.00    -0.046 SA
ATOM      6  N   UNL d   1      -5.261   3.535   0.000  0.00  0.00    -0.238 NA
ATOM      7  S   UNL d   1      -4.110   4.165   0.000  0.00  0.00    -0.066 SA
ATOM      8  C   UNL d   1      -3.261   2.130   0.000  0.00  0.00     0.090 A 
ATOM      9  C   UNL d   1      -4.678   2.980   0.000  0.00  0.00     0.088 A 
ATOM     10  C   UNL d   1      -4.966   4.268   0.000  0.00  0.00     0.111 A 
ATOM     11  C   UNL d   1      -3.980   1.726   0.000  0.00  0.00     0.021 A 
ATOM     12  C   UNL d   1      -4.706   2.158   0.000  0.00  0.00     0.021 A 
ATOM     13  C   UNL d   1      -5.398   4.987   0.000  0.00  0.00     0.028 C 
ENDROOT
BRANCH   1  14
ATOM     14  N   UNL d   1      -1.151   2.521   0.000  0.00  0.00    -0.183 NA
ATOM     15  C   UNL d   1      -0.760   3.240   0.000  0.00  0.00     0.281 C 
ATOM     16  O   UNL d   1      -1.254   3.939   0.000  0.00  0.00    -0.265 OA
BRANCH  15  17
ATOM     17  C   UNL d   1       0.028   3.240   0.000  0.00  0.00     0.063 C 
ATOM     18  C   UNL d   1       0.493   2.404   0.000  0.00  0.00     0.005 C 
ENDBRANCH  15  17
ENDBRANCH   1  14
TORSDOF 2
