REMARK  4 active torsions:
REMARK  status: ('A' for Active; 'I' for Inactive)
REMARK    1  A    between atoms: C_2  and  C_1 
REMARK    2  A    between atoms: C_4  and  C_2 
REMARK       I    between atoms: C_3  and  N_6 
REMARK    3  A    between atoms: C_7  and  C_3 
REMARK    4  A    between atoms: N_6  and  C_5 
ROOT
ATOM      1  C   UNL d   1      -2.451   2.503   0.000  0.00  0.00     0.058 A 
ATOM      2  C   UNL d   1      -3.190   2.915   0.000  0.00  0.00     0.088 A 
ATOM      3  C   UNL d   1      -1.764   2.915   0.000  0.00  0.00     0.016 A 
ATOM      4  C   UNL d   1      -3.162   3.740   0.000  0.00  0.00     0.020 A 
ATOM      5  C   UNL d   1      -1.764   3.740   0.000  0.00  0.00     0.058 A 
ATOM      6  C   UNL d   1      -2.451   4.152   0.000  0.00  0.00     0.013 A 
ATOM      7 CL   UNL d   1      -1.025   4.152   0.000  0.00  0.00    -0.082 Cl
ENDROOT
BRANCH   1   8
ATOM      8  C   UNL d   1      -2.423   1.678   0.000  0.00  0.00     0.198 C 
ATOM      9  O   UNL d   1      -3.139   1.266   0.000  0.00  0.00    -0.286 OA
BRANCH   8  10
ATOM     10  C   UNL d   1      -1.712   1.266   0.000  0.00  0.00     0.050 A 
ATOM     11  C   UNL d   1      -1.712   0.441   0.000  0.00  0.00     0.061 A 
ATOM     12 CL   UNL d   1      -2.423  -0.006   0.000  0.00  0.00    -0.082 Cl
ATOM     13  C   UNL d   1      -0.991   0.029   0.000  0.00  0.00     0.011 A 
ATOM     14  C   UNL d   1      -0.275   0.441   0.000  0.00  0.00     0.001 A 
ATOM     15  C   UNL d   1      -0.303   1.266   0.000  0.00  0.00     0.000 A 
ATOM     16  C   UNL d   1      -1.025   1.678   0.000  0.00  0.00     0.004 A 
ENDBRANCH   8  10
ENDBRANCH   1   8
BRANCH   2  17
ATOM     17  N   UNL d   1      -3.935   2.503   0.000  0.00  0.00    -0.206 NA
ATOM     18  C   UNL d   1      -4.622   2.915   0.000  0.00  0.00     0.302 C 
ATOM     19  O   UNL d   1      -4.622   3.740   0.000  0.00  0.00    -0.263 OA
BRANCH  18  20
ATOM     20  C   UNL d   1      -5.338   2.503   0.000  0.00  0.00     0.158 A 
ATOM     21  O   UNL d   1      -6.111   2.749   0.000  0.00  0.00    -0.300 OA
ATOM     22  C   UNL d   1      -6.575   2.091   0.000  0.00  0.00     0.123 A 
ATOM     23  C   UNL d   1      -6.146   1.438   0.000  0.00  0.00     0.029 A 
ATOM     24  C   UNL d   1      -5.338   1.678   0.000  0.00  0.00     0.032 A 
ENDBRANCH  18  20
ENDBRANCH   2  17
TORSDOF 4
