REMARK  3 active torsions:
REMARK  status: ('A' for Active; 'I' for Inactive)
REMARK    1  A    between atoms: N_5  and  C_2 
REMARK    2  A    between atoms: C_14  and  C_4 
REMARK       I    between atoms: C_7  and  N_5 
REMARK    3  A    between atoms: C_8  and  C_7 
ROOT
ATOM      1  S   UNL d   1      -2.487  -0.016   0.000  0.00  0.00    -0.026 SA
ATOM      2  C   UNL d   1      -1.840   0.499   0.000  0.00  0.00     0.219 A 
ATOM      3  N   UNL d   1      -2.990   1.194   0.000  0.00  0.00    -0.139 NA
ATOM      4  C   UNL d   1      -3.182   0.415   0.000  0.00  0.00     0.135 A 
ATOM      5  N   UNL d   1      -2.156   1.258   0.000  0.00  0.00    -0.121 NA
ENDROOT
BRANCH   2   6
ATOM      6  N   UNL d   1      -1.018   0.379   0.000  0.00  0.00    -0.181 NA
ATOM      7  C   UNL d   1      -0.527   1.026   0.000  0.00  0.00     0.287 C 
ATOM      8  O   UNL d   1      -0.814   1.804   0.000  0.00  0.00    -0.265 OA
BRANCH   7   9
ATOM      9  C   UNL d   1       0.268   0.906   0.000  0.00  0.00     0.087 A 
ATOM     10  S   UNL d   1       0.623   0.176   0.000  0.00  0.00    -0.082 SA
ATOM     11  C   UNL d   1       1.453   0.299   0.000  0.00  0.00     0.036 A 
ATOM     12  C   UNL d   1       1.581   1.086   0.000  0.00  0.00     0.008 A 
ATOM     13  C   UNL d   1       0.878   1.481   0.000  0.00  0.00     0.012 A 
ENDBRANCH   7   9
ENDBRANCH   2   6
BRANCH   4  14
ATOM     14  C   UNL d   1      -3.960   0.080   0.000  0.00  0.00     0.026 C 
ATOM     15  C   UNL d   1      -4.092  -0.735   0.000  0.00  0.00     0.002 C 
ATOM     16  C   UNL d   1      -4.619   0.595   0.000  0.00  0.00     0.002 C 
ENDBRANCH   4  14
TORSDOF 3
