REMARK  6 active torsions:
REMARK  status: ('A' for Active; 'I' for Inactive)
REMARK       I    between atoms: C_4  and  N_1 
REMARK    1  A    between atoms: C_8  and  C_3 
REMARK    2  A    between atoms: C_16  and  C_4 
REMARK    3  A    between atoms: C_13  and  C_5 
REMARK    4  A    between atoms: N_6  and  C_9 
REMARK    5  A    between atoms: O_24  and  C_11 
REMARK    6  A    between atoms: O_25  and  C_17 
ROOT
ATOM      1  N   UNL d   1      -1.095   0.639   0.000  0.00  0.00    -0.195 N 
ATOM      2  N   UNL d   1      -1.918   0.474   0.000  0.00  0.00    -0.163 NA
ATOM      3  C   UNL d   1      -0.705  -0.095   0.000  0.00  0.00     0.088 A 
ATOM      4  C   UNL d   1      -0.728   1.415   0.000  0.00  0.00     0.280 C 
ATOM      5  C   UNL d   1      -2.007  -0.355   0.000  0.00  0.00     0.103 A 
ATOM      6  C   UNL d   1      -1.273  -0.693   0.000  0.00  0.00     0.040 A 
ATOM      7  O   UNL d   1      -1.184   2.090   0.000  0.00  0.00    -0.265 OA
ENDROOT
BRANCH   3   8
ATOM      8  C   UNL d   1       0.124  -0.148   0.000  0.00  0.00     0.020 A 
ATOM      9  C   UNL d   1       0.290  -0.947   0.000  0.00  0.00     0.028 A 
ATOM     10  C   UNL d   1       1.066  -1.208   0.000  0.00  0.00     0.116 A 
ATOM     11  C   UNL d   1       1.687  -0.663   0.000  0.00  0.00     0.116 A 
ATOM     12  C   UNL d   1       1.492   0.160   0.000  0.00  0.00     0.026 A 
ATOM     13  C   UNL d   1       0.717   0.420   0.000  0.00  0.00     0.004 A 
BRANCH  10  14
ATOM     14  O   UNL d   1       1.232  -2.031   0.000  0.00  0.00    -0.326 OA
ATOM     15  C   UNL d   1       2.031  -2.315   0.000  0.00  0.00     0.181 C 
ENDBRANCH  10  14
BRANCH  11  16
ATOM     16  O   UNL d   1       2.487  -0.924   0.000  0.00  0.00    -0.326 OA
ATOM     17  C   UNL d   1       2.653  -1.711   0.000  0.00  0.00     0.181 C 
ENDBRANCH  11  16
ENDBRANCH   3   8
BRANCH   4  18
ATOM     18  C   UNL d   1       0.124   1.468   0.000  0.00  0.00     0.058 A 
ATOM     19  C   UNL d   1       0.497   2.203   0.000  0.00  0.00     0.005 A 
ATOM     20  C   UNL d   1       1.320   2.268   0.000  0.00  0.00     0.000 A 
ATOM     21  C   UNL d   1       1.776   1.581   0.000  0.00  0.00     0.000 A 
ATOM     22  C   UNL d   1       1.403   0.847   0.000  0.00  0.00     0.000 A 
ATOM     23  C   UNL d   1       0.574   0.781   0.000  0.00  0.00     0.005 A 
ENDBRANCH   4  18
BRANCH   5  24
ATOM     24  C   UNL d   1      -2.694  -0.805   0.000  0.00  0.00     0.019 A 
ATOM     25  C   UNL d   1      -2.605  -1.634   0.000  0.00  0.00     0.003 A 
ATOM     26  C   UNL d   1      -3.262  -2.114   0.000  0.00  0.00     0.024 A 
ATOM     27  C   UNL d   1      -4.026  -1.776   0.000  0.00  0.00     0.127 A 
ATOM     28  C   UNL d   1      -4.115  -0.947   0.000  0.00  0.00     0.024 A 
ATOM     29  C   UNL d   1      -3.428  -0.468   0.000  0.00  0.00     0.003 A 
BRANCH  27  30
ATOM     30  N   UNL d   1      -4.707  -2.280   0.000  0.00  0.00    -0.114 N 
ATOM     31  O   UNL d   1      -4.618  -3.108   0.000  0.00  0.00    -0.532 OA
ATOM     32  O   UNL d   1      -5.471  -1.942   0.000  0.00  0.00    -0.532 OA
ENDBRANCH  27  30
ENDBRANCH   5  24
TORSDOF 6
