REMARK  1 active torsions:
REMARK  status: ('A' for Active; 'I' for Inactive)
REMARK    1  A    between atoms: C_9  and  C_3 
ROOT
ATOM      1  C   UNL d   1      -0.623   0.399   0.000  0.00  0.00     0.035 A 
ATOM      2  N   UNL d   1      -0.280  -1.055   0.000  0.00  0.00    -0.239 NA
ATOM      3  C   UNL d   1      -0.802  -0.392   0.000  0.00  0.00     0.083 A 
ATOM      4  N   UNL d   1       0.895   0.399   0.000  0.00  0.00    -0.207 NA
ATOM      5  C   UNL d   1       0.138   0.757   0.000  0.00  0.00     0.086 A 
ATOM      6  C   UNL d   1       1.074  -0.406   0.000  0.00  0.00     0.298 A 
ATOM      7  C   UNL d   1      -1.283   0.850   0.000  0.00  0.00     0.003 A 
ATOM      8  C   UNL d   1       0.537  -1.055   0.000  0.00  0.00     0.161 A 
ATOM      9  C   UNL d   1       0.205   1.577   0.000  0.00  0.00     0.019 A 
ATOM     10  O   UNL d   1       1.894  -0.597   0.000  0.00  0.00    -0.263 OA
ATOM     11  C   UNL d   1      -1.219   1.685   0.000  0.00  0.00     0.000 A 
ATOM     12  C   UNL d   1      -0.466   2.043   0.000  0.00  0.00     0.002 A 
ATOM     13  C   UNL d   1      -1.942   2.144   0.000  0.00  0.00     0.000 C 
ENDROOT
BRANCH   3  14
ATOM     14  C   UNL d   1      -1.596  -0.571   0.000  0.00  0.00     0.018 A 
ATOM     15  C   UNL d   1      -1.853  -1.346   0.000  0.00  0.00     0.002 A 
ATOM     16  C   UNL d   1      -2.681  -1.525   0.000  0.00  0.00     0.000 A 
ATOM     17  C   UNL d   1      -3.218  -0.899   0.000  0.00  0.00     0.000 A 
ATOM     18  C   UNL d   1      -2.953  -0.123   0.000  0.00  0.00     0.000 A 
ATOM     19  C   UNL d   1      -2.133   0.041   0.000  0.00  0.00     0.002 A 
ENDBRANCH   3  14
TORSDOF 1
