REMARK  4 active torsions:
REMARK  status: ('A' for Active; 'I' for Inactive)
REMARK    1  A    between atoms: S_9  and  C_1 
REMARK    2  A    between atoms: N_3  and  C_7 
REMARK    3  A    between atoms: C_13  and  S_9 
REMARK    4  A    between atoms: C_14  and  C_13 
ROOT
ATOM      1  S   UNL d   1      -1.258   1.813   0.000  0.00  0.00    -0.042 SA
ENDROOT
BRANCH   1   2
ATOM      2  C   UNL d   1      -2.077   1.793   0.000  0.00  0.00     0.215 A 
ATOM      3  N   UNL d   1      -2.557   2.457   0.000  0.00  0.00    -0.214 NA
ATOM      4  C   UNL d   1      -3.321   2.197   0.000  0.00  0.00     0.107 A 
ATOM      5  C   UNL d   1      -4.040   2.602   0.000  0.00  0.00     0.021 A 
ATOM      6  C   UNL d   1      -3.321   1.378   0.000  0.00  0.00     0.120 A 
ATOM      7  C   UNL d   1      -4.759   2.197   0.000  0.00  0.00     0.002 A 
ATOM      8  C   UNL d   1      -4.759   1.378   0.000  0.00  0.00     0.002 A 
ATOM      9  C   UNL d   1      -4.040   0.974   0.000  0.00  0.00     0.026 A 
ATOM     10  O   UNL d   1      -2.557   1.119   0.000  0.00  0.00    -0.283 OA
ENDBRANCH   1   2
BRANCH   1  11
ATOM     11  C   UNL d   1      -0.854   1.094   0.000  0.00  0.00     0.039 C 
BRANCH  11  12
ATOM     12  C   UNL d   1      -0.040   1.094   0.000  0.00  0.00     0.007 A 
ATOM     13  C   UNL d   1       0.365   0.399   0.000  0.00  0.00     0.002 A 
ATOM     14  C   UNL d   1       1.203   0.399   0.000  0.00  0.00     0.024 A 
ATOM     15  C   UNL d   1       1.618   1.094   0.000  0.00  0.00     0.127 A 
ATOM     16  C   UNL d   1       1.203   1.837   0.000  0.00  0.00     0.024 A 
ATOM     17  C   UNL d   1       0.365   1.813   0.000  0.00  0.00     0.002 A 
BRANCH  15  18
ATOM     18  N   UNL d   1       2.432   1.044   0.000  0.00  0.00    -0.114 N 
ATOM     19  O   UNL d   1       2.836   1.738   0.000  0.00  0.00    -0.532 OA
ATOM     20  O   UNL d   1       2.821   0.300   0.000  0.00  0.00    -0.532 OA
ENDBRANCH  15  18
ENDBRANCH  11  12
ENDBRANCH   1  11
TORSDOF 4
