REMARK  5 active torsions:
REMARK  status: ('A' for Active; 'I' for Inactive)
REMARK    1  A    between atoms: N_7  and  S_1 
REMARK    2  A    between atoms: C_10  and  S_1 
REMARK    3  A    between atoms: C_2  and  N_4 
REMARK       I    between atoms: N_4  and  C_8 
REMARK    4  A    between atoms: C_8  and  C_13 
REMARK    5  A    between atoms: O_23  and  C_14 
ROOT
ATOM      1  C   UNL d   1       1.964   1.520   0.000  0.00  0.00     0.104 A 
ATOM      2  C   UNL d   1       0.517   0.758   0.000  0.00  0.00     0.058 A 
ATOM      3  C   UNL d   1       1.943   0.719   0.000  0.00  0.00     0.013 A 
ATOM      4  C   UNL d   1       1.258   1.977   0.000  0.00  0.00     0.013 A 
ATOM      5  C   UNL d   1       1.219   0.323   0.000  0.00  0.00     0.005 A 
ATOM      6  C   UNL d   1       0.534   1.585   0.000  0.00  0.00     0.005 A 
ENDROOT
BRANCH   2   7
ATOM      7  C   UNL d   1      -0.207   0.362   0.000  0.00  0.00     0.281 C 
ATOM      8  N   UNL d   1      -0.913   0.797   0.000  0.00  0.00    -0.183 NA
ATOM      9  O   UNL d   1      -0.228  -0.465   0.000  0.00  0.00    -0.265 OA
BRANCH   8  10
ATOM     10  C   UNL d   1      -1.637   0.383   0.000  0.00  0.00     0.197 A 
ATOM     11  N   UNL d   1      -1.719  -0.418   0.000  0.00  0.00    -0.219 NA
ATOM     12  C   UNL d   1      -2.528  -0.607   0.000  0.00  0.00     0.112 A 
ATOM     13  C   UNL d   1      -2.916  -1.309   0.000  0.00  0.00     0.112 A 
ATOM     14  C   UNL d   1      -2.916   0.099   0.000  0.00  0.00     0.052 A 
ATOM     15  C   UNL d   1      -3.743  -1.309   0.000  0.00  0.00     0.026 A 
ATOM     16  C   UNL d   1      -4.135  -0.607   0.000  0.00  0.00     0.003 A 
ATOM     17  C   UNL d   1      -3.743   0.099   0.000  0.00  0.00     0.008 A 
ATOM     18  S   UNL d   1      -2.378   0.719   0.000  0.00  0.00    -0.047 SA
BRANCH  13  19
ATOM     19  O   UNL d   1      -2.502  -2.016   0.000  0.00  0.00    -0.327 OA
ATOM     20  C   UNL d   1      -2.894  -2.718   0.000  0.00  0.00     0.181 C 
ENDBRANCH  13  19
ENDBRANCH   8  10
ENDBRANCH   2   7
BRANCH   1  21
ATOM     21  S   UNL d   1       2.705   1.895   0.000  0.00  0.00     0.272 S 
ATOM     22  O   UNL d   1       3.080   1.150   0.000  0.00  0.00    -0.200 OA
ATOM     23  O   UNL d   1       2.330   2.636   0.000  0.00  0.00    -0.200 OA
BRANCH  21  24
ATOM     24  N   UNL d   1       3.450   2.270   0.000  0.00  0.00    -0.225 N 
ATOM     25  C   UNL d   1       4.152   1.809   0.000  0.00  0.00     0.118 A 
ATOM     26  C   UNL d   1       4.876   2.184   0.000  0.00  0.00     0.142 A 
ATOM     27  O   UNL d   1       4.915   3.011   0.000  0.00  0.00    -0.300 OA
ATOM     28  C   UNL d   1       4.238   3.472   0.000  0.00  0.00     0.142 A 
ATOM     29  C   UNL d   1       3.515   3.097   0.000  0.00  0.00     0.118 A 
ENDBRANCH  21  24
ENDBRANCH   1  21
TORSDOF 5
