REMARK  4 active torsions:
REMARK  status: ('A' for Active; 'I' for Inactive)
REMARK    1  A    between atoms: C_6  and  C_1 
REMARK    2  A    between atoms: C_7  and  C_2 
REMARK    3  A    between atoms: O_10  and  C_6 
REMARK    4  A    between atoms: C_13  and  O_10 
ROOT
ATOM      1  C   UNL d   1      -3.390   2.905   0.000  0.00  0.00     0.113 A 
ATOM      2  C   UNL d   1      -3.474   2.063   0.000  0.00  0.00     0.095 A 
ATOM      3  N   UNL d   1      -2.700   1.729   0.000  0.00  0.00    -0.219 NA
ATOM      4  S   UNL d   1      -2.586   3.087   0.000  0.00  0.00    -0.040 SA
ATOM      5  C   UNL d   1      -2.184   2.359   0.000  0.00  0.00     0.215 A 
ATOM      6  N   UNL d   1      -1.357   2.313   0.000  0.00  0.00    -0.120 N 
ENDROOT
BRANCH   2   7
ATOM      7  C   UNL d   1      -4.224   1.729   0.000  0.00  0.00     0.018 A 
ATOM      8  C   UNL d   1      -4.300   0.902   0.000  0.00  0.00     0.002 A 
ATOM      9  C   UNL d   1      -5.066   0.569   0.000  0.00  0.00     0.000 A 
ATOM     10  C   UNL d   1      -5.726   1.039   0.000  0.00  0.00     0.000 A 
ATOM     11  C   UNL d   1      -5.643   1.881   0.000  0.00  0.00     0.000 A 
ATOM     12  C   UNL d   1      -4.884   2.207   0.000  0.00  0.00     0.002 A 
ENDBRANCH   2   7
BRANCH   1  13
ATOM     13  C   UNL d   1      -3.974   3.451   0.000  0.00  0.00     0.308 C 
ATOM     14  O   UNL d   1      -3.792   4.247   0.000  0.00  0.00    -0.258 OA
BRANCH  13  15
ATOM     15  O   UNL d   1      -4.733   3.223   0.000  0.00  0.00    -0.271 OA
BRANCH  15  16
ATOM     16  C   UNL d   1      -4.952   2.427   0.000  0.00  0.00     0.126 C 
ATOM     17  C   UNL d   1      -5.726   2.177   0.000  0.00  0.00     0.029 C 
ENDBRANCH  15  16
ENDBRANCH  13  15
ENDBRANCH   1  13
TORSDOF 4
