REMARK  3 active torsions:
REMARK  status: ('A' for Active; 'I' for Inactive)
REMARK    1  A    between atoms: N_6  and  C_1 
REMARK    2  A    between atoms: C_7  and  C_2 
REMARK    3  A    between atoms: C_9  and  C_5 
ROOT
ATOM      1  C   UNL d   1      -0.776   0.624   0.000  0.00  0.00     0.189 A 
ATOM      2  C   UNL d   1      -0.511   1.433   0.000  0.00  0.00     0.144 A 
ATOM      3  O   UNL d   1      -0.071   0.151   0.000  0.00  0.00    -0.271 OA
ATOM      4  N   UNL d   1       0.303   1.443   0.000  0.00  0.00    -0.217 NA
ATOM      5  C   UNL d   1       0.572   0.695   0.000  0.00  0.00     0.184 A 
ENDROOT
BRANCH   5   6
ATOM      6  C   UNL d   1       1.367   0.525   0.000  0.00  0.00     0.041 A 
ATOM      7  C   UNL d   1       1.930   1.131   0.000  0.00  0.00     0.004 A 
ATOM      8  C   UNL d   1       2.729   0.932   0.000  0.00  0.00     0.011 A 
ATOM      9  C   UNL d   1       2.971   0.166   0.000  0.00  0.00     0.058 A 
ATOM     10  C   UNL d   1       2.403  -0.440   0.000  0.00  0.00     0.011 A 
ATOM     11 CL   UNL d   1       3.746  -0.175   0.000  0.00  0.00    -0.082 Cl
ATOM     12  C   UNL d   1       1.594  -0.246   0.000  0.00  0.00     0.004 A 
ENDBRANCH   5   6
BRANCH   1  13
ATOM     13  N   UNL d   1      -1.533   0.624   0.000  0.00  0.00    -0.284 N 
ATOM     14  C   UNL d   1      -2.266   1.045   0.000  0.00  0.00     0.082 A 
ATOM     15  C   UNL d   1      -2.975   0.624   0.000  0.00  0.00     0.019 A 
ATOM     16  C   UNL d   1      -2.975  -0.213   0.000  0.00  0.00     0.003 A 
ATOM     17  C   UNL d   1      -2.266  -0.629   0.000  0.00  0.00     0.019 A 
ATOM     18  C   UNL d   1      -1.533  -0.213   0.000  0.00  0.00     0.082 A 
ENDBRANCH   1  13
BRANCH   2  19
ATOM     19  C   UNL d   1      -1.060   1.887   0.000  0.00  0.00     0.145 C 
ATOM     20  N   UNL d   1      -2.124   1.887   0.000  0.00  0.00    -0.145 N 
ENDBRANCH   2  19
TORSDOF 3
