REMARK  7 active torsions:
REMARK  status: ('A' for Active; 'I' for Inactive)
REMARK    1  A    between atoms: P_4  and  C_1 
REMARK    2  A    between atoms: N_7  and  C_3 
REMARK    3  A    between atoms: C_9  and  P_4 
REMARK    4  A    between atoms: C_10  and  P_4 
REMARK    5  A    between atoms: C_11  and  C_5 
REMARK    6  A    between atoms: C_12  and  N_7 
REMARK    7  A    between atoms: C_13  and  C_12 
ROOT
ATOM      1  C   UNL d   1      -0.521   1.462   0.000  0.00  0.00     0.161 A 
ATOM      2  N   UNL d   1       0.309   1.471   0.000  0.00  0.00    -0.215 NA
ATOM      3  C   UNL d   1      -0.791   0.637   0.000  0.00  0.00     0.205 A 
ATOM      4  C   UNL d   1       0.584   0.709   0.000  0.00  0.00     0.184 A 
ATOM      5  O   UNL d   1      -0.072   0.154   0.000  0.00  0.00    -0.270 OA
ENDROOT
BRANCH   1   6
ATOM      6  P   UNL d   1      -1.081   1.925   0.000  0.00  0.00     0.195 P 
ATOM      7  O   UNL d   1      -0.304   2.108   0.000  0.00  0.00    -0.305 OA
BRANCH   6   8
ATOM      8  C   UNL d   1      -1.081   2.759   0.000  0.00  0.00     0.038 A 
ATOM      9  C   UNL d   1      -1.790   3.164   0.000  0.00  0.00     0.004 A 
ATOM     10  C   UNL d   1      -1.790   3.989   0.000  0.00  0.00     0.000 A 
ATOM     11  C   UNL d   1      -1.081   4.394   0.000  0.00  0.00     0.000 A 
ATOM     12  C   UNL d   1      -0.371   3.989   0.000  0.00  0.00     0.000 A 
ATOM     13  C   UNL d   1      -0.371   3.164   0.000  0.00  0.00     0.004 A 
ENDBRANCH   6   8
BRANCH   6  14
ATOM     14  C   UNL d   1      -2.026   1.925   0.000  0.00  0.00     0.038 A 
ATOM     15  C   UNL d   1      -2.735   1.520   0.000  0.00  0.00     0.004 A 
ATOM     16  C   UNL d   1      -3.430   1.925   0.000  0.00  0.00     0.000 A 
ATOM     17  C   UNL d   1      -3.430   2.759   0.000  0.00  0.00     0.000 A 
ATOM     18  C   UNL d   1      -2.735   3.164   0.000  0.00  0.00     0.000 A 
ATOM     19  C   UNL d   1      -2.026   2.759   0.000  0.00  0.00     0.004 A 
ENDBRANCH   6  14
ENDBRANCH   1   6
BRANCH   3  20
ATOM     20  N   UNL d   1      -1.563   0.593   0.000  0.00  0.00    -0.219 NA
BRANCH  20  21
ATOM     21  C   UNL d   1      -2.282   1.008   0.000  0.00  0.00     0.101 C 
BRANCH  21  22
ATOM     22  C   UNL d   1      -2.991   0.617   0.000  0.00  0.00     0.019 A 
ATOM     23  C   UNL d   1      -3.705   1.037   0.000  0.00  0.00     0.002 A 
ATOM     24  C   UNL d   1      -4.438   0.617   0.000  0.00  0.00     0.000 A 
ATOM     25  C   UNL d   1      -4.452  -0.207   0.000  0.00  0.00     0.000 A 
ATOM     26  C   UNL d   1      -3.719  -0.637   0.000  0.00  0.00     0.000 A 
ATOM     27  C   UNL d   1      -2.991  -0.217   0.000  0.00  0.00     0.002 A 
ENDBRANCH  21  22
ENDBRANCH  20  21
ENDBRANCH   3  20
BRANCH   4  28
ATOM     28  C   UNL d   1       1.394   0.535   0.000  0.00  0.00     0.041 A 
ATOM     29  C   UNL d   1       1.968   1.153   0.000  0.00  0.00     0.004 A 
ATOM     30  C   UNL d   1       2.783   0.950   0.000  0.00  0.00     0.000 A 
ATOM     31  C   UNL d   1       3.029   0.169   0.000  0.00  0.00     0.000 A 
ATOM     32  C   UNL d   1       2.450  -0.449   0.000  0.00  0.00     0.000 A 
ATOM     33  C   UNL d   1       1.626  -0.251   0.000  0.00  0.00     0.004 A 
ENDBRANCH   4  28
TORSDOF 7
