REMARK  3 active torsions:
REMARK  status: ('A' for Active; 'I' for Inactive)
REMARK    1  A    between atoms: N_2  and  N_1 
REMARK    2  A    between atoms: C_3  and  N_1 
REMARK    3  A    between atoms: C_4  and  N_2 
ROOT
ATOM      1  N   UNL d   1       0.429   0.691   0.000  0.00  0.00    -0.148 NA
ENDROOT
BRANCH   1   2
ATOM      2  N   UNL d   1       0.450  -0.128   0.000  0.00  0.00    -0.148 NA
BRANCH   2   3
ATOM      3  C   UNL d   1      -0.283  -0.552   0.000  0.00  0.00     0.103 A 
ATOM      4  C   UNL d   1      -0.995  -0.142   0.000  0.00  0.00     0.021 A 
ATOM      5  C   UNL d   1      -1.711  -0.552   0.000  0.00  0.00     0.002 A 
ATOM      6  C   UNL d   1      -1.711  -1.385   0.000  0.00  0.00     0.000 A 
ATOM      7  C   UNL d   1      -0.995  -1.789   0.000  0.00  0.00     0.002 A 
ATOM      8  C   UNL d   1      -0.283  -1.385   0.000  0.00  0.00     0.021 A 
ENDBRANCH   2   3
ENDBRANCH   1   2
BRANCH   1   9
ATOM      9  C   UNL d   1       1.147   1.101   0.000  0.00  0.00     0.103 A 
ATOM     10  C   UNL d   1       1.859   0.691   0.000  0.00  0.00     0.022 A 
ATOM     11  C   UNL d   1       2.575   1.116   0.000  0.00  0.00     0.022 A 
ATOM     12  C   UNL d   1       2.575   1.913   0.000  0.00  0.00     0.103 A 
ATOM     13  C   UNL d   1       1.859   2.337   0.000  0.00  0.00     0.022 A 
ATOM     14  N   UNL d   1       3.304   2.323   0.000  0.00  0.00    -0.148 N 
ATOM     15  C   UNL d   1       1.147   1.930   0.000  0.00  0.00     0.022 A 
ENDBRANCH   1   9
TORSDOF 3
