REMARK  4 active torsions:
REMARK  status: ('A' for Active; 'I' for Inactive)
REMARK    1  A    between atoms: C_8  and  N_1 
REMARK    2  A    between atoms: N_7  and  C_4 
REMARK    3  A    between atoms: N_6  and  C_10 
REMARK    4  A    between atoms: C_15  and  N_7 
ROOT
ATOM      1  N   UNL d   1      -0.557   2.370   0.000  0.00  0.00    -0.241 N 
ATOM      2  C   UNL d   1      -0.339   3.151   0.000  0.00  0.00     0.269 A 
ATOM      3  C   UNL d   1       0.125   1.917   0.000  0.00  0.00     0.285 A 
ATOM      4  C   UNL d   1       0.755   2.453   0.000  0.00  0.00     0.142 A 
ATOM      5  C   UNL d   1       0.474   3.182   0.000  0.00  0.00     0.085 A 
ATOM      6  O   UNL d   1      -0.839   3.828   0.000  0.00  0.00    -0.267 OA
ATOM      7  O   UNL d   1       0.172   1.078   0.000  0.00  0.00    -0.265 OA
ENDROOT
BRANCH   4   8
ATOM      8  N   UNL d   1       1.599   2.276   0.000  0.00  0.00    -0.241 NA
BRANCH   8   9
ATOM      9  C   UNL d   1       1.880   1.495   0.000  0.00  0.00     0.082 A 
ATOM     10  C   UNL d   1       1.333   0.870   0.000  0.00  0.00     0.021 A 
ATOM     11  C   UNL d   1       1.625   0.088   0.000  0.00  0.00     0.019 A 
ATOM     12  C   UNL d   1       2.422  -0.062   0.000  0.00  0.00     0.064 A 
ATOM     13  C   UNL d   1       2.958   0.542   0.000  0.00  0.00     0.019 A 
ATOM     14  C   UNL d   1       2.688   1.328   0.000  0.00  0.00     0.021 A 
BRANCH  12  15
ATOM     15  N   UNL d   1       2.688  -0.849   0.000  0.00  0.00    -0.300 N 
ATOM     16  C   UNL d   1       3.500  -1.000   0.000  0.00  0.00     0.107 A 
ATOM     17  C   UNL d   1       3.755  -1.786   0.000  0.00  0.00     0.142 A 
ATOM     18  O   UNL d   1       3.208  -2.396   0.000  0.00  0.00    -0.300 OA
ATOM     19  C   UNL d   1       2.412  -2.224   0.000  0.00  0.00     0.142 A 
ATOM     20  C   UNL d   1       2.130  -1.443   0.000  0.00  0.00     0.107 A 
ENDBRANCH  12  15
ENDBRANCH   8   9
ENDBRANCH   4   8
BRANCH   1  21
ATOM     21  C   UNL d   1      -1.339   2.151   0.000  0.00  0.00     0.070 A 
ATOM     22  C   UNL d   1      -1.562   1.339   0.000  0.00  0.00     0.018 A 
ATOM     23  C   UNL d   1      -2.354   1.125   0.000  0.00  0.00     0.002 A 
ATOM     24  C   UNL d   1      -2.938   1.714   0.000  0.00  0.00     0.000 A 
ATOM     25  C   UNL d   1      -2.729   2.500   0.000  0.00  0.00     0.002 A 
ATOM     26  C   UNL d   1      -1.932   2.714   0.000  0.00  0.00     0.018 A 
ENDBRANCH   1  21
TORSDOF 4
