REMARK  3 active torsions:
REMARK  status: ('A' for Active; 'I' for Inactive)
REMARK    1  A    between atoms: C_2  and  O_1 
REMARK    2  A    between atoms: C_5  and  O_1 
REMARK    3  A    between atoms: C_10  and  C_5 
ROOT
ATOM      1  O   UNL d   1      -0.368   0.893   0.000  0.00  0.00    -0.305 OA
ENDROOT
BRANCH   1   2
ATOM      2  C   UNL d   1      -1.083   0.465   0.000  0.00  0.00     0.100 A 
ATOM      3  C   UNL d   1      -1.083  -0.372   0.000  0.00  0.00     0.026 A 
ATOM      4  C   UNL d   1      -1.797  -0.785   0.000  0.00  0.00     0.023 A 
ATOM      5  C   UNL d   1      -2.511  -0.372   0.000  0.00  0.00     0.103 A 
ATOM      6  C   UNL d   1      -2.511   0.487   0.000  0.00  0.00     0.023 A 
ATOM      7  N   UNL d   1      -3.244  -0.785   0.000  0.00  0.00    -0.148 N 
ATOM      8  C   UNL d   1      -1.797   0.878   0.000  0.00  0.00     0.026 A 
ENDBRANCH   1   2
BRANCH   1   9
ATOM      9  C   UNL d   1      -0.387   1.715   0.000  0.00  0.00     0.122 C 
BRANCH   9  10
ATOM     10  C   UNL d   1       0.346   2.128   0.000  0.00  0.00     0.025 A 
ATOM     11  C   UNL d   1       0.346   2.965   0.000  0.00  0.00     0.002 A 
ATOM     12  C   UNL d   1       1.060   3.378   0.000  0.00  0.00     0.000 A 
ATOM     13  C   UNL d   1       1.789   2.946   0.000  0.00  0.00     0.000 A 
ATOM     14  C   UNL d   1       1.774   2.128   0.000  0.00  0.00     0.000 A 
ATOM     15  C   UNL d   1       1.060   1.715   0.000  0.00  0.00     0.002 A 
ENDBRANCH   9  10
ENDBRANCH   1   9
TORSDOF 3
