REMARK  4 active torsions:
REMARK  status: ('A' for Active; 'I' for Inactive)
REMARK    1  A    between atoms: C_6  and  C_1 
REMARK    2  A    between atoms: N_7  and  C_2 
REMARK    3  A    between atoms: C_8  and  C_5 
REMARK    4  A    between atoms: O_10  and  C_6 
ROOT
ATOM      1  C   UNL d   1      -0.508   1.181   0.000  0.00  0.00     0.186 A 
ATOM      2  C   UNL d   1      -0.772   0.377   0.000  0.00  0.00     0.193 A 
ATOM      3  N   UNL d   1       0.301   1.186   0.000  0.00  0.00    -0.213 NA
ATOM      4  O   UNL d   1      -0.071  -0.099   0.000  0.00  0.00    -0.271 OA
ATOM      5  C   UNL d   1       0.570   0.447   0.000  0.00  0.00     0.184 A 
ENDROOT
BRANCH   5   6
ATOM      6  C   UNL d   1       1.318   0.466   0.000  0.00  0.00     0.041 A 
ATOM      7  C   UNL d   1       1.318  -0.372   0.000  0.00  0.00     0.004 A 
ATOM      8  C   UNL d   1       2.033  -0.791   0.000  0.00  0.00     0.000 A 
ATOM      9  C   UNL d   1       2.744  -0.372   0.000  0.00  0.00     0.000 A 
ATOM     10  C   UNL d   1       2.744   0.466   0.000  0.00  0.00     0.000 A 
ATOM     11  C   UNL d   1       2.033   0.861   0.000  0.00  0.00     0.004 A 
ENDBRANCH   5   6
BRANCH   1  12
ATOM     12  C   UNL d   1      -1.054   1.633   0.000  0.00  0.00     0.317 C 
ATOM     13  O   UNL d   1      -1.935   1.577   0.000  0.00  0.00    -0.257 OA
BRANCH  12  14
ATOM     14  O   UNL d   1      -1.054   2.368   0.000  0.00  0.00    -0.294 OA
ATOM     15  C   UNL d   1      -0.395   2.918   0.000  0.00  0.00     0.185 C 
ENDBRANCH  12  14
ENDBRANCH   1  12
BRANCH   2  16
ATOM     16  N   UNL d   1      -1.426   0.334   0.000  0.00  0.00    -0.281 N 
ATOM     17  C   UNL d   1      -1.426  -0.471   0.000  0.00  0.00     0.101 C 
ATOM     18  C   UNL d   1      -2.113   0.734   0.000  0.00  0.00     0.101 C 
ENDBRANCH   2  16
TORSDOF 4
