REMARK  4 active torsions:
REMARK  status: ('A' for Active; 'I' for Inactive)
REMARK    1  A    between atoms: C_4  and  C_1 
REMARK    2  A    between atoms: C_2  and  C_3 
REMARK    3  A    between atoms: O_7  and  C_13 
REMARK    4  A    between atoms: C_12  and  O_7 
ROOT
ATOM      1  O   UNL d   1      -0.287  -0.974   0.000  0.00  0.00    -0.307 OA
ENDROOT
BRANCH   1   2
ATOM      2  C   UNL d   1       0.519  -0.776   0.000  0.00  0.00     0.100 A 
ATOM      3  C   UNL d   1       0.731   0.011   0.000  0.00  0.00     0.025 A 
ATOM      4  C   UNL d   1       1.537   0.224   0.000  0.00  0.00     0.005 A 
ATOM      5  C   UNL d   1       2.108  -0.347   0.000  0.00  0.00     0.039 A 
ATOM      6  C   UNL d   1       1.895  -1.153   0.000  0.00  0.00     0.005 A 
ATOM      7  C   UNL d   1       1.089  -1.369   0.000  0.00  0.00     0.025 A 
BRANCH   5   8
ATOM      8  C   UNL d   1       2.913  -0.134   0.000  0.00  0.00     0.196 C 
ATOM      9  O   UNL d   1       3.507  -0.720   0.000  0.00  0.00    -0.287 OA
ATOM     10  C   UNL d   1       3.148   0.656   0.000  0.00  0.00     0.045 C 
ENDBRANCH   5   8
ENDBRANCH   1   2
BRANCH   1  11
ATOM     11  C   UNL d   1      -0.880  -0.384   0.000  0.00  0.00     0.100 A 
ATOM     12  C   UNL d   1      -0.627   0.403   0.000  0.00  0.00     0.025 A 
ATOM     13  C   UNL d   1      -1.220   0.996   0.000  0.00  0.00     0.005 A 
ATOM     14  C   UNL d   1      -2.026   0.802   0.000  0.00  0.00     0.039 A 
ATOM     15  C   UNL d   1      -2.238   0.011   0.000  0.00  0.00     0.005 A 
ATOM     16  C   UNL d   1      -1.667  -0.582   0.000  0.00  0.00     0.025 A 
BRANCH  14  17
ATOM     17  C   UNL d   1      -2.596   1.373   0.000  0.00  0.00     0.196 C 
ATOM     18  O   UNL d   1      -2.384   2.179   0.000  0.00  0.00    -0.287 OA
ATOM     19  C   UNL d   1      -3.387   1.160   0.000  0.00  0.00     0.045 C 
ENDBRANCH  14  17
ENDBRANCH   1  11
TORSDOF 4
