REMARK  1 active torsions:
REMARK  status: ('A' for Active; 'I' for Inactive)
REMARK    1  A    between atoms: C_2  and  C_1 
REMARK       I    between atoms: N_3  and  C_2 
ROOT
ATOM      1  C   UNL d   1       0.751   1.321   0.000  0.00  0.00     0.109 A 
ATOM      2  C   UNL d   1       0.751   2.077   0.000  0.00  0.00     0.026 A 
ATOM      3  C   UNL d   1       0.093   1.041   0.000  0.00  0.00    -0.014 A 
ATOM      4  C   UNL d   1       0.221   0.673   0.000  0.00  0.00    -0.014 A 
ATOM      5  C   UNL d   1      -0.039   2.352   0.000  0.00  0.00     0.045 A 
ATOM      6  C   UNL d   1      -0.437   0.884   0.000  0.00  0.00    -0.007 A 
ATOM      7  C   UNL d   1      -0.722   1.321   0.000  0.00  0.00    -0.007 A 
ATOM      8  C   UNL d   1      -0.722   2.058   0.000  0.00  0.00    -0.022 A 
ATOM      9  C   UNL d   1      -1.277   0.673   0.000  0.00  0.00    -0.001 A 
ATOM     10  C   UNL d   1      -0.467   1.851   0.000  0.00  0.00    -0.022 A 
ENDROOT
BRANCH   1  11
ATOM     11  C   UNL d   1       1.567   0.899   0.000  0.00  0.00     0.248 C 
ATOM     12  N   UNL d   1       2.333   1.120   0.000  0.00  0.00    -0.275 N 
ATOM     13  C   UNL d   1       2.907   0.570   0.000  0.00  0.00     0.083 A 
ATOM     14  C   UNL d   1       2.510   1.901   0.000  0.00  0.00     0.083 A 
ATOM     15  C   UNL d   1       3.698   0.805   0.000  0.00  0.00     0.019 A 
ATOM     16  C   UNL d   1       3.894   1.586   0.000  0.00  0.00     0.003 A 
ATOM     17  C   UNL d   1       3.300   2.136   0.000  0.00  0.00     0.019 A 
ATOM     18  O   UNL d   1       1.120   0.098   0.000  0.00  0.00    -0.271 OA
ENDBRANCH   1  11
TORSDOF 1
