REMARK  6 active torsions:
REMARK  status: ('A' for Active; 'I' for Inactive)
REMARK    1  A    between atoms: N_6  and  C_1 
REMARK    2  A    between atoms: C_18  and  N_4 
REMARK       I    between atoms: C_8  and  N_6 
REMARK    3  A    between atoms: C_7  and  C_8 
REMARK    4  A    between atoms: C_11  and  C_7 
REMARK    5  A    between atoms: C_19  and  C_9 
REMARK    6  A    between atoms: C_12  and  C_11 
ROOT
ATOM      1  C   UNL d   1       0.599  -1.249   0.000  0.00  0.00     0.128 C 
ATOM      2  C   UNL d   1      -0.111  -0.865   0.000  0.00  0.00     0.106 C 
ATOM      3  N   UNL d   1      -0.887  -0.510   0.000  0.00  0.00    -0.191 NA
ENDROOT
BRANCH   1   4
ATOM      4  C   UNL d   1       1.308  -0.798   0.000  0.00  0.00     0.289 C 
ATOM      5  N   UNL d   1       1.241   0.022   0.000  0.00  0.00    -0.201 NA
ATOM      6  O   UNL d   1       2.017  -1.153   0.000  0.00  0.00    -0.264 OA
BRANCH   5   7
ATOM      7  C   UNL d   1       1.951   0.480   0.000  0.00  0.00     0.160 A 
ATOM      8  C   UNL d   1       2.047   1.300   0.000  0.00  0.00     0.298 A 
ATOM      9  N   UNL d   1       2.867   1.441   0.000  0.00  0.00    -0.209 N 
ATOM     10  O   UNL d   1       1.485   1.862   0.000  0.00  0.00    -0.263 OA
ATOM     11  N   UNL d   1       3.222   0.702   0.000  0.00  0.00    -0.238 N 
ATOM     12  C   UNL d   1       2.690   0.089   0.000  0.00  0.00     0.104 A 
ATOM     13  C   UNL d   1       4.079   0.591   0.000  0.00  0.00     0.120 C 
ATOM     14  C   UNL d   1       2.867  -0.717   0.000  0.00  0.00     0.022 C 
BRANCH   9  15
ATOM     15  C   UNL d   1       3.288   2.150   0.000  0.00  0.00     0.085 A 
ATOM     16  C   UNL d   1       2.867   2.860   0.000  0.00  0.00     0.019 A 
ATOM     17  C   UNL d   1       3.288   3.584   0.000  0.00  0.00     0.002 A 
ATOM     18  C   UNL d   1       4.109   3.584   0.000  0.00  0.00     0.000 A 
ATOM     19  C   UNL d   1       4.530   2.860   0.000  0.00  0.00     0.002 A 
ATOM     20  C   UNL d   1       4.109   2.150   0.000  0.00  0.00     0.019 A 
ENDBRANCH   9  15
ENDBRANCH   5   7
ENDBRANCH   1   4
BRANCH   1  21
ATOM     21  C   UNL d   1       0.672  -2.069   0.000  0.00  0.00     0.040 C 
BRANCH  21  22
ATOM     22  C   UNL d   1      -0.037  -2.571   0.000  0.00  0.00     0.101 A 
ATOM     23  O   UNL d   1      -0.857  -2.313   0.000  0.00  0.00    -0.307 OA
ATOM     24  C   UNL d   1      -1.323  -2.993   0.000  0.00  0.00     0.100 A 
ATOM     25  C   UNL d   1      -0.820  -3.636   0.000  0.00  0.00     0.027 A 
ATOM     26  C   UNL d   1      -0.037  -3.347   0.000  0.00  0.00     0.027 A 
BRANCH  24  27
ATOM     27  C   UNL d   1      -2.165  -2.993   0.000  0.00  0.00     0.023 A 
ATOM     28  C   UNL d   1      -2.564  -2.283   0.000  0.00  0.00     0.003 A 
ATOM     29  C   UNL d   1      -3.406  -2.283   0.000  0.00  0.00     0.011 A 
ATOM     30  C   UNL d   1      -3.805  -2.993   0.000  0.00  0.00     0.058 A 
ATOM     31  C   UNL d   1      -3.406  -3.702   0.000  0.00  0.00     0.011 A 
ATOM     32 CL   UNL d   1      -4.648  -2.993   0.000  0.00  0.00    -0.082 Cl
ATOM     33  C   UNL d   1      -2.564  -3.702   0.000  0.00  0.00     0.003 A 
ENDBRANCH  24  27
ENDBRANCH  21  22
ENDBRANCH   1  21
TORSDOF 6
