REMARK  4 active torsions:
REMARK  status: ('A' for Active; 'I' for Inactive)
REMARK    1  A    between atoms: C_2  and  C_1 
REMARK       I    between atoms: N_5  and  C_1 
REMARK    2  A    between atoms: C_4  and  C_2 
REMARK    3  A    between atoms: C_3  and  C_4 
REMARK    4  A    between atoms: C_9  and  N_5 
ROOT
ATOM      1  C   UNL d   1      -0.155   0.590   0.000  0.00  0.00     0.280 C 
ATOM      2  N   UNL d   1      -0.356  -0.221   0.000  0.00  0.00    -0.208 NA
ATOM      3  O   UNL d   1      -0.738   1.173   0.000  0.00  0.00    -0.265 OA
ENDROOT
BRANCH   1   4
ATOM      4  C   UNL d   1       0.636   0.807   0.000  0.00  0.00     0.069 C 
BRANCH   4   5
ATOM      5  C   UNL d   1       0.844   1.618   0.000  0.00  0.00     0.075 C 
BRANCH   5   6
ATOM      6  C   UNL d   1       1.651   1.836   0.000  0.00  0.00     0.211 C 
ATOM      7  O   UNL d   1       1.859   2.647   0.000  0.00  0.00    -0.644 OA
ATOM      8  O   UNL d   1       2.254   1.266   0.000  0.00  0.00    -0.644 OA
ENDBRANCH   5   6
ENDBRANCH   4   5
ENDBRANCH   1   4
BRANCH   2   9
ATOM      9  C   UNL d   1      -1.163  -0.438   0.000  0.00  0.00     0.085 A 
ATOM     10  C   UNL d   1      -1.750   0.145   0.000  0.00  0.00     0.019 A 
ATOM     11  C   UNL d   1      -2.541  -0.063   0.000  0.00  0.00     0.002 A 
ATOM     12  C   UNL d   1      -2.765  -0.854   0.000  0.00  0.00     0.000 A 
ATOM     13  C   UNL d   1      -2.175  -1.454   0.000  0.00  0.00     0.002 A 
ATOM     14  C   UNL d   1      -1.384  -1.229   0.000  0.00  0.00     0.019 A 
ENDBRANCH   2   9
TORSDOF 4
