REMARK  5 active torsions:
REMARK  status: ('A' for Active; 'I' for Inactive)
REMARK    1  A    between atoms: S_2  and  C_1 
REMARK    2  A    between atoms: N_3  and  C_1 
REMARK    3  A    between atoms: C_4  and  C_1 
REMARK    4  A    between atoms: C_6  and  S_2 
REMARK       I    between atoms: C_5  and  N_3 
REMARK    5  A    between atoms: C_9  and  C_5 
ROOT
ATOM      1  C   UNL d   1       0.738  -0.757   0.000  0.00  0.00     0.193 C 
ENDROOT
BRANCH   1   2
ATOM      2  S   UNL d   1       0.757   0.045   0.000  0.00  0.00     0.228 S 
ATOM      3  O   UNL d   1       1.585   0.045   0.000  0.00  0.00    -0.216 OA
ATOM      4  O   UNL d   1       0.026   0.045   0.000  0.00  0.00    -0.216 OA
BRANCH   2   5
ATOM      5  C   UNL d   1       0.738   0.742   0.000  0.00  0.00     0.090 A 
ATOM      6  C   UNL d   1       0.004   1.174   0.000  0.00  0.00     0.012 A 
ATOM      7  C   UNL d   1       0.004   2.029   0.000  0.00  0.00     0.012 A 
ATOM      8  C   UNL d   1       0.738   2.446   0.000  0.00  0.00     0.058 A 
ATOM      9  C   UNL d   1       1.460   2.029   0.000  0.00  0.00     0.012 A 
ATOM     10 CL   UNL d   1       0.711   3.071   0.000  0.00  0.00    -0.082 Cl
ATOM     11  C   UNL d   1       1.460   1.174   0.000  0.00  0.00     0.012 A 
ENDBRANCH   2   5
ENDBRANCH   1   2
BRANCH   1  12
ATOM     12  N   UNL d   1      -0.011  -1.163   0.000  0.00  0.00    -0.195 NA
ATOM     13  C   UNL d   1      -0.764  -0.757   0.000  0.00  0.00     0.280 C 
ATOM     14  O   UNL d   1      -0.764   0.120   0.000  0.00  0.00    -0.265 OA
BRANCH  13  15
ATOM     15  C   UNL d   1      -1.445  -0.998   0.000  0.00  0.00     0.058 A 
ATOM     16  C   UNL d   1      -1.445  -1.822   0.000  0.00  0.00     0.005 A 
ATOM     17  C   UNL d   1      -2.153  -2.240   0.000  0.00  0.00     0.000 A 
ATOM     18  C   UNL d   1      -2.864  -1.822   0.000  0.00  0.00     0.000 A 
ATOM     19  C   UNL d   1      -2.864  -0.998   0.000  0.00  0.00     0.000 A 
ATOM     20  C   UNL d   1      -3.361  -2.183   0.000  0.00  0.00     0.000 C 
ATOM     21  C   UNL d   1      -2.153  -0.591   0.000  0.00  0.00     0.005 A 
ENDBRANCH  13  15
ENDBRANCH   1  12
BRANCH   1  22
ATOM     22  C   UNL d   1       1.460  -1.163   0.000  0.00  0.00     0.144 C 
ATOM     23 CL   UNL d   1       1.460  -2.033   0.000  0.00  0.00    -0.068 Cl
ATOM     24 CL   UNL d   1       2.206  -0.757   0.000  0.00  0.00    -0.068 Cl
ENDBRANCH   1  22
TORSDOF 5
