REMARK  8 active torsions:
REMARK  status: ('A' for Active; 'I' for Inactive)
REMARK    1  A    between atoms: S_5  and  C_2 
REMARK       I    between atoms: C_3  and  N_9 
REMARK    2  A    between atoms: C_16  and  C_3 
REMARK       I    between atoms: C_4  and  N_8 
REMARK    3  A    between atoms: C_17  and  C_4 
REMARK    4  A    between atoms: C_10  and  S_5 
REMARK    5  A    between atoms: S_11  and  C_6 
REMARK    6  A    between atoms: N_8  and  C_10 
REMARK    7  A    between atoms: N_9  and  C_12 
REMARK    8  A    between atoms: C_12  and  S_11 
ROOT
ATOM      1  N   UNL d   1      -0.596  -0.174   0.000  0.00  0.00    -0.214 NA
ATOM      2  C   UNL d   1      -1.039  -0.870   0.000  0.00  0.00     0.196 A 
ATOM      3  C   UNL d   1       0.227  -0.227   0.000  0.00  0.00     0.116 A 
ATOM      4  N   UNL d   1      -0.675  -1.619   0.000  0.00  0.00    -0.220 NA
ATOM      5  C   UNL d   1       0.606  -0.949   0.000  0.00  0.00     0.047 A 
ATOM      6  C   UNL d   1       0.164  -1.645   0.000  0.00  0.00     0.103 A 
ENDROOT
BRANCH   2   7
ATOM      7  S   UNL d   1      -1.877  -0.870   0.000  0.00  0.00    -0.027 SA
BRANCH   7   8
ATOM      8  C   UNL d   1      -2.294  -1.566   0.000  0.00  0.00     0.141 C 
BRANCH   8   9
ATOM      9  N   UNL d   1      -3.143  -1.503   0.000  0.00  0.00    -0.199 NA
ATOM     10  C   UNL d   1      -3.601  -2.215   0.000  0.00  0.00     0.280 C 
ATOM     11  O   UNL d   1      -3.222  -2.948   0.000  0.00  0.00    -0.265 OA
BRANCH  10  12
ATOM     12  C   UNL d   1      -4.424  -2.199   0.000  0.00  0.00     0.058 A 
ATOM     13  C   UNL d   1      -4.867  -2.895   0.000  0.00  0.00     0.005 A 
ATOM     14  C   UNL d   1      -5.695  -2.853   0.000  0.00  0.00     0.000 A 
ATOM     15  C   UNL d   1      -6.074  -2.125   0.000  0.00  0.00     0.000 A 
ATOM     16  C   UNL d   1      -5.642  -1.440   0.000  0.00  0.00     0.000 A 
ATOM     17  C   UNL d   1      -4.804  -1.476   0.000  0.00  0.00     0.005 A 
ENDBRANCH  10  12
ENDBRANCH   8   9
ENDBRANCH   7   8
ENDBRANCH   2   7
BRANCH   3  18
ATOM     18  S   UNL d   1       0.680   0.469   0.000  0.00  0.00    -0.047 SA
BRANCH  18  19
ATOM     19  C   UNL d   1       0.301   1.202   0.000  0.00  0.00     0.139 C 
BRANCH  19  20
ATOM     20  N   UNL d   1       0.744   1.893   0.000  0.00  0.00    -0.199 NA
ATOM     21  C   UNL d   1       0.364   2.621   0.000  0.00  0.00     0.280 C 
ATOM     22  O   UNL d   1      -0.469   2.652   0.000  0.00  0.00    -0.265 OA
BRANCH  21  23
ATOM     23  C   UNL d   1       0.807   3.317   0.000  0.00  0.00     0.058 A 
ATOM     24  C   UNL d   1       1.629   3.285   0.000  0.00  0.00     0.005 A 
ATOM     25  C   UNL d   1       2.093   3.965   0.000  0.00  0.00     0.000 A 
ATOM     26  C   UNL d   1       1.730   4.709   0.000  0.00  0.00     0.000 A 
ATOM     27  C   UNL d   1       0.891   4.772   0.000  0.00  0.00     0.000 A 
ATOM     28  C   UNL d   1       0.443   4.065   0.000  0.00  0.00     0.005 A 
ENDBRANCH  21  23
ENDBRANCH  19  20
ENDBRANCH  18  19
ENDBRANCH   3  18
TORSDOF 8
