REMARK  4 active torsions:
REMARK  status: ('A' for Active; 'I' for Inactive)
REMARK       I    between atoms: C_2  and  N_1 
REMARK    1  A    between atoms: C_3  and  N_1 
REMARK    2  A    between atoms: C_5  and  C_2 
REMARK    3  A    between atoms: C_4  and  C_3 
REMARK    4  A    between atoms: N_6  and  C_3 
ROOT
ATOM      1  C   UNL d   1      -1.269   2.026   0.000  0.00  0.00     0.170 C 
ENDROOT
BRANCH   1   2
ATOM      2  N   UNL d   1      -1.993   1.614   0.000  0.00  0.00    -0.191 NA
ATOM      3  C   UNL d   1      -2.730   2.066   0.000  0.00  0.00     0.281 C 
ATOM      4  O   UNL d   1      -2.730   2.889   0.000  0.00  0.00    -0.265 OA
BRANCH   3   5
ATOM      5  C   UNL d   1      -3.461   1.674   0.000  0.00  0.00     0.069 A 
ATOM      6  C   UNL d   1      -4.145   2.126   0.000  0.00  0.00     0.062 A 
ATOM      7 CL   UNL d   1      -4.224   2.869   0.000  0.00  0.00    -0.082 Cl
ATOM      8  C   UNL d   1      -4.915   1.747   0.000  0.00  0.00     0.012 A 
ATOM      9  C   UNL d   1      -4.962   0.930   0.000  0.00  0.00     0.001 A 
ATOM     10  C   UNL d   1      -4.258   0.471   0.000  0.00  0.00     0.000 A 
ATOM     11  C   UNL d   1      -3.507   0.850   0.000  0.00  0.00     0.006 A 
ENDBRANCH   3   5
ENDBRANCH   1   2
BRANCH   1  12
ATOM     12  C   UNL d   1      -0.558   1.587   0.000  0.00  0.00     0.249 C 
ATOM     13 CL   UNL d   1       0.140   1.196   0.000  0.00  0.00    -0.075 Cl
ATOM     14 CL   UNL d   1      -0.578   0.691   0.000  0.00  0.00    -0.075 Cl
ATOM     15 CL   UNL d   1       0.086   2.013   0.000  0.00  0.00    -0.075 Cl
ENDBRANCH   1  12
BRANCH   1  16
ATOM     16  N   UNL d   1      -1.249   2.843   0.000  0.00  0.00    -0.286 N 
ATOM     17  C   UNL d   1      -1.933   3.261   0.000  0.00  0.00     0.108 A 
ATOM     18  C   UNL d   1      -1.913   4.085   0.000  0.00  0.00     0.142 A 
ATOM     19  O   UNL d   1      -1.229   4.497   0.000  0.00  0.00    -0.300 OA
ATOM     20  C   UNL d   1      -0.511   4.065   0.000  0.00  0.00     0.142 A 
ATOM     21  C   UNL d   1      -0.531   3.241   0.000  0.00  0.00     0.108 A 
ENDBRANCH   1  16
TORSDOF 4
