REMARK  5 active torsions:
REMARK  status: ('A' for Active; 'I' for Inactive)
REMARK    1  A    between atoms: S_2  and  C_1 
REMARK    2  A    between atoms: N_3  and  C_1 
REMARK    3  A    between atoms: C_4  and  C_1 
REMARK    4  A    between atoms: C_6  and  S_2 
REMARK       I    between atoms: C_5  and  N_3 
REMARK    5  A    between atoms: C_9  and  C_5 
ROOT
ATOM      1  C   UNL d   1       1.349  -0.510   0.000  0.00  0.00     0.193 C 
ENDROOT
BRANCH   1   2
ATOM      2  S   UNL d   1       0.787   0.094   0.000  0.00  0.00     0.228 S 
ATOM      3  O   UNL d   1       1.391   0.655   0.000  0.00  0.00    -0.216 OA
ATOM      4  O   UNL d   1       0.173  -0.468   0.000  0.00  0.00    -0.216 OA
BRANCH   2   5
ATOM      5  C   UNL d   1       0.201   0.726   0.000  0.00  0.00     0.089 A 
ATOM      6  C   UNL d   1       0.450   1.512   0.000  0.00  0.00     0.011 A 
ATOM      7  C   UNL d   1      -0.112   2.116   0.000  0.00  0.00     0.001 A 
ATOM      8  C   UNL d   1      -0.922   1.934   0.000  0.00  0.00     0.000 A 
ATOM      9  C   UNL d   1      -1.175   1.147   0.000  0.00  0.00     0.001 A 
ATOM     10  C   UNL d   1      -1.484   2.552   0.000  0.00  0.00     0.000 C 
ATOM     11  C   UNL d   1      -0.613   0.543   0.000  0.00  0.00     0.011 A 
ENDBRANCH   2   5
ENDBRANCH   1   2
BRANCH   1  12
ATOM     12  N   UNL d   1       2.135  -0.337   0.000  0.00  0.00    -0.195 NA
ATOM     13  C   UNL d   1       2.697  -0.941   0.000  0.00  0.00     0.280 C 
ATOM     14  O   UNL d   1       2.463  -1.704   0.000  0.00  0.00    -0.265 OA
BRANCH  13  15
ATOM     15  C   UNL d   1       3.484  -0.716   0.000  0.00  0.00     0.058 A 
ATOM     16  C   UNL d   1       4.046  -1.297   0.000  0.00  0.00     0.005 A 
ATOM     17  C   UNL d   1       4.832  -1.100   0.000  0.00  0.00     0.000 A 
ATOM     18  C   UNL d   1       5.076  -0.314   0.000  0.00  0.00     0.000 A 
ATOM     19  C   UNL d   1       4.514   0.276   0.000  0.00  0.00     0.000 A 
ATOM     20  C   UNL d   1       5.905  -0.089   0.000  0.00  0.00     0.000 C 
ATOM     21  C   UNL d   1       3.709   0.070   0.000  0.00  0.00     0.005 A 
ENDBRANCH  13  15
ENDBRANCH   1  12
BRANCH   1  22
ATOM     22  C   UNL d   1       1.124  -1.297   0.000  0.00  0.00     0.144 C 
ATOM     23 CL   UNL d   1       1.704  -1.803   0.000  0.00  0.00    -0.068 Cl
ATOM     24 CL   UNL d   1       0.281  -1.522   0.000  0.00  0.00    -0.068 Cl
ENDBRANCH   1  22
TORSDOF 5
