REMARK  4 active torsions:
REMARK  status: ('A' for Active; 'I' for Inactive)
REMARK    1  A    between atoms: C_2  and  N_1 
REMARK       I    between atoms: C_4  and  N_1 
REMARK    2  A    between atoms: C_3  and  C_2 
REMARK    3  A    between atoms: N_5  and  C_2 
REMARK    4  A    between atoms: C_6  and  C_4 
ROOT
ATOM      1  C   UNL d   1      -0.550   1.222   0.000  0.00  0.00     0.170 C 
ENDROOT
BRANCH   1   2
ATOM      2  N   UNL d   1       0.259   1.455   0.000  0.00  0.00    -0.191 NA
ATOM      3  C   UNL d   1       0.873   0.868   0.000  0.00  0.00     0.280 C 
ATOM      4  O   UNL d   1       1.714   1.095   0.000  0.00  0.00    -0.265 OA
BRANCH   3   5
ATOM      5  C   UNL d   1       0.656   0.064   0.000  0.00  0.00     0.058 A 
ATOM      6  C   UNL d   1       1.227  -0.545   0.000  0.00  0.00     0.007 A 
ATOM      7  C   UNL d   1       0.989  -1.338   0.000  0.00  0.00     0.030 A 
ATOM      8  C   UNL d   1       0.190  -1.545   0.000  0.00  0.00     0.140 A 
ATOM      9  C   UNL d   1      -0.381  -0.936   0.000  0.00  0.00     0.030 A 
ATOM     10  F   UNL d   1      -0.042  -2.259   0.000  0.00  0.00    -0.204 F 
ATOM     11  C   UNL d   1      -0.143  -0.116   0.000  0.00  0.00     0.007 A 
ENDBRANCH   3   5
ENDBRANCH   1   2
BRANCH   1  12
ATOM     12  C   UNL d   1      -0.868   0.502   0.000  0.00  0.00     0.249 C 
ATOM     13 CL   UNL d   1      -1.439  -0.317   0.000  0.00  0.00    -0.075 Cl
ATOM     14 CL   UNL d   1      -1.714   0.524   0.000  0.00  0.00    -0.075 Cl
ATOM     15 CL   UNL d   1      -0.444   0.127   0.000  0.00  0.00    -0.075 Cl
ENDBRANCH   1  12
BRANCH   1  16
ATOM     16  N   UNL d   1      -1.121   1.793   0.000  0.00  0.00    -0.286 N 
ATOM     17  C   UNL d   1      -1.904   1.603   0.000  0.00  0.00     0.108 A 
ATOM     18  C   UNL d   1      -2.476   2.185   0.000  0.00  0.00     0.142 A 
ATOM     19  O   UNL d   1      -2.248   2.962   0.000  0.00  0.00    -0.300 OA
ATOM     20  C   UNL d   1      -1.476   3.153   0.000  0.00  0.00     0.142 A 
ATOM     21  C   UNL d   1      -0.915   2.566   0.000  0.00  0.00     0.108 A 
ENDBRANCH   1  16
TORSDOF 4
