REMARK  0 active torsions:
REMARK  status: ('A' for Active; 'I' for Inactive)
ROOT
ATOM      1  C   UNL d   1      -1.437  -0.331   0.000  0.00  0.00     0.063 A 
ATOM      2  N   UNL d   1      -0.651   0.744   0.000  0.00  0.00    -0.204 NA
ATOM      3  C   UNL d   1      -1.437   0.487   0.000  0.00  0.00     0.099 A 
ATOM      4  C   UNL d   1      -0.189   0.096   0.000  0.00  0.00     0.318 A 
ATOM      5  C   UNL d   1      -0.651  -0.587   0.000  0.00  0.00     0.254 A 
ATOM      6  C   UNL d   1      -2.135   0.897   0.000  0.00  0.00     0.076 A 
ATOM      7  C   UNL d   1      -2.857   0.487   0.000  0.00  0.00     0.024 A 
ATOM      8  C   UNL d   1      -2.135  -0.740   0.000  0.00  0.00     0.016 A 
ATOM      9  O   UNL d   1       0.644   0.128   0.000  0.00  0.00    -0.262 OA
ATOM     10  C   UNL d   1      -2.857  -0.331   0.000  0.00  0.00     0.059 A 
ATOM     11  O   UNL d   1      -0.395  -1.370   0.000  0.00  0.00    -0.281 OA
ATOM     12 CL   UNL d   1      -2.135   1.726   0.000  0.00  0.00    -0.081 Cl
ATOM     13 CL   UNL d   1      -3.594  -0.758   0.000  0.00  0.00    -0.082 Cl
ENDROOT
TORSDOF 0
