REMARK  2 active torsions:
REMARK  status: ('A' for Active; 'I' for Inactive)
REMARK    1  A    between atoms: C_5  and  C_1 
REMARK    2  A    between atoms: N_2  and  C_6 
ROOT
ATOM      1  C   UNL d   1       0.793   1.394   0.000  0.00  0.00     0.077 A 
ATOM      2  C   UNL d   1      -0.041   2.483   0.000  0.00  0.00     0.160 A 
ATOM      3  C   UNL d   1       0.793   2.193   0.000  0.00  0.00     0.024 A 
ATOM      4  C   UNL d   1       0.099   1.099   0.000  0.00  0.00    -0.014 A 
ATOM      5  C   UNL d   1       0.233   0.710   0.000  0.00  0.00    -0.014 A 
ATOM      6  C   UNL d   1      -0.461   0.933   0.000  0.00  0.00    -0.000 A 
ATOM      7  C   UNL d   1      -0.762   1.394   0.000  0.00  0.00    -0.000 A 
ATOM      8  C   UNL d   1      -0.492   1.954   0.000  0.00  0.00     0.038 A 
ATOM      9  C   UNL d   1      -0.762   2.172   0.000  0.00  0.00     0.038 A 
ATOM     10  C   UNL d   1      -1.348   0.710   0.000  0.00  0.00    -0.000 A 
ATOM     11  O   UNL d   1      -0.016   3.214   0.000  0.00  0.00    -0.290 OA
ENDROOT
BRANCH   1  12
ATOM     12  C   UNL d   1       1.602   1.508   0.000  0.00  0.00    -0.011 A 
ATOM     13  C   UNL d   1       2.120   0.871   0.000  0.00  0.00    -0.002 A 
ATOM     14  C   UNL d   1       2.945   0.995   0.000  0.00  0.00     0.023 A 
ATOM     15  C   UNL d   1       3.235   1.768   0.000  0.00  0.00     0.127 A 
ATOM     16  C   UNL d   1       2.711   2.405   0.000  0.00  0.00     0.023 A 
ATOM     17  C   UNL d   1       1.887   2.265   0.000  0.00  0.00    -0.002 A 
BRANCH  15  18
ATOM     18  N   UNL d   1       4.049   1.908   0.000  0.00  0.00    -0.114 N 
ATOM     19  O   UNL d   1       4.297   2.690   0.000  0.00  0.00    -0.532 OA
ATOM     20  O   UNL d   1       4.609   1.260   0.000  0.00  0.00    -0.532 OA
ENDBRANCH  15  18
ENDBRANCH   1  12
TORSDOF 2
