REMARK  1 active torsions:
REMARK  status: ('A' for Active; 'I' for Inactive)
REMARK    1  A    between atoms: C_6  and  C_2 
ROOT
ATOM      1  N   UNL d   1      -1.733   0.378   0.000  0.00  0.00    -0.220 NA
ATOM      2  C   UNL d   1      -1.292   1.061   0.000  0.00  0.00     0.182 A 
ATOM      3  O   UNL d   1      -1.733   1.704   0.000  0.00  0.00    -0.288 OA
ATOM      4  C   UNL d   1      -2.514   0.643   0.000  0.00  0.00     0.106 A 
ATOM      5  C   UNL d   1      -2.514   1.468   0.000  0.00  0.00     0.119 A 
ATOM      6  C   UNL d   1      -3.221   0.216   0.000  0.00  0.00     0.021 A 
ATOM      7  C   UNL d   1      -3.221   1.866   0.000  0.00  0.00     0.026 A 
ATOM      8  C   UNL d   1      -3.948   1.468   0.000  0.00  0.00     0.002 A 
ATOM      9  C   UNL d   1      -3.948   0.614   0.000  0.00  0.00     0.002 A 
ENDROOT
BRANCH   2  10
ATOM     10  C   UNL d   1      -0.471   1.100   0.000  0.00  0.00     0.041 A 
ATOM     11  C   UNL d   1      -0.039   0.407   0.000  0.00  0.00     0.005 A 
ATOM     12  C   UNL d   1       0.800   0.452   0.000  0.00  0.00     0.021 A 
ATOM     13  C   UNL d   1       1.179   1.174   0.000  0.00  0.00     0.103 A 
ATOM     14  C   UNL d   1       0.727   1.881   0.000  0.00  0.00     0.021 A 
ATOM     15  N   UNL d   1       1.989   1.174   0.000  0.00  0.00    -0.148 N 
ATOM     16  C   UNL d   1      -0.098   1.827   0.000  0.00  0.00     0.005 A 
ENDBRANCH   2  10
TORSDOF 1
