REMARK  2 active torsions:
REMARK  status: ('A' for Active; 'I' for Inactive)
REMARK    1  A    between atoms: C_7  and  C_1 
REMARK    2  A    between atoms: C_11  and  C_7 
ROOT
ATOM      1  C   UNL d   1       1.315  -1.315   0.000  0.00  0.00     0.116 A 
ATOM      2  N   UNL d   1       2.029  -0.082   0.000  0.00  0.00    -0.152 NA
ATOM      3  N   UNL d   1       2.742  -1.315   0.000  0.00  0.00    -0.152 NA
ATOM      4  C   UNL d   1       2.029  -1.732   0.000  0.00  0.00     0.288 A 
ATOM      5  C   UNL d   1       1.315  -0.495   0.000  0.00  0.00     0.288 A 
ATOM      6  C   UNL d   1       2.742  -0.495   0.000  0.00  0.00     0.374 A 
ATOM      7  O   UNL d   1       0.589  -0.062   0.000  0.00  0.00    -0.265 OA
ATOM      8  O   UNL d   1       2.029  -2.555   0.000  0.00  0.00    -0.265 OA
ATOM      9  O   UNL d   1       3.452  -0.062   0.000  0.00  0.00    -0.242 OA
ENDROOT
BRANCH   1  10
ATOM     10  C   UNL d   1       0.589  -1.732   0.000  0.00  0.00     0.010 C 
BRANCH  10  11
ATOM     11  C   UNL d   1      -0.125  -1.315   0.000  0.00  0.00     0.001 A 
ATOM     12  C   UNL d   1      -0.125  -0.495   0.000  0.00  0.00     0.003 A 
ATOM     13  C   UNL d   1      -0.839  -0.082   0.000  0.00  0.00     0.042 A 
ATOM     14  C   UNL d   1      -1.545  -0.495   0.000  0.00  0.00     0.196 A 
ATOM     15  C   UNL d   1      -1.545  -1.315   0.000  0.00  0.00     0.042 A 
ATOM     16  O   UNL d   1      -2.278  -0.082   0.000  0.00  0.00    -0.287 OA
ATOM     17  C   UNL d   1      -0.839  -1.732   0.000  0.00  0.00     0.003 A 
ENDBRANCH  10  11
ENDBRANCH   1  10
TORSDOF 2
