REMARK  3 active torsions:
REMARK  status: ('A' for Active; 'I' for Inactive)
REMARK    1  A    between atoms: C_2  and  N_1 
REMARK    2  A    between atoms: C_4  and  N_1 
REMARK    3  A    between atoms: C_5  and  C_2 
ROOT
ATOM      1  N   UNL d   1       1.941   0.319   0.000  0.00  0.00    -0.184 N 
ATOM      2  O   UNL d   1       2.763   0.319   0.000  0.00  0.00    -0.080 OA
ENDROOT
BRANCH   1   3
ATOM      3  C   UNL d   1       1.530   1.027   0.000  0.00  0.00     0.108 C 
BRANCH   3   4
ATOM      4  C   UNL d   1       0.702   1.027   0.000  0.00  0.00     0.020 A 
ATOM      5  C   UNL d   1       0.294   0.304   0.000  0.00  0.00     0.004 A 
ATOM      6  C   UNL d   1      -0.531   0.304   0.000  0.00  0.00     0.030 A 
ATOM      7  C   UNL d   1      -0.945   1.009   0.000  0.00  0.00     0.140 A 
ATOM      8  C   UNL d   1      -0.531   1.718   0.000  0.00  0.00     0.030 A 
ATOM      9  F   UNL d   1      -1.767   1.009   0.000  0.00  0.00    -0.204 F 
ATOM     10  C   UNL d   1       0.294   1.730   0.000  0.00  0.00     0.004 A 
ENDBRANCH   3   4
ENDBRANCH   1   3
BRANCH   1  11
ATOM     11  C   UNL d   1       1.530  -0.405   0.000  0.00  0.00     0.090 A 
ATOM     12  C   UNL d   1       1.941  -1.107   0.000  0.00  0.00     0.020 A 
ATOM     13  C   UNL d   1       1.530  -1.816   0.000  0.00  0.00     0.002 A 
ATOM     14  C   UNL d   1       0.702  -1.816   0.000  0.00  0.00     0.000 A 
ATOM     15  C   UNL d   1       0.294  -1.095   0.000  0.00  0.00     0.002 A 
ATOM     16  C   UNL d   1       0.702  -0.390   0.000  0.00  0.00     0.020 A 
ENDBRANCH   1  11
TORSDOF 3
