REMARK  4 active torsions:
REMARK  status: ('A' for Active; 'I' for Inactive)
REMARK    1  A    between atoms: N_2  and  C_1 
REMARK    2  A    between atoms: C_16  and  N_6 
REMARK    3  A    between atoms: C_14  and  C_7 
REMARK    4  A    between atoms: N_8  and  C_12 
ROOT
ATOM      1  N   UNL d   1       0.378   1.181   0.000  0.00  0.00    -0.288 N 
ATOM      2  C   UNL d   1       1.173   1.068   0.000  0.00  0.00     0.196 A 
ATOM      3  S   UNL d   1       1.547   1.803   0.000  0.00  0.00    -0.092 SA
ATOM      4  C   UNL d   1       0.223   1.981   0.000  0.00  0.00     0.268 A 
ATOM      5  C   UNL d   1       0.942   2.371   0.000  0.00  0.00     0.093 A 
ATOM      6  O   UNL d   1      -0.536   2.351   0.000  0.00  0.00    -0.266 OA
ENDROOT
BRANCH   1   7
ATOM      7  C   UNL d   1      -0.146   0.536   0.000  0.00  0.00     0.139 A 
ATOM      8  C   UNL d   1       0.102  -0.260   0.000  0.00  0.00     0.296 A 
ATOM      9  N   UNL d   1      -0.581  -0.747   0.000  0.00  0.00    -0.209 N 
ATOM     10  O   UNL d   1       0.905  -0.491   0.000  0.00  0.00    -0.264 OA
ATOM     11  N   UNL d   1      -1.238  -0.260   0.000  0.00  0.00    -0.238 N 
ATOM     12  C   UNL d   1      -0.970   0.536   0.000  0.00  0.00     0.102 A 
ATOM     13  C   UNL d   1      -2.018  -0.491   0.000  0.00  0.00     0.120 C 
ATOM     14  C   UNL d   1      -1.458   1.202   0.000  0.00  0.00     0.022 C 
BRANCH   9  15
ATOM     15  C   UNL d   1      -0.678  -1.563   0.000  0.00  0.00     0.085 A 
ATOM     16  C   UNL d   1      -1.413  -1.900   0.000  0.00  0.00     0.019 A 
ATOM     17  C   UNL d   1      -1.510  -2.716   0.000  0.00  0.00     0.002 A 
ATOM     18  C   UNL d   1      -0.849  -3.203   0.000  0.00  0.00     0.000 A 
ATOM     19  C   UNL d   1      -0.110  -2.874   0.000  0.00  0.00     0.002 A 
ATOM     20  C   UNL d   1       0.004  -2.050   0.000  0.00  0.00     0.019 A 
ENDBRANCH   9  15
ENDBRANCH   1   7
BRANCH   2  21
ATOM     21  C   UNL d   1       1.977   0.877   0.000  0.00  0.00    -0.001 A 
ATOM     22  C   UNL d   1       2.550   1.482   0.000  0.00  0.00    -0.001 A 
ATOM     23  C   UNL d   1       3.362   1.287   0.000  0.00  0.00     0.023 A 
ATOM     24  C   UNL d   1       3.593   0.499   0.000  0.00  0.00     0.127 A 
ATOM     25  C   UNL d   1       3.021  -0.102   0.000  0.00  0.00     0.023 A 
ATOM     26  C   UNL d   1       2.209   0.093   0.000  0.00  0.00    -0.001 A 
BRANCH  24  27
ATOM     27  N   UNL d   1       4.389   0.325   0.000  0.00  0.00    -0.114 N 
ATOM     28  O   UNL d   1       4.693  -0.443   0.000  0.00  0.00    -0.532 OA
ATOM     29  O   UNL d   1       4.998   0.877   0.000  0.00  0.00    -0.532 OA
ENDBRANCH  24  27
ENDBRANCH   2  21
TORSDOF 4
