REMARK  3 active torsions:
REMARK  status: ('A' for Active; 'I' for Inactive)
REMARK    1  A    between atoms: S_6  and  C_1 
REMARK    2  A    between atoms: C_9  and  S_6 
REMARK    3  A    between atoms: C_7  and  C_9 
ROOT
ATOM      1  C   UNL d   1      -0.796   1.014   0.000  0.00  0.00     0.191 A 
ATOM      2  N   UNL d   1      -1.265   0.349   0.000  0.00  0.00    -0.220 NA
ATOM      3  N   UNL d   1      -1.265   1.675   0.000  0.00  0.00    -0.220 NA
ATOM      4  C   UNL d   1      -2.035   0.611   0.000  0.00  0.00     0.101 A 
ATOM      5  C   UNL d   1      -2.035   1.436   0.000  0.00  0.00     0.101 A 
ATOM      6  C   UNL d   1      -2.748   0.193   0.000  0.00  0.00     0.021 A 
ATOM      7  C   UNL d   1      -2.748   1.832   0.000  0.00  0.00     0.021 A 
ATOM      8  C   UNL d   1      -3.464   1.436   0.000  0.00  0.00     0.002 A 
ATOM      9  C   UNL d   1      -3.464   0.611   0.000  0.00  0.00     0.002 A 
ENDROOT
BRANCH   1  10
ATOM     10  S   UNL d   1       0.025   1.014   0.000  0.00  0.00    -0.064 SA
BRANCH  10  11
ATOM     11  C   UNL d   1       0.440   0.302   0.000  0.00  0.00     0.162 C 
BRANCH  11  12
ATOM     12  C   UNL d   1       1.279   0.302   0.000  0.00  0.00     0.197 C 
ATOM     13  O   UNL d   1       1.683   1.014   0.000  0.00  0.00    -0.647 OA
ATOM     14  O   UNL d   1       1.683  -0.418   0.000  0.00  0.00    -0.647 OA
ENDBRANCH  11  12
ENDBRANCH  10  11
ENDBRANCH   1  10
TORSDOF 3
