REMARK  2 active torsions:
REMARK  status: ('A' for Active; 'I' for Inactive)
REMARK    1  A    between atoms: C_2  and  C_1 
REMARK    2  A    between atoms: C_14  and  C_8 
ROOT
ATOM      1  C   UNL d   1       2.648   0.491   0.000  0.00  0.00     0.106 A 
ATOM      2  C   UNL d   1       2.648  -0.326   0.000  0.00  0.00     0.304 A 
ATOM      3  C   UNL d   1       1.927   0.897   0.000  0.00  0.00     0.011 A 
ATOM      4  C   UNL d   1       1.217   0.491   0.000  0.00  0.00     0.023 A 
ATOM      5  O   UNL d   1       1.927  -0.769   0.000  0.00  0.00    -0.273 OA
ATOM      6  C   UNL d   1       1.217  -0.326   0.000  0.00  0.00     0.103 A 
ATOM      7  C   UNL d   1       0.496   0.897   0.000  0.00  0.00     0.002 A 
ATOM      8  O   UNL d   1       3.395  -0.742   0.000  0.00  0.00    -0.259 OA
ATOM      9  C   UNL d   1       0.496  -0.769   0.000  0.00  0.00     0.025 A 
ATOM     10  C   UNL d   1      -0.219   0.491   0.000  0.00  0.00     0.000 A 
ATOM     11  C   UNL d   1      -0.219  -0.326   0.000  0.00  0.00     0.002 A 
ATOM     12  C   UNL d   1       0.496   1.730   0.000  0.00  0.00     0.000 A 
ATOM     13  C   UNL d   1      -0.940   0.897   0.000  0.00  0.00     0.000 A 
ATOM     14  C   UNL d   1      -0.219   2.141   0.000  0.00  0.00     0.000 A 
ATOM     15  C   UNL d   1      -0.956   1.730   0.000  0.00  0.00     0.000 A 
ENDROOT
BRANCH   1  16
ATOM     16  C   UNL d   1       3.369   0.897   0.000  0.00  0.00     0.210 A 
ATOM     17  O   UNL d   1       4.137   0.593   0.000  0.00  0.00    -0.268 OA
ATOM     18  C   UNL d   1       4.650   1.233   0.000  0.00  0.00     0.204 A 
ATOM     19  N   UNL d   1       4.212   1.922   0.000  0.00  0.00    -0.121 NA
ATOM     20  N   UNL d   1       3.417   1.724   0.000  0.00  0.00    -0.121 NA
BRANCH  18  21
ATOM     21  C   UNL d   1       5.467   1.260   0.000  0.00  0.00     0.043 A 
ATOM     22  C   UNL d   1       5.899   0.571   0.000  0.00  0.00     0.004 A 
ATOM     23  C   UNL d   1       6.727   0.593   0.000  0.00  0.00     0.000 A 
ATOM     24  C   UNL d   1       7.111   1.308   0.000  0.00  0.00     0.000 A 
ATOM     25  C   UNL d   1       6.668   2.002   0.000  0.00  0.00     0.000 A 
ATOM     26  C   UNL d   1       5.851   1.981   0.000  0.00  0.00     0.004 A 
ENDBRANCH  18  21
ENDBRANCH   1  16
TORSDOF 2
