REMARK  3 active torsions:
REMARK  status: ('A' for Active; 'I' for Inactive)
REMARK    1  A    between atoms: N_2  and  C_1 
REMARK    2  A    between atoms: N_3  and  C_1 
REMARK       I    between atoms: C_4  and  N_3 
REMARK    3  A    between atoms: C_9  and  C_4 
ROOT
ATOM      1  C   UNL d   1      -1.041   1.248   0.000  0.00  0.00     0.209 C 
ATOM      2  S   UNL d   1      -1.041   0.431   0.000  0.00  0.00    -0.038 SA
ENDROOT
BRANCH   1   3
ATOM      3  N   UNL d   1      -1.752   1.654   0.000  0.00  0.00    -0.282 N 
ATOM      4  C   UNL d   1      -2.466   1.237   0.000  0.00  0.00     0.066 A 
ATOM      5  C   UNL d   1      -3.177   1.654   0.000  0.00  0.00     0.016 A 
ATOM      6  C   UNL d   1      -2.466   0.410   0.000  0.00  0.00     0.018 A 
ATOM      7  C   UNL d   1      -3.891   1.248   0.000  0.00  0.00     0.001 A 
ATOM      8  C   UNL d   1      -3.177   2.491   0.000  0.00  0.00     0.003 A 
ATOM      9  C   UNL d   1      -3.891   0.431   0.000  0.00  0.00     0.000 A 
ATOM     10  C   UNL d   1      -3.177   0.011   0.000  0.00  0.00     0.002 A 
ATOM     11  C   UNL d   1      -2.466   2.901   0.000  0.00  0.00     0.019 A 
ATOM     12  C   UNL d   1      -1.752   2.491   0.000  0.00  0.00     0.082 A 
ENDBRANCH   1   3
BRANCH   1  13
ATOM     13  N   UNL d   1      -0.323   1.654   0.000  0.00  0.00    -0.180 NA
ATOM     14  C   UNL d   1       0.392   1.229   0.000  0.00  0.00     0.281 C 
ATOM     15  O   UNL d   1       0.381   0.421   0.000  0.00  0.00    -0.265 OA
BRANCH  14  16
ATOM     16  C   UNL d   1       1.103   1.650   0.000  0.00  0.00     0.058 A 
ATOM     17  C   UNL d   1       1.121   2.477   0.000  0.00  0.00     0.005 A 
ATOM     18  C   UNL d   1       1.828   2.890   0.000  0.00  0.00     0.000 A 
ATOM     19  C   UNL d   1       2.550   2.466   0.000  0.00  0.00     0.000 A 
ATOM     20  C   UNL d   1       2.539   1.650   0.000  0.00  0.00     0.000 A 
ATOM     21  C   UNL d   1       1.817   1.218   0.000  0.00  0.00     0.005 A 
ENDBRANCH  14  16
ENDBRANCH   1  13
TORSDOF 3
