REMARK  5 active torsions:
REMARK  status: ('A' for Active; 'I' for Inactive)
REMARK    1  A    between atoms: C_2  and  C_1 
REMARK    2  A    between atoms: C_16  and  C_8 
REMARK    3  A    between atoms: N_15  and  C_13 
REMARK    4  A    between atoms: C_19  and  N_15 
REMARK    5  A    between atoms: C_20  and  N_15 
ROOT
ATOM      1  C   UNL d   1       2.663   0.494   0.000  0.00  0.00     0.106 A 
ATOM      2  C   UNL d   1       2.663  -0.328   0.000  0.00  0.00     0.304 A 
ATOM      3  C   UNL d   1       1.938   0.902   0.000  0.00  0.00     0.011 A 
ATOM      4  O   UNL d   1       1.938  -0.773   0.000  0.00  0.00    -0.273 OA
ATOM      5  C   UNL d   1       1.224  -0.328   0.000  0.00  0.00     0.105 A 
ATOM      6  C   UNL d   1       1.224   0.494   0.000  0.00  0.00     0.023 A 
ATOM      7  C   UNL d   1       0.499  -0.773   0.000  0.00  0.00     0.042 A 
ATOM      8  C   UNL d   1      -0.220  -0.328   0.000  0.00  0.00     0.066 A 
ATOM      9  O   UNL d   1       3.414  -0.746   0.000  0.00  0.00    -0.259 OA
ATOM     10  C   UNL d   1       0.499   0.902   0.000  0.00  0.00     0.004 A 
ATOM     11  C   UNL d   1      -0.220   0.494   0.000  0.00  0.00     0.018 A 
ENDROOT
BRANCH   1  12
ATOM     12  C   UNL d   1       3.388   0.902   0.000  0.00  0.00     0.210 A 
ATOM     13  O   UNL d   1       4.161   0.596   0.000  0.00  0.00    -0.268 OA
ATOM     14  C   UNL d   1       4.676   1.240   0.000  0.00  0.00     0.204 A 
ATOM     15  N   UNL d   1       4.236   1.933   0.000  0.00  0.00    -0.121 NA
ATOM     16  N   UNL d   1       3.436   1.734   0.000  0.00  0.00    -0.121 NA
BRANCH  14  17
ATOM     17  C   UNL d   1       5.497   1.267   0.000  0.00  0.00     0.043 A 
ATOM     18  C   UNL d   1       5.884   1.992   0.000  0.00  0.00     0.004 A 
ATOM     19  C   UNL d   1       6.705   2.013   0.000  0.00  0.00     0.000 A 
ATOM     20  C   UNL d   1       7.151   1.315   0.000  0.00  0.00     0.000 A 
ATOM     21  C   UNL d   1       6.764   0.596   0.000  0.00  0.00     0.000 A 
ATOM     22  C   UNL d   1       5.932   0.574   0.000  0.00  0.00     0.004 A 
ENDBRANCH  14  17
ENDBRANCH   1  12
BRANCH   8  23
ATOM     23  N   UNL d   1      -0.993  -0.746   0.000  0.00  0.00    -0.304 N 
BRANCH  23  24
ATOM     24  C   UNL d   1      -1.691  -0.279   0.000  0.00  0.00     0.080 C 
ATOM     25  C   UNL d   1      -1.670   0.542   0.000  0.00  0.00     0.021 C 
ENDBRANCH  23  24
BRANCH  23  26
ATOM     26  C   UNL d   1      -1.025  -1.568   0.000  0.00  0.00     0.080 C 
ATOM     27  C   UNL d   1      -1.766  -1.954   0.000  0.00  0.00     0.021 C 
ENDBRANCH  23  26
ENDBRANCH   8  23
TORSDOF 5
