REMARK  1 active torsions:
REMARK  status: ('A' for Active; 'I' for Inactive)
REMARK    1  A    between atoms: C_2  and  C_1 
REMARK       I    between atoms: N_3  and  C_2 
ROOT
ATOM      1  C   UNL d   1      -2.068  -0.328   0.000  0.00  0.00     0.109 A 
ATOM      2  C   UNL d   1      -2.068   0.477   0.000  0.00  0.00     0.026 A 
ATOM      3  C   UNL d   1      -2.791  -0.660   0.000  0.00  0.00    -0.014 A 
ATOM      4  C   UNL d   1      -2.650  -1.044   0.000  0.00  0.00    -0.014 A 
ATOM      5  C   UNL d   1      -2.907   0.771   0.000  0.00  0.00     0.045 A 
ATOM      6  C   UNL d   1      -3.350  -0.805   0.000  0.00  0.00    -0.007 A 
ATOM      7  C   UNL d   1      -3.686  -0.328   0.000  0.00  0.00    -0.007 A 
ATOM      8  C   UNL d   1      -4.267  -1.044   0.000  0.00  0.00    -0.001 A 
ATOM      9  C   UNL d   1      -3.686   0.443   0.000  0.00  0.00    -0.022 A 
ATOM     10  C   UNL d   1      -3.410   0.242   0.000  0.00  0.00    -0.022 A 
ENDROOT
BRANCH   1  11
ATOM     11  C   UNL d   1      -1.114  -0.764   0.000  0.00  0.00     0.248 C 
ATOM     12  N   UNL d   1      -0.235  -0.205   0.000  0.00  0.00    -0.275 N 
ATOM     13  C   UNL d   1       0.179   0.458   0.000  0.00  0.00     0.083 A 
ATOM     14  C   UNL d   1       0.268  -0.794   0.000  0.00  0.00     0.083 A 
ATOM     15  C   UNL d   1       0.943   0.265   0.000  0.00  0.00     0.021 A 
ATOM     16  C   UNL d   1       0.999  -0.507   0.000  0.00  0.00     0.021 A 
ATOM     17  O   UNL d   1      -1.129  -1.610   0.000  0.00  0.00    -0.271 OA
ENDBRANCH   1  11
TORSDOF 1
