REMARK  3 active torsions:
REMARK  status: ('A' for Active; 'I' for Inactive)
REMARK    1  A    between atoms: C_7  and  C_1 
REMARK    2  A    between atoms: C_13  and  C_7 
REMARK    3  A    between atoms: N_12  and  C_11 
ROOT
ATOM      1  C   UNL d   1       0.521   0.460   0.000  0.00  0.00     0.010 C 
ENDROOT
BRANCH   1   2
ATOM      2  C   UNL d   1       0.923  -0.234   0.000  0.00  0.00     0.116 A 
ATOM      3  C   UNL d   1       0.521  -0.954   0.000  0.00  0.00     0.288 A 
ATOM      4  N   UNL d   1       0.923  -1.671   0.000  0.00  0.00    -0.152 NA
ATOM      5  O   UNL d   1      -0.306  -0.954   0.000  0.00  0.00    -0.265 OA
ATOM      6  C   UNL d   1       1.736  -1.671   0.000  0.00  0.00     0.374 A 
ATOM      7  N   UNL d   1       2.161  -0.969   0.000  0.00  0.00    -0.152 NA
ATOM      8  O   UNL d   1       2.142  -2.406   0.000  0.00  0.00    -0.242 OA
ATOM      9  C   UNL d   1       1.751  -0.257   0.000  0.00  0.00     0.288 A 
ATOM     10  O   UNL d   1       2.176   0.460   0.000  0.00  0.00    -0.265 OA
ENDBRANCH   1   2
BRANCH   1  11
ATOM     11  C   UNL d   1      -0.306   0.460   0.000  0.00  0.00     0.000 A 
ATOM     12  C   UNL d   1      -0.709  -0.234   0.000  0.00  0.00     0.002 A 
ATOM     13  C   UNL d   1      -1.517  -0.257   0.000  0.00  0.00     0.018 A 
ATOM     14  C   UNL d   1      -1.927   0.460   0.000  0.00  0.00     0.064 A 
ATOM     15  C   UNL d   1      -1.517   1.180   0.000  0.00  0.00     0.018 A 
ATOM     16  C   UNL d   1      -0.709   1.180   0.000  0.00  0.00     0.002 A 
BRANCH  14  17
ATOM     17  N   UNL d   1      -2.755   0.444   0.000  0.00  0.00    -0.301 N 
ATOM     18  C   UNL d   1      -3.172   1.145   0.000  0.00  0.00     0.100 C 
ATOM     19  C   UNL d   1      -3.138  -0.291   0.000  0.00  0.00     0.100 C 
ENDBRANCH  14  17
ENDBRANCH   1  11
TORSDOF 3
