REMARK  7 active torsions:
REMARK  status: ('A' for Active; 'I' for Inactive)
REMARK    1  A    between atoms: N_2  and  S_1 
REMARK    2  A    between atoms: C_3  and  S_1 
REMARK    3  A    between atoms: C_4  and  C_7 
REMARK       I    between atoms: N_5  and  C_4 
REMARK    4  A    between atoms: C_15  and  N_5 
REMARK    5  A    between atoms: C_6  and  C_11 
REMARK    6  A    between atoms: O_20  and  C_6 
REMARK    7  A    between atoms: C_28  and  O_20 
ROOT
ATOM      1  C   UNL d   1      -1.806  -0.733   0.000  0.00  0.00     0.104 A 
ATOM      2  C   UNL d   1      -3.238  -0.733   0.000  0.00  0.00     0.059 A 
ATOM      3  C   UNL d   1      -2.532  -0.340   0.000  0.00  0.00     0.018 A 
ATOM      4  C   UNL d   1      -1.806  -1.596   0.000  0.00  0.00     0.013 A 
ATOM      5  C   UNL d   1      -3.238  -1.596   0.000  0.00  0.00     0.005 A 
ATOM      6  C   UNL d   1      -2.532  -1.989   0.000  0.00  0.00     0.001 A 
ENDROOT
BRANCH   2   7
ATOM      7  C   UNL d   1      -3.945  -0.314   0.000  0.00  0.00     0.279 C 
ATOM      8  N   UNL d   1      -3.945   0.504   0.000  0.00  0.00    -0.208 NA
ATOM      9  O   UNL d   1      -4.704  -0.674   0.000  0.00  0.00    -0.265 OA
BRANCH   8  10
ATOM     10  C   UNL d   1      -4.664   0.935   0.000  0.00  0.00     0.085 A 
ATOM     11  C   UNL d   1      -4.651   1.779   0.000  0.00  0.00     0.019 A 
ATOM     12  C   UNL d   1      -5.410   2.198   0.000  0.00  0.00     0.007 A 
ATOM     13  C   UNL d   1      -6.143   1.760   0.000  0.00  0.00     0.064 A 
ATOM     14  C   UNL d   1      -6.143   0.935   0.000  0.00  0.00     0.007 A 
ATOM     15  C   UNL d   1      -5.410   0.504   0.000  0.00  0.00     0.019 A 
BRANCH  13  16
ATOM     16  C   UNL d   1      -6.863   2.139   0.000  0.00  0.00     0.300 C 
ATOM     17  O   UNL d   1      -6.941   2.937   0.000  0.00  0.00    -0.259 OA
BRANCH  16  18
ATOM     18  O   UNL d   1      -7.589   1.760   0.000  0.00  0.00    -0.271 OA
BRANCH  18  19
ATOM     19  C   UNL d   1      -8.276   2.198   0.000  0.00  0.00     0.126 C 
ATOM     20  C   UNL d   1      -8.982   1.825   0.000  0.00  0.00     0.029 C 
ENDBRANCH  18  19
ENDBRANCH  16  18
ENDBRANCH  13  16
ENDBRANCH   8  10
ENDBRANCH   2   7
BRANCH   1  21
ATOM     21  S   UNL d   1      -1.093  -0.314   0.000  0.00  0.00     0.272 S 
ATOM     22  O   UNL d   1      -0.648  -1.027   0.000  0.00  0.00    -0.200 OA
ATOM     23  O   UNL d   1      -1.511   0.393   0.000  0.00  0.00    -0.200 OA
BRANCH  21  24
ATOM     24  N   UNL d   1      -0.393   0.111   0.000  0.00  0.00    -0.225 N 
ATOM     25  C   UNL d   1       0.314  -0.281   0.000  0.00  0.00     0.118 A 
ATOM     26  C   UNL d   1       1.021   0.131   0.000  0.00  0.00     0.142 A 
ATOM     27  O   UNL d   1       1.021   0.942   0.000  0.00  0.00    -0.300 OA
ATOM     28  C   UNL d   1       0.294   1.354   0.000  0.00  0.00     0.142 A 
ATOM     29  C   UNL d   1      -0.412   0.935   0.000  0.00  0.00     0.118 A 
ENDBRANCH  21  24
ENDBRANCH   1  21
TORSDOF 7
