REMARK  4 active torsions:
REMARK  status: ('A' for Active; 'I' for Inactive)
REMARK    1  A    between atoms: N_2  and  S_1 
REMARK    2  A    between atoms: C_3  and  S_1 
REMARK    3  A    between atoms: N_6  and  N_2 
REMARK    4  A    between atoms: C_9  and  N_6 
ROOT
ATOM      1  S   UNL d   1       0.608   0.474   0.000  0.00  0.00     0.302 S 
ATOM      2  O   UNL d   1       0.622   1.313   0.000  0.00  0.00    -0.197 OA
ATOM      3  O   UNL d   1       0.597  -0.347   0.000  0.00  0.00    -0.197 OA
ENDROOT
BRANCH   1   4
ATOM      4  N   UNL d   1      -0.228   0.488   0.000  0.00  0.00    -0.054 NA
BRANCH   4   5
ATOM      5  N   UNL d   1      -0.637  -0.206   0.000  0.00  0.00    -0.137 NA
BRANCH   5   6
ATOM      6  C   UNL d   1      -1.476  -0.206   0.000  0.00  0.00     0.104 A 
ATOM      7  C   UNL d   1      -1.885  -0.912   0.000  0.00  0.00     0.021 A 
ATOM      8  C   UNL d   1      -2.710  -0.894   0.000  0.00  0.00     0.002 A 
ATOM      9  C   UNL d   1      -3.101  -0.177   0.000  0.00  0.00     0.000 A 
ATOM     10  C   UNL d   1      -2.688   0.521   0.000  0.00  0.00     0.002 A 
ATOM     11  C   UNL d   1      -3.947  -0.174   0.000  0.00  0.00     0.000 C 
ATOM     12  C   UNL d   1      -1.867   0.517   0.000  0.00  0.00     0.021 A 
ENDBRANCH   5   6
ENDBRANCH   4   5
ENDBRANCH   1   4
BRANCH   1  13
ATOM     13  C   UNL d   1       1.433   0.463   0.000  0.00  0.00     0.107 A 
ATOM     14  C   UNL d   1       1.838  -0.250   0.000  0.00  0.00     0.013 A 
ATOM     15  C   UNL d   1       2.663  -0.242   0.000  0.00  0.00     0.001 A 
ATOM     16  C   UNL d   1       3.083   0.478   0.000  0.00  0.00     0.000 A 
ATOM     17  C   UNL d   1       2.674   1.201   0.000  0.00  0.00     0.001 A 
ATOM     18  C   UNL d   1       3.922   0.478   0.000  0.00  0.00     0.000 C 
ATOM     19  C   UNL d   1       1.849   1.172   0.000  0.00  0.00     0.013 A 
ENDBRANCH   1  13
TORSDOF 4
