REMARK  5 active torsions:
REMARK  status: ('A' for Active; 'I' for Inactive)
REMARK    1  A    between atoms: C_2  and  C_1 
REMARK    2  A    between atoms: C_3  and  C_1 
REMARK    3  A    between atoms: C_4  and  C_2 
REMARK    4  A    between atoms: C_6  and  C_3 
REMARK    5  A    between atoms: P_5  and  C_4 
ROOT
ATOM      1  C   UNL d   1      -3.187  -0.262   0.000  0.00  0.00     0.389 C 
ATOM      2  F   UNL d   1      -3.359   0.540   0.000  0.00  0.00    -0.191 F 
ATOM      3  F   UNL d   1      -3.007  -1.084   0.000  0.00  0.00    -0.191 F 
ENDROOT
BRANCH   1   4
ATOM      4  C   UNL d   1      -2.357  -0.086   0.000  0.00  0.00     0.387 C 
ATOM      5  F   UNL d   1      -2.537   0.720   0.000  0.00  0.00    -0.190 F 
ATOM      6  F   UNL d   1      -2.181  -0.912   0.000  0.00  0.00    -0.190 F 
BRANCH   4   7
ATOM      7  C   UNL d   1      -1.555   0.094   0.000  0.00  0.00     0.329 C 
ATOM      8  O   UNL d   1      -1.297   0.880   0.000  0.00  0.00    -0.275 OA
BRANCH   7   9
ATOM      9  P   UNL d   1      -0.982  -0.520   0.000  0.00  0.00     0.339 P 
ATOM     10  O   UNL d   1      -0.376   0.033   0.000  0.00  0.00    -0.634 OA
ATOM     11  O   UNL d   1      -1.592  -1.084   0.000  0.00  0.00    -0.634 OA
ATOM     12  O   UNL d   1      -0.438  -1.129   0.000  0.00  0.00    -0.634 OA
ENDBRANCH   7   9
ENDBRANCH   4   7
ENDBRANCH   1   4
BRANCH   1  13
ATOM     13  C   UNL d   1      -3.989  -0.442   0.000  0.00  0.00     0.393 C 
ATOM     14  F   UNL d   1      -4.169   0.364   0.000  0.00  0.00    -0.188 F 
ATOM     15  F   UNL d   1      -3.813  -1.264   0.000  0.00  0.00    -0.188 F 
BRANCH  13  16
ATOM     16  C   UNL d   1      -4.795  -0.618   0.000  0.00  0.00     0.322 C 
ATOM     17  F   UNL d   1      -5.348  -0.004   0.000  0.00  0.00    -0.171 F 
ATOM     18  F   UNL d   1      -5.053  -1.403   0.000  0.00  0.00    -0.171 F 
ENDBRANCH  13  16
ENDBRANCH   1  13
TORSDOF 5
