REMARK  4 active torsions:
REMARK  status: ('A' for Active; 'I' for Inactive)
REMARK    1  A    between atoms: S_8  and  C_1 
REMARK    2  A    between atoms: C_2  and  S_7 
REMARK    3  A    between atoms: S_7  and  C_13 
REMARK    4  A    between atoms: C_13  and  S_8 
ROOT
ATOM      1  C   UNL d   1      -1.393   0.883   0.000  0.00  0.00     0.128 C 
ENDROOT
BRANCH   1   2
ATOM      2  S   UNL d   1      -0.569   0.907   0.000  0.00  0.00    -0.076 SA
BRANCH   2   3
ATOM      3  C   UNL d   1      -0.172   0.201   0.000  0.00  0.00     0.137 A 
ATOM      4  N   UNL d   1       0.652   0.039   0.000  0.00  0.00    -0.232 NA
ATOM      5  C   UNL d   1       0.750  -0.765   0.000  0.00  0.00     0.088 A 
ATOM      6  C   UNL d   1       1.412  -1.255   0.000  0.00  0.00     0.020 A 
ATOM      7  C   UNL d   1       0.000  -1.118   0.000  0.00  0.00     0.049 A 
ATOM      8  C   UNL d   1       1.339  -2.059   0.000  0.00  0.00     0.002 A 
ATOM      9  C   UNL d   1       0.608  -2.432   0.000  0.00  0.00     0.001 A 
ATOM     10  C   UNL d   1      -0.074  -1.942   0.000  0.00  0.00     0.008 A 
ATOM     11  S   UNL d   1      -0.569  -0.530   0.000  0.00  0.00    -0.060 SA
ENDBRANCH   2   3
ENDBRANCH   1   2
BRANCH   1  12
ATOM     12  S   UNL d   1      -1.819   1.589   0.000  0.00  0.00    -0.076 SA
BRANCH  12  13
ATOM     13  C   UNL d   1      -2.643   1.613   0.000  0.00  0.00     0.137 A 
ATOM     14  N   UNL d   1      -3.084   2.275   0.000  0.00  0.00    -0.232 NA
ATOM     15  C   UNL d   1      -3.864   2.040   0.000  0.00  0.00     0.088 A 
ATOM     16  C   UNL d   1      -4.570   2.437   0.000  0.00  0.00     0.020 A 
ATOM     17  C   UNL d   1      -3.864   1.216   0.000  0.00  0.00     0.049 A 
ATOM     18  C   UNL d   1      -5.296   2.040   0.000  0.00  0.00     0.002 A 
ATOM     19  C   UNL d   1      -5.296   1.192   0.000  0.00  0.00     0.001 A 
ATOM     20  C   UNL d   1      -4.570   0.789   0.000  0.00  0.00     0.008 A 
ATOM     21  S   UNL d   1      -3.084   0.956   0.000  0.00  0.00    -0.060 SA
ENDBRANCH  12  13
ENDBRANCH   1  12
TORSDOF 4
