REMARK  7 active torsions:
REMARK  status: ('A' for Active; 'I' for Inactive)
REMARK    1  A    between atoms: C_2  and  N_1 
REMARK    2  A    between atoms: C_4  and  O_6 
REMARK    3  A    between atoms: C_11  and  C_4 
REMARK    4  A    between atoms: O_6  and  C_12 
REMARK    5  A    between atoms: O_10  and  C_11 
REMARK    6  A    between atoms: C_13  and  O_10 
REMARK    7  A    between atoms: C_21  and  C_16 
ROOT
ATOM      1  C   UNL d   1       2.183   1.266   0.000  0.00  0.00     0.325 C 
ATOM      2  O   UNL d   1       2.595   1.988   0.000  0.00  0.00    -0.256 OA
ENDROOT
BRANCH   1   3
ATOM      3  O   UNL d   1       2.595   0.550   0.000  0.00  0.00    -0.272 OA
BRANCH   3   4
ATOM      4  C   UNL d   1       3.420   0.550   0.000  0.00  0.00     0.103 A 
ATOM      5  C   UNL d   1       3.833  -0.161   0.000  0.00  0.00     0.026 A 
ATOM      6  C   UNL d   1       4.675  -0.143   0.000  0.00  0.00     0.026 A 
ATOM      7  C   UNL d   1       5.088   0.567   0.000  0.00  0.00     0.127 A 
ATOM      8  C   UNL d   1       4.658   1.300   0.000  0.00  0.00     0.026 A 
ATOM      9  C   UNL d   1       3.821   1.266   0.000  0.00  0.00     0.026 A 
BRANCH   7  10
ATOM     10  N   UNL d   1       5.912   0.567   0.000  0.00  0.00    -0.114 N 
ATOM     11  O   UNL d   1       6.377  -0.120   0.000  0.00  0.00    -0.532 OA
ATOM     12  O   UNL d   1       6.377   1.238   0.000  0.00  0.00    -0.532 OA
ENDBRANCH   7  10
ENDBRANCH   3   4
ENDBRANCH   1   3
BRANCH   1  13
ATOM     13  C   UNL d   1       1.358   1.266   0.000  0.00  0.00     0.191 C 
BRANCH  13  14
ATOM     14  O   UNL d   1       0.945   0.550   0.000  0.00  0.00    -0.300 OA
BRANCH  14  15
ATOM     15  C   UNL d   1       0.092   0.550   0.000  0.00  0.00     0.100 A 
ATOM     16  C   UNL d   1      -0.321  -0.161   0.000  0.00  0.00     0.025 A 
ATOM     17  C   UNL d   1      -1.146  -0.161   0.000  0.00  0.00     0.002 A 
ATOM     18  C   UNL d   1      -1.558   0.550   0.000  0.00  0.00     0.000 A 
ATOM     19  C   UNL d   1      -1.146   1.266   0.000  0.00  0.00     0.002 A 
ATOM     20  C   UNL d   1      -0.321   1.266   0.000  0.00  0.00     0.025 A 
BRANCH  18  21
ATOM     21  C   UNL d   1      -2.406   0.550   0.000  0.00  0.00     0.000 C 
ATOM     22  C   UNL d   1      -2.819   1.266   0.000  0.00  0.00     0.000 C 
ENDBRANCH  18  21
ENDBRANCH  14  15
ENDBRANCH  13  14
ENDBRANCH   1  13
TORSDOF 7
