REMARK  7 active torsions:
REMARK  status: ('A' for Active; 'I' for Inactive)
REMARK    1  A    between atoms: C_4  and  N_1 
REMARK    2  A    between atoms: O_2  and  C_10 
REMARK    3  A    between atoms: C_3  and  O_2 
REMARK    4  A    between atoms: C_9  and  C_4 
REMARK    5  A    between atoms: C_12  and  C_6 
REMARK    6  A    between atoms: C_7  and  C_12 
REMARK    7  A    between atoms: C_10  and  C_9 
ROOT
ATOM      1  O   UNL d   1      -0.432  -0.483   0.000  0.00  0.00    -0.302 OA
ENDROOT
BRANCH   1   2
ATOM      2  C   UNL d   1      -0.432  -1.309   0.000  0.00  0.00     0.166 C 
BRANCH   2   3
ATOM      3  C   UNL d   1       0.272  -1.728   0.000  0.00  0.00     0.238 C 
ATOM      4  O   UNL d   1       0.272  -2.538   0.000  0.00  0.00    -0.283 OA
BRANCH   3   5
ATOM      5  C   UNL d   1       0.983  -1.309   0.000  0.00  0.00     0.125 C 
BRANCH   5   6
ATOM      6  N   UNL d   1       0.983  -0.499   0.000  0.00  0.00    -0.296 N 
ATOM      7  C   UNL d   1       0.272  -0.080   0.000  0.00  0.00     0.107 A 
ATOM      8  C   UNL d   1       0.272   0.746   0.000  0.00  0.00     0.142 A 
ATOM      9  O   UNL d   1       0.983   1.149   0.000  0.00  0.00    -0.300 OA
ATOM     10  C   UNL d   1       1.683   0.746   0.000  0.00  0.00     0.142 A 
ATOM     11  C   UNL d   1       1.683  -0.080   0.000  0.00  0.00     0.107 A 
ENDBRANCH   5   6
ENDBRANCH   3   5
ENDBRANCH   2   3
ENDBRANCH   1   2
BRANCH   1  12
ATOM     12  C   UNL d   1      -1.152  -0.067   0.000  0.00  0.00     0.100 A 
ATOM     13  C   UNL d   1      -1.152   0.765   0.000  0.00  0.00     0.023 A 
ATOM     14  C   UNL d   1      -1.859   1.178   0.000  0.00  0.00     0.002 A 
ATOM     15  C   UNL d   1      -2.570   0.765   0.000  0.00  0.00     0.000 A 
ATOM     16  C   UNL d   1      -2.570  -0.067   0.000  0.00  0.00     0.002 A 
ATOM     17  C   UNL d   1      -1.859  -0.464   0.000  0.00  0.00     0.025 A 
BRANCH  13  18
ATOM     18  C   UNL d   1      -0.432   1.191   0.000  0.00  0.00     0.002 C 
BRANCH  18  19
ATOM     19  C   UNL d   1      -0.432   2.023   0.000  0.00  0.00     0.000 C 
ATOM     20  C   UNL d   1       0.272   2.420   0.000  0.00  0.00     0.000 C 
ENDBRANCH  18  19
ENDBRANCH  13  18
ENDBRANCH   1  12
TORSDOF 7
