REMARK  7 active torsions:
REMARK  status: ('A' for Active; 'I' for Inactive)
REMARK    1  A    between atoms: C_14  and  N_1 
REMARK    2  A    between atoms: C_2  and  C_5 
REMARK    3  A    between atoms: C_6  and  C_2 
REMARK    4  A    between atoms: C_7  and  C_3 
REMARK    5  A    between atoms: C_5  and  C_7 
REMARK    6  A    between atoms: O_15  and  C_6 
REMARK    7  A    between atoms: C_18  and  O_15 
ROOT
ATOM      1  C   UNL d   1      -1.482   1.238   0.000  0.00  0.00     0.132 C 
ATOM      2  C   UNL d   1      -1.907   0.539   0.000  0.00  0.00     0.106 C 
ATOM      3  N   UNL d   1      -2.316  -0.147   0.000  0.00  0.00    -0.191 NA
ENDROOT
BRANCH   1   4
ATOM      4  C   UNL d   1      -0.657   1.238   0.000  0.00  0.00     0.017 C 
BRANCH   4   5
ATOM      5  C   UNL d   1      -0.265   0.551   0.000  0.00  0.00     0.018 C 
BRANCH   5   6
ATOM      6  C   UNL d   1       0.555   0.551   0.000  0.00  0.00     0.064 A 
ATOM      7  N   UNL d   1       0.980  -0.176   0.000  0.00  0.00    -0.305 N 
ATOM      8  C   UNL d   1       1.813  -0.163   0.000  0.00  0.00     0.064 A 
ATOM      9  C   UNL d   1       2.222   0.551   0.000  0.00  0.00     0.016 A 
ATOM     10  C   UNL d   1       2.222  -0.882   0.000  0.00  0.00     0.018 A 
ATOM     11  C   UNL d   1       1.801   1.274   0.000  0.00  0.00     0.003 A 
ATOM     12  C   UNL d   1       3.043   0.551   0.000  0.00  0.00     0.001 A 
ATOM     13  C   UNL d   1       0.980   1.274   0.000  0.00  0.00     0.018 A 
ATOM     14  C   UNL d   1       3.467  -0.163   0.000  0.00  0.00     0.000 A 
ATOM     15  C   UNL d   1       3.043  -0.882   0.000  0.00  0.00     0.002 A 
BRANCH   7  16
ATOM     16  C   UNL d   1       0.576  -0.898   0.000  0.00  0.00     0.080 C 
ATOM     17  C   UNL d   1      -0.257  -0.898   0.000  0.00  0.00     0.021 C 
ENDBRANCH   7  16
ENDBRANCH   5   6
ENDBRANCH   4   5
ENDBRANCH   1   4
BRANCH   1  18
ATOM     18  C   UNL d   1      -1.895   1.924   0.000  0.00  0.00     0.310 C 
ATOM     19  O   UNL d   1      -1.503   2.618   0.000  0.00  0.00    -0.258 OA
BRANCH  18  20
ATOM     20  O   UNL d   1      -2.618   1.932   0.000  0.00  0.00    -0.271 OA
BRANCH  20  21
ATOM     21  C   UNL d   1      -3.083   1.188   0.000  0.00  0.00     0.126 C 
ATOM     22  C   UNL d   1      -3.917   1.188   0.000  0.00  0.00     0.029 C 
ENDBRANCH  20  21
ENDBRANCH  18  20
ENDBRANCH   1  18
TORSDOF 7
