REMARK  4 active torsions:
REMARK  status: ('A' for Active; 'I' for Inactive)
REMARK    1  A    between atoms: N_2  and  S_1 
REMARK    2  A    between atoms: C_8  and  S_1 
REMARK       I    between atoms: C_3  and  N_2 
REMARK    3  A    between atoms: C_11  and  N_2 
REMARK       I    between atoms: N_4  and  C_3 
REMARK       I    between atoms: C_5  and  N_4 
REMARK       I    between atoms: N_9  and  C_5 
REMARK    4  A    between atoms: C_13  and  N_9 
ROOT
ATOM      1  N   UNL d   1      -1.435  -0.594   0.000  0.00  0.00    -0.182 N 
ATOM      2  C   UNL d   1      -1.046   0.124   0.000  0.00  0.00     0.367 C 
ATOM      3  N   UNL d   1      -0.218   0.124   0.000  0.00  0.00    -0.135 NA
ATOM      4  C   UNL d   1       0.205   0.833   0.000  0.00  0.00     0.373 C 
ATOM      5  N   UNL d   1       1.029   0.833   0.000  0.00  0.00    -0.191 NA
ATOM      6  O   UNL d   1      -1.448   0.833   0.000  0.00  0.00    -0.243 OA
ATOM      7  O   UNL d   1      -0.239   1.559   0.000  0.00  0.00    -0.242 OA
ENDROOT
BRANCH   1   8
ATOM      8  S   UNL d   1      -2.276  -0.615   0.000  0.00  0.00     0.275 S 
ATOM      9  O   UNL d   1      -2.251  -1.435   0.000  0.00  0.00    -0.199 OA
ATOM     10  O   UNL d   1      -2.276   0.205   0.000  0.00  0.00    -0.199 OA
BRANCH   8  11
ATOM     11  C   UNL d   1      -3.096  -0.619   0.000  0.00  0.00     0.104 A 
ATOM     12  C   UNL d   1      -3.519   0.085   0.000  0.00  0.00     0.013 A 
ATOM     13  C   UNL d   1      -4.352   0.085   0.000  0.00  0.00     0.001 A 
ATOM     14  C   UNL d   1      -4.762  -0.619   0.000  0.00  0.00     0.000 A 
ATOM     15  C   UNL d   1      -4.339  -1.337   0.000  0.00  0.00     0.001 A 
ATOM     16  C   UNL d   1      -3.506  -1.337   0.000  0.00  0.00     0.013 A 
ENDBRANCH   8  11
ENDBRANCH   1   8
BRANCH   1  17
ATOM     17  C   UNL d   1      -0.995  -1.281   0.000  0.00  0.00     0.079 A 
ATOM     18  C   UNL d   1      -1.367  -2.003   0.000  0.00  0.00     0.018 A 
ATOM     19  C   UNL d   1      -0.922  -2.703   0.000  0.00  0.00     0.002 A 
ATOM     20  C   UNL d   1      -0.098  -2.669   0.000  0.00  0.00     0.000 A 
ATOM     21  C   UNL d   1       0.273  -1.935   0.000  0.00  0.00     0.002 A 
ATOM     22  C   UNL d   1      -0.175  -1.247   0.000  0.00  0.00     0.018 A 
ENDBRANCH   1  17
BRANCH   5  23
ATOM     23  C   UNL d   1       1.439   0.115   0.000  0.00  0.00     0.086 A 
ATOM     24  C   UNL d   1       1.029  -0.615   0.000  0.00  0.00     0.019 A 
ATOM     25  C   UNL d   1       1.439  -1.320   0.000  0.00  0.00     0.002 A 
ATOM     26  C   UNL d   1       2.272  -1.320   0.000  0.00  0.00     0.000 A 
ATOM     27  C   UNL d   1       2.695  -0.594   0.000  0.00  0.00     0.002 A 
ATOM     28  C   UNL d   1       2.601  -1.896   0.000  0.00  0.00     0.000 C 
ATOM     29  C   UNL d   1       2.259   0.115   0.000  0.00  0.00     0.019 A 
ENDBRANCH   5  23
TORSDOF 4
