REMARK  2 active torsions:
REMARK  status: ('A' for Active; 'I' for Inactive)
REMARK    1  A    between atoms: N_14  and  C_4 
REMARK    2  A    between atoms: C_9  and  C_5 
ROOT
ATOM      1  C   UNL d   1       2.122   1.038   0.000  0.00  0.00     0.060 A 
ATOM      2  C   UNL d   1       1.415   1.462   0.000  0.00  0.00     0.197 A 
ATOM      3  C   UNL d   1       2.122   0.212   0.000  0.00  0.00     0.043 A 
ATOM      4  C   UNL d   1       2.853   1.433   0.000  0.00  0.00     0.090 A 
ATOM      5  C   UNL d   1       3.561   1.008   0.000  0.00  0.00     0.082 A 
ATOM      6  C   UNL d   1       1.415  -0.212   0.000  0.00  0.00     0.196 A 
ATOM      7  C   UNL d   1       0.707   1.038   0.000  0.00  0.00     0.042 A 
ATOM      8  C   UNL d   1       0.707   0.212   0.000  0.00  0.00     0.042 A 
ATOM      9  C   UNL d   1       2.853  -0.212   0.000  0.00  0.00     0.004 A 
ATOM     10  C   UNL d   1       3.561   0.242   0.000  0.00  0.00     0.008 A 
ATOM     11  O   UNL d   1       1.438   2.281   0.000  0.00  0.00    -0.286 OA
ATOM     12  O   UNL d   1       1.438  -1.061   0.000  0.00  0.00    -0.287 OA
ATOM     13  C   UNL d   1      -0.029   1.462   0.000  0.00  0.00     0.003 A 
ATOM     14  C   UNL d   1      -0.029  -0.212   0.000  0.00  0.00     0.003 A 
ATOM     15  C   UNL d   1      -0.737   0.212   0.000  0.00  0.00     0.000 A 
ATOM     16  C   UNL d   1      -0.737   1.038   0.000  0.00  0.00     0.000 A 
ENDROOT
BRANCH   5  17
ATOM     17  C   UNL d   1       4.298   1.362   0.000  0.00  0.00     0.212 C 
ATOM     18  O   UNL d   1       4.386   2.187   0.000  0.00  0.00    -0.644 OA
ATOM     19  O   UNL d   1       4.993   0.920   0.000  0.00  0.00    -0.644 OA
ENDBRANCH   5  17
BRANCH   4  20
ATOM     20  N   UNL d   1       2.883   2.281   0.000  0.00  0.00    -0.242 NA
ATOM     21  C   UNL d   1       3.590   2.682   0.000  0.00  0.00     0.119 C 
ENDBRANCH   4  20
TORSDOF 2
