REMARK  4 active torsions:
REMARK  status: ('A' for Active; 'I' for Inactive)
REMARK    1  A    between atoms: C_7  and  N_1 
REMARK    2  A    between atoms: N_6  and  C_2 
REMARK    3  A    between atoms: C_10  and  N_6 
REMARK    4  A    between atoms: C_12  and  C_7 
ROOT
ATOM      1  N   UNL d   1      -1.957  -1.150   0.000  0.00  0.00    -0.239 N 
ATOM      2  C   UNL d   1      -0.627  -0.917   0.000  0.00  0.00     0.151 A 
ATOM      3  C   UNL d   1      -1.387  -0.531   0.000  0.00  0.00     0.285 A 
ATOM      4  C   UNL d   1      -1.532  -1.907   0.000  0.00  0.00     0.269 A 
ATOM      5  C   UNL d   1      -0.734  -1.731   0.000  0.00  0.00     0.086 A 
ATOM      6  O   UNL d   1      -1.464   0.149   0.000  0.00  0.00    -0.265 OA
ATOM      7  O   UNL d   1      -1.926  -2.446   0.000  0.00  0.00    -0.267 OA
ENDROOT
BRANCH   2   8
ATOM      8  N   UNL d   1       0.118  -0.550   0.000  0.00  0.00    -0.181 N 
ATOM      9  O   UNL d   1       0.004   0.195   0.000  0.00  0.00    -0.080 OA
BRANCH   8  10
ATOM     10  C   UNL d   1       0.806  -1.009   0.000  0.00  0.00     0.090 A 
ATOM     11  C   UNL d   1       0.768  -1.838   0.000  0.00  0.00     0.020 A 
ATOM     12  C   UNL d   1       1.468  -2.293   0.000  0.00  0.00     0.002 A 
ATOM     13  C   UNL d   1       2.216  -1.930   0.000  0.00  0.00     0.000 A 
ATOM     14  C   UNL d   1       2.251  -1.101   0.000  0.00  0.00     0.002 A 
ATOM     15  C   UNL d   1       1.559  -0.642   0.000  0.00  0.00     0.020 A 
ENDBRANCH   8  10
ENDBRANCH   2   8
BRANCH   1  16
ATOM     16  C   UNL d   1      -2.736  -1.150   0.000  0.00  0.00     0.086 C 
BRANCH  16  17
ATOM     17  C   UNL d   1      -3.149  -1.850   0.000  0.00  0.00     0.018 A 
ATOM     18  C   UNL d   1      -3.963  -1.838   0.000  0.00  0.00     0.002 A 
ATOM     19  C   UNL d   1      -4.376  -2.538   0.000  0.00  0.00     0.000 A 
ATOM     20  C   UNL d   1      -3.986  -3.244   0.000  0.00  0.00     0.000 A 
ATOM     21  C   UNL d   1      -3.160  -3.256   0.000  0.00  0.00     0.000 A 
ATOM     22  C   UNL d   1      -2.736  -2.549   0.000  0.00  0.00     0.002 A 
ENDBRANCH  16  17
ENDBRANCH   1  16
TORSDOF 4
