REMARK  6 active torsions:
REMARK  status: ('A' for Active; 'I' for Inactive)
REMARK    1  A    between atoms: N_4  and  C_1 
REMARK    2  A    between atoms: N_8  and  C_1 
REMARK       I    between atoms: C_2  and  N_3 
REMARK    3  A    between atoms: C_6  and  C_2 
REMARK    4  A    between atoms: N_3  and  N_4 
REMARK    5  A    between atoms: C_17  and  N_8 
REMARK    6  A    between atoms: C_11  and  C_17 
ROOT
ATOM      1  C   UNL d   1      -0.550  -1.311   0.000  0.00  0.00     0.297 C 
ATOM      2  N   UNL d   1       0.183  -0.901   0.000  0.00  0.00    -0.103 NA
ATOM      3  O   UNL d   1      -0.550  -2.129   0.000  0.00  0.00    -0.264 OA
ENDROOT
BRANCH   1   4
ATOM      4  C   UNL d   1      -1.271  -0.883   0.000  0.00  0.00     0.059 A 
ATOM      5  C   UNL d   1      -1.976  -1.295   0.000  0.00  0.00     0.005 A 
ATOM      6  C   UNL d   1      -2.691  -0.883   0.000  0.00  0.00     0.007 A 
ATOM      7  C   UNL d   1      -2.691  -0.064   0.000  0.00  0.00     0.035 A 
ATOM      8  C   UNL d   1      -1.976   0.363   0.000  0.00  0.00     0.007 A 
ATOM      9 BR   UNL d   1      -3.425   0.363   0.000  0.00  0.00    -0.049 Br
ATOM     10  C   UNL d   1      -1.271  -0.064   0.000  0.00  0.00     0.005 A 
ENDBRANCH   1   4
BRANCH   2  11
ATOM     11  N   UNL d   1       0.183  -0.064   0.000  0.00  0.00    -0.114 NA
BRANCH  11  12
ATOM     12  C   UNL d   1       0.883   0.345   0.000  0.00  0.00     0.241 C 
ATOM     13  S   UNL d   1       1.604  -0.064   0.000  0.00  0.00    -0.035 SA
BRANCH  12  14
ATOM     14  N   UNL d   1       0.883   1.182   0.000  0.00  0.00    -0.215 NA
BRANCH  14  15
ATOM     15  C   UNL d   1       1.604   1.592   0.000  0.00  0.00     0.102 C 
BRANCH  15  16
ATOM     16  C   UNL d   1       1.604   2.416   0.000  0.00  0.00     0.021 C 
ATOM     17  C   UNL d   1       2.309   2.829   0.000  0.00  0.00     0.002 C 
ENDBRANCH  15  16
ENDBRANCH  14  15
ENDBRANCH  12  14
ENDBRANCH  11  12
ENDBRANCH   2  11
TORSDOF 6
