REMARK  3 active torsions:
REMARK  status: ('A' for Active; 'I' for Inactive)
REMARK    1  A    between atoms: C_15  and  C_4 
REMARK    2  A    between atoms: C_8  and  S_16 
REMARK    3  A    between atoms: S_16  and  C_15 
ROOT
ATOM      1  N   UNL d   1      -2.018   1.157   0.000  0.00  0.00    -0.133 N 
ATOM      2  C   UNL d   1      -2.018   1.977   0.000  0.00  0.00     0.736 A 
ATOM      3  C   UNL d   1      -1.235   0.901   0.000  0.00  0.00     0.135 A 
ATOM      4  C   UNL d   1      -0.746   1.565   0.000  0.00  0.00     0.129 A 
ATOM      5  N   UNL d   1      -1.235   2.233   0.000  0.00  0.00    -0.058 NA
ATOM      6  C   UNL d   1      -2.723   0.746   0.000  0.00  0.00     0.084 A 
ATOM      7  N   UNL d   1      -2.723   2.393   0.000  0.00  0.00    -0.060 NA
ATOM      8  C   UNL d   1      -3.444   1.157   0.000  0.00  0.00     0.038 A 
ATOM      9  C   UNL d   1      -3.444   1.977   0.000  0.00  0.00     0.101 A 
ATOM     10 BR   UNL d   1      -0.962   0.098   0.000  0.00  0.00    -0.028 Br
ATOM     11  C   UNL d   1      -2.723  -0.090   0.000  0.00  0.00     0.020 C 
ATOM     12  C   UNL d   1      -4.190   2.368   0.000  0.00  0.00     0.021 C 
ENDROOT
BRANCH   4  13
ATOM     13  C   UNL d   1       0.077   1.549   0.000  0.00  0.00     0.059 C 
BRANCH  13  14
ATOM     14  S   UNL d   1       0.505   0.844   0.000  0.00  0.00    -0.059 SA
BRANCH  14  15
ATOM     15  C   UNL d   1       1.325   0.844   0.000  0.00  0.00     0.141 A 
ATOM     16  N   UNL d   1       1.895   0.240   0.000  0.00  0.00    -0.232 NA
ATOM     17  C   UNL d   1       2.621   0.571   0.000  0.00  0.00     0.088 A 
ATOM     18  C   UNL d   1       3.362   0.216   0.000  0.00  0.00     0.020 A 
ATOM     19  C   UNL d   1       2.560   1.369   0.000  0.00  0.00     0.049 A 
ATOM     20  C   UNL d   1       4.047   0.685   0.000  0.00  0.00     0.002 A 
ATOM     21  C   UNL d   1       3.990   1.488   0.000  0.00  0.00     0.001 A 
ATOM     22  C   UNL d   1       3.244   1.842   0.000  0.00  0.00     0.008 A 
ATOM     23  S   UNL d   1       1.740   1.549   0.000  0.00  0.00    -0.060 SA
ENDBRANCH  14  15
ENDBRANCH  13  14
ENDBRANCH   4  13
TORSDOF 3
