REMARK  9 active torsions:
REMARK  status: ('A' for Active; 'I' for Inactive)
REMARK    1  A    between atoms: C_8  and  S_1 
REMARK    2  A    between atoms: C_2  and  N_3 
REMARK    3  A    between atoms: N_4  and  C_2 
REMARK    4  A    between atoms: C_6  and  C_2 
REMARK    5  A    between atoms: N_3  and  C_5 
REMARK       I    between atoms: C_7  and  N_4 
REMARK    6  A    between atoms: C_5  and  N_9 
REMARK    7  A    between atoms: C_13  and  C_7 
REMARK    8  A    between atoms: N_9  and  C_23 
REMARK    9  A    between atoms: O_29  and  C_24 
ROOT
ATOM      1  C   UNL d   1       0.788   1.634   0.000  0.00  0.00     0.238 C 
ENDROOT
BRANCH   1   2
ATOM      2  N   UNL d   1      -0.042   1.542   0.000  0.00  0.00    -0.188 NA
BRANCH   2   3
ATOM      3  C   UNL d   1      -0.704   2.038   0.000  0.00  0.00     0.223 C 
ATOM      4  S   UNL d   1      -0.619   2.826   0.000  0.00  0.00    -0.037 SA
BRANCH   3   5
ATOM      5  N   UNL d   1      -1.442   1.680   0.000  0.00  0.00    -0.217 NA
BRANCH   5   6
ATOM      6  C   UNL d   1      -1.522   0.861   0.000  0.00  0.00     0.084 A 
ATOM      7  C   UNL d   1      -0.873   0.365   0.000  0.00  0.00     0.020 A 
ATOM      8  C   UNL d   1      -0.942  -0.450   0.000  0.00  0.00     0.015 A 
ATOM      9  C   UNL d   1      -1.692  -0.784   0.000  0.00  0.00     0.107 A 
ATOM     10  C   UNL d   1      -2.372  -0.311   0.000  0.00  0.00     0.015 A 
ATOM     11  C   UNL d   1      -2.272   0.507   0.000  0.00  0.00     0.020 A 
BRANCH   9  12
ATOM     12  S   UNL d   1      -1.772  -1.619   0.000  0.00  0.00     0.302 S 
ATOM     13  O   UNL d   1      -2.595  -1.538   0.000  0.00  0.00    -0.197 OA
ATOM     14  O   UNL d   1      -0.942  -1.688   0.000  0.00  0.00    -0.197 OA
ATOM     15  N   UNL d   1      -1.845  -2.445   0.000  0.00  0.00    -0.043 N 
ENDBRANCH   9  12
ENDBRANCH   5   6
ENDBRANCH   3   5
ENDBRANCH   2   3
ENDBRANCH   1   2
BRANCH   1  16
ATOM     16  N   UNL d   1       1.157   1.119   0.000  0.00  0.00    -0.346 NA
ATOM     17  C   UNL d   1       1.757   0.527   0.000  0.00  0.00     0.329 C 
ATOM     18  O   UNL d   1       2.572   0.769   0.000  0.00  0.00    -0.251 OA
BRANCH  17  19
ATOM     19  C   UNL d   1       1.538  -0.246   0.000  0.00  0.00     0.071 A 
ATOM     20  C   UNL d   1       2.168  -0.857   0.000  0.00  0.00     0.008 A 
ATOM     21  C   UNL d   1       1.965  -1.665   0.000  0.00  0.00     0.024 A 
ATOM     22  C   UNL d   1       1.157  -1.892   0.000  0.00  0.00     0.094 A 
ATOM     23  C   UNL d   1       0.600  -1.296   0.000  0.00  0.00     0.024 A 
ATOM     24  C   UNL d   1       0.784  -0.477   0.000  0.00  0.00     0.008 A 
BRANCH  22  25
ATOM     25  O   UNL d   1       0.984  -2.711   0.000  0.00  0.00    -0.328 OA
ATOM     26  C   UNL d   1       0.188  -2.980   0.000  0.00  0.00     0.181 C 
ENDBRANCH  22  25
ENDBRANCH  17  19
ENDBRANCH   1  16
BRANCH   1  27
ATOM     27  C   UNL d   1       1.111   2.384   0.000  0.00  0.00     0.262 C 
ATOM     28 CL   UNL d   1       1.430   3.137   0.000  0.00  0.00    -0.074 Cl
ATOM     29 CL   UNL d   1       1.892   2.049   0.000  0.00  0.00    -0.074 Cl
ATOM     30 CL   UNL d   1       0.350   2.707   0.000  0.00  0.00    -0.074 Cl
ENDBRANCH   1  27
TORSDOF 9
