REMARK  4 active torsions:
REMARK  status: ('A' for Active; 'I' for Inactive)
REMARK    1  A    between atoms: C_7  and  C_1 
REMARK    2  A    between atoms: C_9  and  C_3 
REMARK    3  A    between atoms: O_13  and  C_7 
REMARK    4  A    between atoms: C_18  and  O_13 
ROOT
ATOM      1  C   UNL d   1      -0.501  -0.725   0.000  0.00  0.00     0.099 A 
ATOM      2  C   UNL d   1      -0.501  -1.536   0.000  0.00  0.00     0.093 A 
ATOM      3  C   UNL d   1      -1.233  -0.305   0.000  0.00  0.00     0.093 A 
ATOM      4  C   UNL d   1      -1.935  -1.536   0.000  0.00  0.00     0.369 A 
ATOM      5  N   UNL d   1      -1.233  -1.955   0.000  0.00  0.00    -0.191 NA
ATOM      6  N   UNL d   1      -1.935  -0.704   0.000  0.00  0.00    -0.191 NA
ATOM      7  O   UNL d   1      -2.652  -1.970   0.000  0.00  0.00    -0.242 OA
ATOM      8  C   UNL d   1       0.206  -1.955   0.000  0.00  0.00     0.021 C 
ENDROOT
BRANCH   3   9
ATOM      9  C   UNL d   1      -1.233   0.531   0.000  0.00  0.00     0.018 A 
ATOM     10  C   UNL d   1      -0.501   0.946   0.000  0.00  0.00     0.002 A 
ATOM     11  C   UNL d   1      -0.501   1.767   0.000  0.00  0.00     0.000 A 
ATOM     12  C   UNL d   1      -1.233   2.179   0.000  0.00  0.00     0.000 A 
ATOM     13  C   UNL d   1      -1.935   1.767   0.000  0.00  0.00     0.000 A 
ATOM     14  C   UNL d   1      -1.935   0.935   0.000  0.00  0.00     0.002 A 
ENDBRANCH   3   9
BRANCH   1  15
ATOM     15  C   UNL d   1       0.224  -0.305   0.000  0.00  0.00     0.303 C 
ATOM     16  O   UNL d   1       0.236   0.519   0.000  0.00  0.00    -0.259 OA
BRANCH  15  17
ATOM     17  O   UNL d   1       0.918  -0.725   0.000  0.00  0.00    -0.271 OA
BRANCH  17  18
ATOM     18  C   UNL d   1       1.640  -0.323   0.000  0.00  0.00     0.126 C 
ATOM     19  C   UNL d   1       2.336  -0.735   0.000  0.00  0.00     0.029 C 
ENDBRANCH  17  18
ENDBRANCH  15  17
ENDBRANCH   1  15
TORSDOF 4
