REMARK  3 active torsions:
REMARK  status: ('A' for Active; 'I' for Inactive)
REMARK    1  A    between atoms: C_10  and  C_5 
REMARK    2  A    between atoms: S_9  and  C_10 
REMARK    3  A    between atoms: C_11  and  S_9 
ROOT
ATOM      1  C   UNL d   1      -2.012   1.903   0.000  0.00  0.00     0.179 A 
ATOM      2  N   UNL d   1      -2.012   1.081   0.000  0.00  0.00    -0.283 N 
ATOM      3  N   UNL d   1      -1.235   2.150   0.000  0.00  0.00    -0.220 NA
ATOM      4  S   UNL d   1      -2.789   2.150   0.000  0.00  0.00    -0.048 SA
ATOM      5  C   UNL d   1      -0.749   1.490   0.000  0.00  0.00     0.107 A 
ATOM      6  C   UNL d   1      -1.235   0.826   0.000  0.00  0.00     0.102 A 
ATOM      7  C   UNL d   1      -2.789   0.826   0.000  0.00  0.00     0.073 A 
ATOM      8  C   UNL d   1      -3.255   1.490   0.000  0.00  0.00     0.056 A 
ATOM      9  C   UNL d   1      -3.044   0.032   0.000  0.00  0.00     0.020 C 
ENDROOT
BRANCH   5  10
ATOM     10  C   UNL d   1       0.085   1.506   0.000  0.00  0.00     0.056 C 
BRANCH  10  11
ATOM     11  S   UNL d   1       0.490   0.789   0.000  0.00  0.00    -0.085 SA
BRANCH  11  12
ATOM     12  C   UNL d   1       1.312   0.789   0.000  0.00  0.00     0.030 A 
ATOM     13  C   UNL d   1       1.737   1.506   0.000  0.00  0.00     0.007 A 
ATOM     14  C   UNL d   1       2.555   1.506   0.000  0.00  0.00     0.012 A 
ATOM     15  C   UNL d   1       2.963   0.789   0.000  0.00  0.00     0.058 A 
ATOM     16  C   UNL d   1       2.555   0.069   0.000  0.00  0.00     0.012 A 
ATOM     17 CL   UNL d   1       3.777   0.773   0.000  0.00  0.00    -0.082 Cl
ATOM     18  C   UNL d   1       1.716   0.069   0.000  0.00  0.00     0.007 A 
ENDBRANCH  11  12
ENDBRANCH  10  11
ENDBRANCH   5  10
TORSDOF 3
