REMARK  3 active torsions:
REMARK  status: ('A' for Active; 'I' for Inactive)
REMARK    1  A    between atoms: C_7  and  C_1 
REMARK    2  A    between atoms: O_14  and  C_7 
REMARK    3  A    between atoms: C_17  and  O_14 
ROOT
ATOM      1  C   UNL d   1       0.652   2.200   0.000  0.00  0.00     0.127 A 
ATOM      2  C   UNL d   1       0.652   1.381   0.000  0.00  0.00     0.305 A 
ATOM      3  C   UNL d   1      -0.064   2.609   0.000  0.00  0.00     0.013 A 
ATOM      4  C   UNL d   1      -0.780   2.200   0.000  0.00  0.00     0.023 A 
ATOM      5  O   UNL d   1      -0.064   0.972   0.000  0.00  0.00    -0.273 OA
ATOM      6  C   UNL d   1      -0.780   1.381   0.000  0.00  0.00     0.103 A 
ATOM      7  C   UNL d   1      -1.480   2.609   0.000  0.00  0.00     0.002 A 
ATOM      8  O   UNL d   1       1.386   0.972   0.000  0.00  0.00    -0.259 OA
ATOM      9  C   UNL d   1      -1.480   0.972   0.000  0.00  0.00     0.025 A 
ATOM     10  C   UNL d   1      -2.196   2.200   0.000  0.00  0.00     0.000 A 
ATOM     11  C   UNL d   1      -2.196   1.381   0.000  0.00  0.00     0.002 A 
ATOM     12  C   UNL d   1      -1.480   3.437   0.000  0.00  0.00     0.000 A 
ATOM     13  C   UNL d   1      -2.912   2.609   0.000  0.00  0.00     0.000 A 
ATOM     14  C   UNL d   1      -2.183   3.859   0.000  0.00  0.00     0.000 A 
ATOM     15  C   UNL d   1      -2.912   3.441   0.000  0.00  0.00     0.000 A 
ENDROOT
BRANCH   1  16
ATOM     16  C   UNL d   1       1.386   2.631   0.000  0.00  0.00     0.305 C 
ATOM     17  O   UNL d   1       1.386   3.449   0.000  0.00  0.00    -0.259 OA
BRANCH  16  18
ATOM     18  O   UNL d   1       2.085   2.221   0.000  0.00  0.00    -0.271 OA
BRANCH  18  19
ATOM     19  C   UNL d   1       2.801   2.631   0.000  0.00  0.00     0.126 C 
ATOM     20  C   UNL d   1       3.582   2.221   0.000  0.00  0.00     0.029 C 
ENDBRANCH  18  19
ENDBRANCH  16  18
ENDBRANCH   1  16
TORSDOF 3
