REMARK  4 active torsions:
REMARK  status: ('A' for Active; 'I' for Inactive)
REMARK    1  A    between atoms: C_2  and  C_1 
REMARK    2  A    between atoms: N_8  and  C_3 
REMARK    3  A    between atoms: C_15  and  N_8 
REMARK    4  A    between atoms: O_18  and  C_16 
ROOT
ATOM      1  C   UNL d   1      -0.802   2.630   0.000  0.00  0.00     0.077 A 
ATOM      2  C   UNL d   1      -0.802   1.805   0.000  0.00  0.00     0.185 A 
ATOM      3  C   UNL d   1      -1.512   3.042   0.000  0.00  0.00     0.009 A 
ATOM      4  O   UNL d   1      -1.512   1.392   0.000  0.00  0.00    -0.289 OA
ATOM      5  C   UNL d   1      -2.229   2.630   0.000  0.00  0.00     0.025 A 
ATOM      6  C   UNL d   1      -2.229   1.805   0.000  0.00  0.00     0.102 A 
ATOM      7  C   UNL d   1      -2.916   3.042   0.000  0.00  0.00     0.026 A 
ATOM      8  C   UNL d   1      -2.916   1.392   0.000  0.00  0.00     0.027 A 
ATOM      9  C   UNL d   1      -3.638   2.630   0.000  0.00  0.00     0.094 A 
ATOM     10  C   UNL d   1      -3.638   1.805   0.000  0.00  0.00     0.026 A 
ENDROOT
BRANCH   1  11
ATOM     11  C   UNL d   1      -0.097   3.036   0.000  0.00  0.00     0.166 A 
ATOM     12  N   UNL d   1      -0.029   3.827   0.000  0.00  0.00    -0.225 NA
ATOM     13  C   UNL d   1       0.739   4.033   0.000  0.00  0.00     0.101 A 
ATOM     14  C   UNL d   1       1.152   4.755   0.000  0.00  0.00     0.021 A 
ATOM     15  C   UNL d   1       1.169   3.317   0.000  0.00  0.00     0.101 A 
ATOM     16  C   UNL d   1       1.994   4.738   0.000  0.00  0.00     0.002 A 
ATOM     17  C   UNL d   1       2.412   4.016   0.000  0.00  0.00     0.002 A 
ATOM     18  C   UNL d   1       2.034   3.329   0.000  0.00  0.00     0.021 A 
ATOM     19  N   UNL d   1       0.619   2.693   0.000  0.00  0.00    -0.225 NA
ENDBRANCH   1  11
BRANCH   2  20
ATOM     20  N   UNL d   1      -0.086   1.392   0.000  0.00  0.00    -0.222 NA
BRANCH  20  21
ATOM     21  C   UNL d   1      -0.086   0.579   0.000  0.00  0.00     0.084 A 
ATOM     22  C   UNL d   1       0.625   0.183   0.000  0.00  0.00     0.019 A 
ATOM     23  C   UNL d   1       0.625  -0.625   0.000  0.00  0.00     0.002 A 
ATOM     24  C   UNL d   1      -0.069  -1.054   0.000  0.00  0.00     0.000 A 
ATOM     25  C   UNL d   1      -0.773  -0.642   0.000  0.00  0.00     0.002 A 
ATOM     26  C   UNL d   1      -0.785   0.183   0.000  0.00  0.00     0.019 A 
ENDBRANCH  20  21
ENDBRANCH   2  20
BRANCH   9  27
ATOM     27  O   UNL d   1      -4.331   3.036   0.000  0.00  0.00    -0.328 OA
ATOM     28  C   UNL d   1      -4.331   3.827   0.000  0.00  0.00     0.181 C 
ENDBRANCH   9  27
TORSDOF 4
