REMARK  1 active torsions:
REMARK  status: ('A' for Active; 'I' for Inactive)
REMARK    1  A    between atoms: C_7  and  C_1 
ROOT
ATOM      1  C   UNL d   1       2.167   1.315   0.000  0.00  0.00     0.102 A 
ATOM      2  C   UNL d   1       2.167   0.503   0.000  0.00  0.00     0.303 A 
ATOM      3  C   UNL d   1       1.449   1.728   0.000  0.00  0.00     0.011 A 
ATOM      4  O   UNL d   1       1.449   0.090   0.000  0.00  0.00    -0.273 OA
ATOM      5  C   UNL d   1       0.734   0.503   0.000  0.00  0.00     0.106 A 
ATOM      6  C   UNL d   1       0.734   1.315   0.000  0.00  0.00     0.023 A 
ATOM      7  C   UNL d   1       0.016   0.090   0.000  0.00  0.00     0.067 A 
ATOM      8  O   UNL d   1       2.878   0.090   0.000  0.00  0.00    -0.259 OA
ATOM      9  C   UNL d   1       0.016   1.728   0.000  0.00  0.00     0.005 A 
ATOM     10  C   UNL d   1      -0.703   0.503   0.000  0.00  0.00     0.198 A 
ATOM     11  C   UNL d   1      -0.703   1.315   0.000  0.00  0.00     0.042 A 
ATOM     12  O   UNL d   1      -1.461   0.173   0.000  0.00  0.00    -0.286 OA
ENDROOT
BRANCH   1  13
ATOM     13  C   UNL d   1       2.878   1.728   0.000  0.00  0.00     0.201 C 
ATOM     14  O   UNL d   1       2.878   2.556   0.000  0.00  0.00    -0.286 OA
ATOM     15  C   UNL d   1       3.581   1.331   0.000  0.00  0.00     0.045 C 
ENDBRANCH   1  13
TORSDOF 1
