REMARK  4 active torsions:
REMARK  status: ('A' for Active; 'I' for Inactive)
REMARK    1  A    between atoms: C_8  and  C_1 
REMARK    2  A    between atoms: N_11  and  C_9 
REMARK    3  A    between atoms: C_15  and  N_11 
REMARK    4  A    between atoms: C_16  and  N_11 
ROOT
ATOM      1  C   UNL d   1       0.976  -0.486   0.000  0.00  0.00     0.102 A 
ATOM      2  C   UNL d   1       0.976  -1.324   0.000  0.00  0.00     0.303 A 
ATOM      3  C   UNL d   1       0.253  -0.087   0.000  0.00  0.00     0.011 A 
ATOM      4  O   UNL d   1       0.253  -1.723   0.000  0.00  0.00    -0.273 OA
ATOM      5  C   UNL d   1      -0.461  -1.324   0.000  0.00  0.00     0.105 A 
ATOM      6  C   UNL d   1      -0.461  -0.486   0.000  0.00  0.00     0.023 A 
ATOM      7  C   UNL d   1      -1.158  -1.723   0.000  0.00  0.00     0.042 A 
ATOM      8  C   UNL d   1      -1.876  -1.324   0.000  0.00  0.00     0.066 A 
ATOM      9  O   UNL d   1       1.694  -1.744   0.000  0.00  0.00    -0.259 OA
ATOM     10  C   UNL d   1      -1.158  -0.087   0.000  0.00  0.00     0.004 A 
ATOM     11  C   UNL d   1      -1.876  -0.486   0.000  0.00  0.00     0.018 A 
ENDROOT
BRANCH   8  12
ATOM     12  N   UNL d   1      -2.591  -1.744   0.000  0.00  0.00    -0.304 N 
BRANCH  12  13
ATOM     13  C   UNL d   1      -3.309  -1.324   0.000  0.00  0.00     0.080 C 
ATOM     14  C   UNL d   1      -4.031  -1.744   0.000  0.00  0.00     0.021 C 
ENDBRANCH  12  13
BRANCH  12  15
ATOM     15  C   UNL d   1      -2.591  -2.557   0.000  0.00  0.00     0.080 C 
ATOM     16  C   UNL d   1      -1.901  -2.977   0.000  0.00  0.00     0.021 C 
ENDBRANCH  12  15
ENDBRANCH   8  12
BRANCH   1  17
ATOM     17  C   UNL d   1       1.694  -0.067   0.000  0.00  0.00     0.201 C 
ATOM     18  O   UNL d   1       1.694   0.768   0.000  0.00  0.00    -0.286 OA
ATOM     19  C   UNL d   1       2.408  -0.486   0.000  0.00  0.00     0.045 C 
ENDBRANCH   1  17
TORSDOF 4
