REMARK  9 active torsions:
REMARK  status: ('A' for Active; 'I' for Inactive)
REMARK    1  A    between atoms: P_4  and  C_1 
REMARK    2  A    between atoms: N_7  and  C_3 
REMARK    3  A    between atoms: O_10  and  P_4 
REMARK    4  A    between atoms: O_11  and  P_4 
REMARK    5  A    between atoms: C_8  and  C_5 
REMARK    6  A    between atoms: C_14  and  N_7 
REMARK    7  A    between atoms: C_21  and  O_10 
REMARK    8  A    between atoms: C_20  and  O_11 
REMARK    9  A    between atoms: C_19  and  C_14 
ROOT
ATOM      1  C   UNL d   1       0.557   0.247   0.000  0.00  0.00     0.205 A 
ATOM      2  N   UNL d   1       1.366   0.371   0.000  0.00  0.00    -0.211 NA
ATOM      3  C   UNL d   1       0.407  -0.562   0.000  0.00  0.00     0.209 A 
ATOM      4  C   UNL d   1       1.717  -0.345   0.000  0.00  0.00     0.184 A 
ATOM      5  O   UNL d   1       1.150  -0.933   0.000  0.00  0.00    -0.270 OA
ENDROOT
BRANCH   1   6
ATOM      6  P   UNL d   1      -0.041   0.846   0.000  0.00  0.00     0.395 P 
ATOM      7  O   UNL d   1      -0.634   0.273   0.000  0.00  0.00    -0.251 OA
BRANCH   6   8
ATOM      8  O   UNL d   1      -0.614   1.438   0.000  0.00  0.00    -0.263 OA
BRANCH   8   9
ATOM      9  C   UNL d   1      -1.402   1.263   0.000  0.00  0.00     0.126 C 
ATOM     10  C   UNL d   1      -1.944   1.856   0.000  0.00  0.00     0.029 C 
ENDBRANCH   8   9
ENDBRANCH   6   8
BRANCH   6  11
ATOM     11  O   UNL d   1       0.578   1.418   0.000  0.00  0.00    -0.263 OA
BRANCH  11  12
ATOM     12  C   UNL d   1       0.376   2.207   0.000  0.00  0.00     0.126 C 
ATOM     13  C   UNL d   1       0.995   2.748   0.000  0.00  0.00     0.029 C 
ENDBRANCH  11  12
ENDBRANCH   6  11
ENDBRANCH   1   6
BRANCH   3  14
ATOM     14  N   UNL d   1      -0.387  -0.840   0.000  0.00  0.00    -0.219 NA
BRANCH  14  15
ATOM     15  C   UNL d   1      -0.536  -1.655   0.000  0.00  0.00     0.101 C 
BRANCH  15  16
ATOM     16  C   UNL d   1       0.098  -2.186   0.000  0.00  0.00     0.019 A 
ATOM     17  C   UNL d   1      -0.041  -3.016   0.000  0.00  0.00     0.002 A 
ATOM     18  C   UNL d   1       0.593  -3.532   0.000  0.00  0.00     0.000 A 
ATOM     19  C   UNL d   1       1.382  -3.253   0.000  0.00  0.00     0.000 A 
ATOM     20  C   UNL d   1       1.521  -2.413   0.000  0.00  0.00     0.000 A 
ATOM     21  C   UNL d   1       0.866  -1.903   0.000  0.00  0.00     0.002 A 
ENDBRANCH  15  16
ENDBRANCH  14  15
ENDBRANCH   3  14
BRANCH   4  22
ATOM     22  C   UNL d   1       2.537  -0.438   0.000  0.00  0.00     0.042 A 
ATOM     23  C   UNL d   1       2.882  -1.181   0.000  0.00  0.00     0.006 A 
ATOM     24  C   UNL d   1       3.697  -1.258   0.000  0.00  0.00     0.030 A 
ATOM     25  C   UNL d   1       4.192  -0.593   0.000  0.00  0.00     0.140 A 
ATOM     26  C   UNL d   1       3.841   0.180   0.000  0.00  0.00     0.030 A 
ATOM     27  F   UNL d   1       5.011  -0.639   0.000  0.00  0.00    -0.204 F 
ATOM     28  C   UNL d   1       3.021   0.247   0.000  0.00  0.00     0.006 A 
ENDBRANCH   4  22
TORSDOF 9
