REMARK  1 active torsions:
REMARK  status: ('A' for Active; 'I' for Inactive)
REMARK    1  A    between atoms: C_14  and  C_6 
ROOT
ATOM      1  C   UNL d   1      -1.528   0.272   0.000  0.00  0.00     0.174 A 
ATOM      2  N   UNL d   1      -0.809  -0.133   0.000  0.00  0.00    -0.250 N 
ATOM      3  C   UNL d   1      -2.252  -0.133   0.000  0.00  0.00     0.061 A 
ATOM      4  C   UNL d   1      -2.252  -0.958   0.000  0.00  0.00     0.115 A 
ATOM      5  N   UNL d   1      -1.528  -1.347   0.000  0.00  0.00    -0.221 NA
ATOM      6  C   UNL d   1      -0.809  -0.958   0.000  0.00  0.00     0.151 A 
ATOM      7  N   UNL d   1      -1.341   1.128   0.000  0.00  0.00    -0.128 NA
ATOM      8  C   UNL d   1      -0.144   0.442   0.000  0.00  0.00     0.228 A 
ATOM      9  S   UNL d   1      -2.965  -1.347   0.000  0.00  0.00    -0.068 SA
ATOM     10  C   UNL d   1      -3.667  -0.133   0.000  0.00  0.00     0.011 A 
ATOM     11  C   UNL d   1      -3.667  -0.958   0.000  0.00  0.00     0.031 A 
ATOM     12  N   UNL d   1      -0.511   1.214   0.000  0.00  0.00    -0.117 NA
ATOM     13  S   UNL d   1       0.559   0.208   0.000  0.00  0.00    -0.036 SA
ATOM     14  C   UNL d   1      -4.402   0.272   0.000  0.00  0.00     0.001 A 
ATOM     15  C   UNL d   1      -4.402  -1.347   0.000  0.00  0.00     0.006 A 
ATOM     16  C   UNL d   1      -5.110  -0.133   0.000  0.00  0.00     0.000 A 
ATOM     17  C   UNL d   1      -5.110  -0.958   0.000  0.00  0.00     0.001 A 
ENDROOT
BRANCH   6  18
ATOM     18  C   UNL d   1      -0.250  -1.315   0.000  0.00  0.00     0.037 C 
ATOM     19  C   UNL d   1      -0.128  -1.964   0.000  0.00  0.00     0.003 C 
ENDBRANCH   6  18
TORSDOF 1
