REMARK  4 active torsions:
REMARK  status: ('A' for Active; 'I' for Inactive)
REMARK       I    between atoms: C_5  and  N_1 
REMARK    1  A    between atoms: N_3  and  C_8 
REMARK    2  A    between atoms: C_7  and  C_5 
REMARK    3  A    between atoms: C_11  and  C_7 
REMARK    4  A    between atoms: C_15  and  C_11 
ROOT
ATOM      1  N   UNL d   1       0.350   0.508   0.000  0.00  0.00    -0.256 N 
ATOM      2  C   UNL d   1       0.004   1.264   0.000  0.00  0.00     0.185 A 
ATOM      3  N   UNL d   1       0.621   1.790   0.000  0.00  0.00    -0.224 NA
ATOM      4  C   UNL d   1      -0.056  -0.226   0.000  0.00  0.00     0.266 C 
ATOM      5  C   UNL d   1       1.162   0.606   0.000  0.00  0.00     0.086 A 
ATOM      6  C   UNL d   1       1.335   1.399   0.000  0.00  0.00     0.099 A 
ATOM      7  O   UNL d   1       0.361  -0.952   0.000  0.00  0.00    -0.267 OA
ATOM      8  C   UNL d   1       1.775   0.045   0.000  0.00  0.00     0.019 A 
ATOM      9  C   UNL d   1       2.110   1.655   0.000  0.00  0.00     0.021 A 
ATOM     10  C   UNL d   1       2.573   0.290   0.000  0.00  0.00     0.002 A 
ATOM     11  C   UNL d   1       2.753   1.125   0.000  0.00  0.00     0.002 A 
ENDROOT
BRANCH   4  12
ATOM     12  C   UNL d   1      -0.876  -0.241   0.000  0.00  0.00     0.061 C 
BRANCH  12  13
ATOM     13  C   UNL d   1      -1.294   0.470   0.000  0.00  0.00     0.005 C 
BRANCH  13  14
ATOM     14  C   UNL d   1      -2.118   0.451   0.000  0.00  0.00     0.002 A 
ATOM     15  C   UNL d   1      -2.546   1.173   0.000  0.00  0.00     0.024 A 
ATOM     16  C   UNL d   1      -3.359   1.159   0.000  0.00  0.00     0.127 A 
ATOM     17  C   UNL d   1      -3.765   0.436   0.000  0.00  0.00     0.024 A 
ATOM     18  C   UNL d   1      -3.340  -0.271   0.000  0.00  0.00     0.002 A 
ATOM     19  C   UNL d   1      -2.513  -0.271   0.000  0.00  0.00     0.000 A 
BRANCH  16  20
ATOM     20  N   UNL d   1      -3.810   1.847   0.000  0.00  0.00    -0.114 N 
ATOM     21  O   UNL d   1      -3.430   2.591   0.000  0.00  0.00    -0.532 OA
ATOM     22  O   UNL d   1      -4.623   1.806   0.000  0.00  0.00    -0.532 OA
ENDBRANCH  16  20
ENDBRANCH  13  14
ENDBRANCH  12  13
ENDBRANCH   4  12
TORSDOF 4
