REMARK  5 active torsions:
REMARK  status: ('A' for Active; 'I' for Inactive)
REMARK    1  A    between atoms: C_2  and  C_1 
REMARK    2  A    between atoms: C_3  and  C_1 
REMARK    3  A    between atoms: C_4  and  C_2 
REMARK    4  A    between atoms: O_9  and  C_6 
REMARK    5  A    between atoms: O_10  and  C_7 
ROOT
ATOM      1  C   UNL d   1      -1.943  -0.146   0.000  0.00  0.00     0.236 C 
ATOM      2  O   UNL d   1      -2.155  -0.936   0.000  0.00  0.00    -0.283 OA
ENDROOT
BRANCH   1   3
ATOM      3  C   UNL d   1      -1.153   0.094   0.000  0.00  0.00     0.236 C 
ATOM      4  O   UNL d   1      -0.955   0.884   0.000  0.00  0.00    -0.283 OA
BRANCH   3   5
ATOM      5  C   UNL d   1      -0.546  -0.485   0.000  0.00  0.00     0.065 A 
ATOM      6  C   UNL d   1       0.231  -0.282   0.000  0.00  0.00     0.097 A 
ATOM      7  C   UNL d   1       0.823  -0.866   0.000  0.00  0.00     0.024 A 
ATOM      8  C   UNL d   1       0.598  -1.656   0.000  0.00  0.00     0.002 A 
ATOM      9  C   UNL d   1      -0.183  -1.863   0.000  0.00  0.00     0.000 A 
ATOM     10  C   UNL d   1      -0.771  -1.275   0.000  0.00  0.00     0.005 A 
BRANCH   6  11
ATOM     11  O   UNL d   1       0.456   0.522   0.000  0.00  0.00    -0.328 OA
ATOM     12  C   UNL d   1       1.162   0.729   0.000  0.00  0.00     0.181 C 
ENDBRANCH   6  11
ENDBRANCH   3   5
ENDBRANCH   1   3
BRANCH   1  13
ATOM     13  C   UNL d   1      -2.535   0.433   0.000  0.00  0.00     0.065 A 
ATOM     14  C   UNL d   1      -3.326   0.207   0.000  0.00  0.00     0.097 A 
ATOM     15  C   UNL d   1      -3.909   0.790   0.000  0.00  0.00     0.024 A 
ATOM     16  C   UNL d   1      -3.707   1.581   0.000  0.00  0.00     0.002 A 
ATOM     17  C   UNL d   1      -2.935   1.806   0.000  0.00  0.00     0.000 A 
ATOM     18  C   UNL d   1      -2.329   1.242   0.000  0.00  0.00     0.005 A 
BRANCH  14  19
ATOM     19  O   UNL d   1      -3.552  -0.621   0.000  0.00  0.00    -0.328 OA
ATOM     20  C   UNL d   1      -4.342  -0.866   0.000  0.00  0.00     0.181 C 
ENDBRANCH  14  19
ENDBRANCH   1  13
TORSDOF 5
