REMARK  4 active torsions:
REMARK  status: ('A' for Active; 'I' for Inactive)
REMARK    1  A    between atoms: N_3  and  C_1 
REMARK    2  A    between atoms: C_2  and  S_10 
REMARK    3  A    between atoms: N_5  and  C_9 
REMARK    4  A    between atoms: S_10  and  C_8 
ROOT
ATOM      1  C   UNL d   1       1.212   0.892   0.000  0.00  0.00     0.134 A 
ATOM      2  C   UNL d   1       1.943   0.498   0.000  0.00  0.00     0.048 A 
ATOM      3  C   UNL d   1       0.498   0.461   0.000  0.00  0.00     0.055 A 
ATOM      4  C   UNL d   1       1.980  -0.336   0.000  0.00  0.00     0.128 A 
ATOM      5  C   UNL d   1       0.527  -0.353   0.000  0.00  0.00     0.010 A 
ATOM      6  C   UNL d   1       1.250  -0.751   0.000  0.00  0.00     0.024 A 
ENDROOT
BRANCH   3   7
ATOM      7  S   UNL d   1      -0.220   0.830   0.000  0.00  0.00    -0.041 SA
BRANCH   7   8
ATOM      8  C   UNL d   1      -0.992   0.295   0.000  0.00  0.00     0.215 A 
ATOM      9  N   UNL d   1      -0.992  -0.502   0.000  0.00  0.00    -0.214 NA
ATOM     10  C   UNL d   1      -1.789  -0.747   0.000  0.00  0.00     0.107 A 
ATOM     11  C   UNL d   1      -2.155  -1.499   0.000  0.00  0.00     0.021 A 
ATOM     12  C   UNL d   1      -2.263  -0.079   0.000  0.00  0.00     0.120 A 
ATOM     13  C   UNL d   1      -2.972  -1.548   0.000  0.00  0.00     0.002 A 
ATOM     14  C   UNL d   1      -3.437  -0.884   0.000  0.00  0.00     0.002 A 
ATOM     15  C   UNL d   1      -3.084  -0.137   0.000  0.00  0.00     0.026 A 
ATOM     16  O   UNL d   1      -1.744   0.594   0.000  0.00  0.00    -0.283 OA
ENDBRANCH   7   8
ENDBRANCH   3   7
BRANCH   1  17
ATOM     17  N   UNL d   1       1.212   1.714   0.000  0.00  0.00    -0.113 N 
ATOM     18  O   UNL d   1       0.548   2.163   0.000  0.00  0.00    -0.532 OA
ATOM     19  O   UNL d   1       1.910   2.163   0.000  0.00  0.00    -0.532 OA
ENDBRANCH   1  17
BRANCH   4  20
ATOM     20  N   UNL d   1       2.690  -0.747   0.000  0.00  0.00    -0.114 N 
ATOM     21  O   UNL d   1       3.454  -0.378   0.000  0.00  0.00    -0.532 OA
ATOM     22  O   UNL d   1       2.769  -1.548   0.000  0.00  0.00    -0.532 OA
ENDBRANCH   4  20
TORSDOF 4
