REMARK  2 active torsions:
REMARK  status: ('A' for Active; 'I' for Inactive)
REMARK       I    between atoms: N_2  and  C_1 
REMARK    1  A    between atoms: C_4  and  C_1 
REMARK    2  A    between atoms: C_3  and  N_2 
ROOT
ATOM      1  C   UNL d   1       3.878  -1.242   0.000  0.00  0.00     0.085 A 
ATOM      2  C   UNL d   1       5.114  -0.544   0.000  0.00  0.00     0.002 A 
ATOM      3  C   UNL d   1       4.288  -0.544   0.000  0.00  0.00     0.018 A 
ATOM      4  C   UNL d   1       5.531  -1.246   0.000  0.00  0.00     0.000 A 
ATOM      5  C   UNL d   1       5.531   0.160   0.000  0.00  0.00     0.000 A 
ATOM      6  C   UNL d   1       4.292  -1.964   0.000  0.00  0.00     0.019 A 
ATOM      7  C   UNL d   1       5.120  -1.964   0.000  0.00  0.00     0.002 A 
ATOM      8  C   UNL d   1       6.336  -1.072   0.000  0.00  0.00     0.000 A 
ATOM      9  C   UNL d   1       6.333  -0.013   0.000  0.00  0.00     0.000 A 
ATOM     10  C   UNL d   1       3.871   0.160   0.000  0.00  0.00     0.002 A 
ATOM     11  C   UNL d   1       4.288   0.892   0.000  0.00  0.00     0.000 A 
ATOM     12  C   UNL d   1       5.114   0.892   0.000  0.00  0.00     0.000 A 
ENDROOT
BRANCH   1  13
ATOM     13  N   UNL d   1       3.059  -1.242   0.000  0.00  0.00    -0.206 NA
ATOM     14  C   UNL d   1       2.669  -0.534   0.000  0.00  0.00     0.302 C 
ATOM     15  O   UNL d   1       3.090   0.097   0.000  0.00  0.00    -0.263 OA
BRANCH  14  16
ATOM     16  C   UNL d   1       1.844  -0.464   0.000  0.00  0.00     0.158 A 
ATOM     17  O   UNL d   1       1.443   0.251   0.000  0.00  0.00    -0.300 OA
ATOM     18  C   UNL d   1       0.615   0.080   0.000  0.00  0.00     0.123 A 
ATOM     19  C   UNL d   1       0.521  -0.725   0.000  0.00  0.00     0.029 A 
ATOM     20  C   UNL d   1       1.266  -1.085   0.000  0.00  0.00     0.032 A 
ENDBRANCH  14  16
ENDBRANCH   1  13
TORSDOF 2
