REMARK  5 active torsions:
REMARK  status: ('A' for Active; 'I' for Inactive)
REMARK    1  A    between atoms: C_2  and  C_1 
REMARK       I    between atoms: N_3  and  C_1 
REMARK    2  A    between atoms: C_8  and  N_3 
REMARK    3  A    between atoms: C_5  and  C_4 
REMARK    4  A    between atoms: O_15  and  C_12 
REMARK    5  A    between atoms: O_16  and  C_13 
ROOT
ATOM      1  C   UNL d   1      -0.311   2.486   0.000  0.00  0.00     0.279 C 
ATOM      2  N   UNL d   1      -1.160   2.486   0.000  0.00  0.00    -0.208 NA
ATOM      3  O   UNL d   1       0.097   3.185   0.000  0.00  0.00    -0.265 OA
ENDROOT
BRANCH   1   4
ATOM      4  C   UNL d   1       0.077   1.758   0.000  0.00  0.00     0.062 A 
ATOM      5  C   UNL d   1       0.909   1.758   0.000  0.00  0.00     0.029 A 
ATOM      6  C   UNL d   1       1.314   1.039   0.000  0.00  0.00     0.096 A 
ATOM      7  C   UNL d   1       0.873   0.311   0.000  0.00  0.00     0.048 A 
ATOM      8  C   UNL d   1       0.049   0.336   0.000  0.00  0.00     0.096 A 
ATOM      9  C   UNL d   1      -0.352   1.051   0.000  0.00  0.00     0.029 A 
BRANCH   6  10
ATOM     10  O   UNL d   1       2.151   1.067   0.000  0.00  0.00    -0.328 OA
ATOM     11  C   UNL d   1       2.599   0.360   0.000  0.00  0.00     0.181 C 
ENDBRANCH   6  10
BRANCH   8  12
ATOM     12  O   UNL d   1      -0.388  -0.392   0.000  0.00  0.00    -0.328 OA
ATOM     13  C   UNL d   1      -1.213  -0.376   0.000  0.00  0.00     0.181 C 
ENDBRANCH   8  12
ENDBRANCH   1   4
BRANCH   2  14
ATOM     14  C   UNL d   1      -1.536   3.222   0.000  0.00  0.00     0.085 A 
ATOM     15  C   UNL d   1      -2.361   3.246   0.000  0.00  0.00     0.022 A 
ATOM     16  C   UNL d   1      -2.761   3.921   0.000  0.00  0.00     0.041 A 
ATOM     17  C   UNL d   1      -2.328   4.661   0.000  0.00  0.00     0.003 A 
ATOM     18  C   UNL d   1      -1.504   4.649   0.000  0.00  0.00     0.002 A 
ATOM     19  C   UNL d   1      -1.116   3.921   0.000  0.00  0.00     0.019 A 
BRANCH  16  20
ATOM     20  C   UNL d   1      -3.602   3.921   0.000  0.00  0.00     0.196 C 
ATOM     21  O   UNL d   1      -4.022   4.637   0.000  0.00  0.00    -0.287 OA
ATOM     22  C   UNL d   1      -3.998   3.197   0.000  0.00  0.00     0.045 C 
ENDBRANCH  16  20
ENDBRANCH   2  14
TORSDOF 5
