REMARK  3 active torsions:
REMARK  status: ('A' for Active; 'I' for Inactive)
REMARK    1  A    between atoms: C_6  and  N_3 
REMARK    2  A    between atoms: C_5  and  C_4 
REMARK    3  A    between atoms: O_18  and  C_14 
ROOT
ATOM      1  C   UNL d   1      -0.962   1.203   0.000  0.00  0.00     0.366 A 
ATOM      2  C   UNL d   1      -0.137   1.187   0.000  0.00  0.00     0.308 A 
ATOM      3  N   UNL d   1      -0.137   0.378   0.000  0.00  0.00    -0.272 N 
ATOM      4  C   UNL d   1      -0.981   0.378   0.000  0.00  0.00     0.115 A 
ATOM      5  O   UNL d   1       0.462   1.752   0.000  0.00  0.00    -0.265 OA
ATOM      6  F   UNL d   1      -0.798   2.012   0.000  0.00  0.00    -0.188 F 
ATOM      7  F   UNL d   1      -1.680   1.603   0.000  0.00  0.00    -0.188 F 
ENDROOT
BRANCH   3   8
ATOM      8  C   UNL d   1       0.447  -0.229   0.000  0.00  0.00     0.067 A 
ATOM      9  C   UNL d   1       1.237  -0.027   0.000  0.00  0.00     0.020 A 
ATOM     10  C   UNL d   1       1.821  -0.611   0.000  0.00  0.00     0.026 A 
ATOM     11  C   UNL d   1       1.585  -1.401   0.000  0.00  0.00     0.094 A 
ATOM     12  C   UNL d   1       0.794  -1.619   0.000  0.00  0.00     0.026 A 
ATOM     13  C   UNL d   1       0.210  -1.035   0.000  0.00  0.00     0.020 A 
BRANCH  11  14
ATOM     14  O   UNL d   1       2.169  -2.004   0.000  0.00  0.00    -0.328 OA
ATOM     15  C   UNL d   1       2.978  -1.802   0.000  0.00  0.00     0.181 C 
ENDBRANCH  11  14
ENDBRANCH   3   8
BRANCH   4  16
ATOM     16  C   UNL d   1      -1.569  -0.210   0.000  0.00  0.00     0.045 A 
ATOM     17  C   UNL d   1      -2.356   0.011   0.000  0.00  0.00     0.141 A 
ATOM     18  F   UNL d   1      -2.577   0.821   0.000  0.00  0.00    -0.204 F 
ATOM     19  C   UNL d   1      -2.944  -0.596   0.000  0.00  0.00     0.030 A 
ATOM     20  C   UNL d   1      -2.703  -1.378   0.000  0.00  0.00     0.002 A 
ATOM     21  C   UNL d   1      -1.920  -1.603   0.000  0.00  0.00     0.000 A 
ATOM     22  C   UNL d   1      -1.329  -1.012   0.000  0.00  0.00     0.004 A 
ENDBRANCH   4  16
TORSDOF 3
