REMARK  2 active torsions:
REMARK  status: ('A' for Active; 'I' for Inactive)
REMARK    1  A    between atoms: C_8  and  N_1 
REMARK    2  A    between atoms: O_15  and  C_14 
ROOT
ATOM      1  N   UNL d   1      -0.172  -0.210   0.000  0.00  0.00    -0.243 N 
ATOM      2  C   UNL d   1       0.280  -0.860   0.000  0.00  0.00     0.251 A 
ATOM      3  C   UNL d   1       0.280   0.452   0.000  0.00  0.00     0.264 A 
ATOM      4  C   UNL d   1       1.084  -0.606   0.000  0.00  0.00     0.129 A 
ATOM      5  C   UNL d   1       1.084   0.207   0.000  0.00  0.00     0.047 A 
ATOM      6  C   UNL d   1       1.681   0.813   0.000  0.00  0.00     0.001 A 
ATOM      7  C   UNL d   1       1.699   0.399   0.000  0.00  0.00    -0.009 A 
ATOM      8  C   UNL d   1       2.599   0.819   0.000  0.00  0.00    -0.000 A 
ATOM      9  C   UNL d   1       2.599   0.399   0.000  0.00  0.00    -0.004 A 
ATOM     10  C   UNL d   1       1.154   1.422   0.000  0.00  0.00    -0.004 A 
ATOM     11  O   UNL d   1      -0.009  -1.655   0.000  0.00  0.00    -0.271 OA
ATOM     12  O   UNL d   1      -0.149   1.224   0.000  0.00  0.00    -0.267 OA
ENDROOT
BRANCH   1  13
ATOM     13  C   UNL d   1      -0.988  -0.230   0.000  0.00  0.00     0.092 A 
ATOM     14  C   UNL d   1      -1.387  -0.956   0.000  0.00  0.00     0.110 A 
ATOM     15  C   UNL d   1      -2.203  -0.970   0.000  0.00  0.00     0.026 A 
ATOM     16  C   UNL d   1      -2.631  -0.265   0.000  0.00  0.00     0.002 A 
ATOM     17  C   UNL d   1      -2.235   0.443   0.000  0.00  0.00     0.002 A 
ATOM     18  C   UNL d   1      -1.413   0.463   0.000  0.00  0.00     0.020 A 
BRANCH  14  19
ATOM     19  O   UNL d   1      -0.941  -1.643   0.000  0.00  0.00    -0.327 OA
ATOM     20  C   UNL d   1      -1.259  -2.319   0.000  0.00  0.00     0.181 C 
ENDBRANCH  14  19
ENDBRANCH   1  13
TORSDOF 2
