REMARK  1 active torsions:
REMARK  status: ('A' for Active; 'I' for Inactive)
REMARK    1  A    between atoms: C_7  and  C_1 
ROOT
ATOM      1  C   UNL d   1       2.256  -0.140   0.000  0.00  0.00     0.102 A 
ATOM      2  C   UNL d   1       2.256  -0.967   0.000  0.00  0.00     0.303 A 
ATOM      3  C   UNL d   1       1.534   0.266   0.000  0.00  0.00     0.011 A 
ATOM      4  O   UNL d   1       1.534  -1.389   0.000  0.00  0.00    -0.273 OA
ATOM      5  C   UNL d   1       0.825  -0.140   0.000  0.00  0.00     0.023 A 
ATOM      6  C   UNL d   1       0.825  -0.967   0.000  0.00  0.00     0.103 A 
ATOM      7  O   UNL d   1       2.989  -1.389   0.000  0.00  0.00    -0.259 OA
ATOM      8  C   UNL d   1       0.116   0.266   0.000  0.00  0.00     0.002 A 
ATOM      9  C   UNL d   1       0.116  -1.389   0.000  0.00  0.00     0.025 A 
ATOM     10  C   UNL d   1      -0.588  -0.140   0.000  0.00  0.00     0.000 A 
ATOM     11  C   UNL d   1      -0.588  -0.967   0.000  0.00  0.00     0.002 A 
ENDROOT
BRANCH   1  12
ATOM     12  C   UNL d   1       2.989   0.266   0.000  0.00  0.00     0.201 C 
ATOM     13  O   UNL d   1       2.989   1.093   0.000  0.00  0.00    -0.286 OA
ATOM     14  C   UNL d   1       3.699  -0.140   0.000  0.00  0.00     0.045 C 
ENDBRANCH   1  12
TORSDOF 1
