REMARK  5 active torsions:
REMARK  status: ('A' for Active; 'I' for Inactive)
REMARK    1  A    between atoms: C_8  and  C_1 
REMARK    2  A    between atoms: C_7  and  C_4 
REMARK    3  A    between atoms: O_10  and  C_8 
REMARK    4  A    between atoms: C_16  and  O_10 
REMARK    5  A    between atoms: C_19  and  C_16 
ROOT
ATOM      1  C   UNL d   1      -0.880  -0.696   0.000  0.00  0.00     0.098 A 
ATOM      2  C   UNL d   1      -0.880  -1.536   0.000  0.00  0.00     0.075 A 
ATOM      3  C   UNL d   1      -2.309  -1.536   0.000  0.00  0.00     0.354 A 
ATOM      4  C   UNL d   1      -1.591  -0.291   0.000  0.00  0.00     0.093 A 
ATOM      5  N   UNL d   1      -1.591  -1.948   0.000  0.00  0.00    -0.256 N 
ATOM      6  N   UNL d   1      -2.309  -0.707   0.000  0.00  0.00    -0.192 NA
ATOM      7  O   UNL d   1      -3.024  -1.948   0.000  0.00  0.00    -0.244 OA
ATOM      8  C   UNL d   1      -0.173  -1.948   0.000  0.00  0.00     0.019 C 
ATOM      9  C   UNL d   1      -1.591  -2.773   0.000  0.00  0.00     0.104 C 
ENDROOT
BRANCH   1  10
ATOM     10  C   UNL d   1      -0.173  -0.269   0.000  0.00  0.00     0.303 C 
ATOM     11  O   UNL d   1       0.545  -0.667   0.000  0.00  0.00    -0.259 OA
BRANCH  10  12
ATOM     12  O   UNL d   1      -0.195   0.549   0.000  0.00  0.00    -0.271 OA
BRANCH  12  13
ATOM     13  C   UNL d   1       0.512   0.972   0.000  0.00  0.00     0.126 C 
BRANCH  13  14
ATOM     14  C   UNL d   1       0.501   1.797   0.000  0.00  0.00     0.025 C 
ATOM     15  C   UNL d   1      -0.206   2.195   0.000  0.00  0.00     0.002 C 
ATOM     16  C   UNL d   1       1.197   2.228   0.000  0.00  0.00     0.002 C 
ENDBRANCH  13  14
ENDBRANCH  12  13
ENDBRANCH  10  12
ENDBRANCH   1  10
BRANCH   4  17
ATOM     17  C   UNL d   1      -1.591   0.530   0.000  0.00  0.00     0.029 A 
ATOM     18  C   UNL d   1      -2.309   0.947   0.000  0.00  0.00     0.059 A 
ATOM     19 CL   UNL d   1      -3.024   0.530   0.000  0.00  0.00    -0.082 Cl
ATOM     20  C   UNL d   1      -2.309   1.786   0.000  0.00  0.00     0.011 A 
ATOM     21  C   UNL d   1      -1.591   2.195   0.000  0.00  0.00     0.001 A 
ATOM     22  C   UNL d   1      -0.880   1.786   0.000  0.00  0.00     0.000 A 
ATOM     23  C   UNL d   1      -0.880   0.913   0.000  0.00  0.00     0.002 A 
ENDBRANCH   4  17
TORSDOF 5
