REMARK  4 active torsions:
REMARK  status: ('A' for Active; 'I' for Inactive)
REMARK    1  A    between atoms: C_8  and  C_1 
REMARK    2  A    between atoms: C_4  and  C_2 
REMARK    3  A    between atoms: O_16  and  C_8 
REMARK    4  A    between atoms: C_21  and  O_16 
ROOT
ATOM      1  C   UNL d   1      -0.956   0.338   0.000  0.00  0.00     0.099 A 
ATOM      2  C   UNL d   1      -1.673   0.746   0.000  0.00  0.00     0.096 A 
ATOM      3  C   UNL d   1      -0.956  -0.500   0.000  0.00  0.00     0.093 A 
ATOM      4  C   UNL d   1      -2.383  -0.500   0.000  0.00  0.00     0.369 A 
ATOM      5  N   UNL d   1      -1.673  -0.915   0.000  0.00  0.00    -0.191 NA
ATOM      6  N   UNL d   1      -2.383   0.327   0.000  0.00  0.00    -0.191 NA
ATOM      7  O   UNL d   1      -3.100  -0.915   0.000  0.00  0.00    -0.242 OA
ATOM      8  C   UNL d   1      -0.250  -0.915   0.000  0.00  0.00     0.021 C 
ENDROOT
BRANCH   2   9
ATOM      9  C   UNL d   1      -1.673   1.563   0.000  0.00  0.00     0.057 A 
ATOM     10  C   UNL d   1      -2.383   1.982   0.000  0.00  0.00     0.005 A 
ATOM     11  C   UNL d   1      -2.383   2.809   0.000  0.00  0.00     0.000 A 
ATOM     12  C   UNL d   1      -3.100   1.563   0.000  0.00  0.00     0.000 A 
ATOM     13  C   UNL d   1      -3.100   3.221   0.000  0.00  0.00     0.000 A 
ATOM     14  C   UNL d   1      -1.673   3.221   0.000  0.00  0.00     0.003 A 
ATOM     15  C   UNL d   1      -3.813   2.809   0.000  0.00  0.00     0.000 A 
ATOM     16  C   UNL d   1      -3.813   1.982   0.000  0.00  0.00     0.000 A 
ATOM     17  C   UNL d   1      -0.956   2.809   0.000  0.00  0.00     0.042 A 
ATOM     18  C   UNL d   1      -0.956   1.949   0.000  0.00  0.00     0.197 A 
ATOM     19  O   UNL d   1      -0.265   2.467   0.000  0.00  0.00    -0.286 OA
ENDBRANCH   2   9
BRANCH   1  20
ATOM     20  C   UNL d   1      -0.250   0.761   0.000  0.00  0.00     0.303 C 
ATOM     21  O   UNL d   1       0.467   0.364   0.000  0.00  0.00    -0.259 OA
BRANCH  20  22
ATOM     22  O   UNL d   1      -0.276   1.585   0.000  0.00  0.00    -0.271 OA
BRANCH  22  23
ATOM     23  C   UNL d   1       0.430   2.004   0.000  0.00  0.00     0.126 C 
ATOM     24  C   UNL d   1       1.147   1.607   0.000  0.00  0.00     0.029 C 
ENDBRANCH  22  23
ENDBRANCH  20  22
ENDBRANCH   1  20
TORSDOF 4
