REMARK  2 active torsions:
REMARK  status: ('A' for Active; 'I' for Inactive)
REMARK    1  A    between atoms: C_3  and  C_1 
REMARK       I    between atoms: N_7  and  C_3 
REMARK    2  A    between atoms: C_11  and  N_7 
ROOT
ATOM      1  C   UNL d   1       2.470  -2.156   0.000  0.00  0.00     0.121 A 
ATOM      2  C   UNL d   1       2.456  -2.983   0.000  0.00  0.00     0.305 A 
ATOM      3  C   UNL d   1       1.761  -1.743   0.000  0.00  0.00     0.012 A 
ATOM      4  O   UNL d   1       1.743  -3.396   0.000  0.00  0.00    -0.273 OA
ATOM      5  C   UNL d   1       1.040  -2.143   0.000  0.00  0.00     0.023 A 
ATOM      6  C   UNL d   1       1.035  -2.974   0.000  0.00  0.00     0.103 A 
ATOM      7  O   UNL d   1       3.178  -3.409   0.000  0.00  0.00    -0.259 OA
ATOM      8  C   UNL d   1       0.327  -1.730   0.000  0.00  0.00     0.002 A 
ATOM      9  C   UNL d   1       0.313  -3.382   0.000  0.00  0.00     0.025 A 
ATOM     10  C   UNL d   1      -0.377  -2.129   0.000  0.00  0.00     0.000 A 
ATOM     11  C   UNL d   1      -0.381  -2.960   0.000  0.00  0.00     0.002 A 
ENDROOT
BRANCH   1  12
ATOM     12  C   UNL d   1       3.191  -1.748   0.000  0.00  0.00     0.284 C 
ATOM     13  N   UNL d   1       3.900  -2.179   0.000  0.00  0.00    -0.208 NA
ATOM     14  O   UNL d   1       3.191  -0.931   0.000  0.00  0.00    -0.265 OA
BRANCH  13  15
ATOM     15  C   UNL d   1       4.617  -1.761   0.000  0.00  0.00     0.085 A 
ATOM     16  C   UNL d   1       4.630  -0.931   0.000  0.00  0.00     0.021 A 
ATOM     17  C   UNL d   1       5.343  -0.531   0.000  0.00  0.00     0.031 A 
ATOM     18  C   UNL d   1       6.051  -0.944   0.000  0.00  0.00     0.140 A 
ATOM     19  C   UNL d   1       6.047  -1.775   0.000  0.00  0.00     0.031 A 
ATOM     20  F   UNL d   1       6.760  -0.545   0.000  0.00  0.00    -0.204 F 
ATOM     21  C   UNL d   1       5.325  -2.184   0.000  0.00  0.00     0.021 A 
ENDBRANCH  13  15
ENDBRANCH   1  12
TORSDOF 2
