REMARK  1 active torsions:
REMARK  status: ('A' for Active; 'I' for Inactive)
REMARK    1  A    between atoms: C_8  and  C_4 
ROOT
ATOM      1  N   UNL d   1      -1.158   2.719   0.000  0.00  0.00    -0.211 NA
ATOM      2  C   UNL d   1      -1.875   3.128   0.000  0.00  0.00     0.140 A 
ATOM      3  C   UNL d   1      -2.597   2.719   0.000  0.00  0.00     0.051 A 
ATOM      4  C   UNL d   1      -1.158   1.889   0.000  0.00  0.00     0.183 A 
ATOM      5  C   UNL d   1      -2.597   1.875   0.000  0.00  0.00     0.104 A 
ATOM      6  O   UNL d   1      -1.875   1.471   0.000  0.00  0.00    -0.289 OA
ATOM      7  S   UNL d   1      -1.875   3.958   0.000  0.00  0.00    -0.057 SA
ATOM      8  C   UNL d   1      -3.318   3.119   0.000  0.00  0.00     0.004 A 
ATOM      9  C   UNL d   1      -3.305   1.466   0.000  0.00  0.00     0.025 A 
ATOM     10  C   UNL d   1      -4.031   2.706   0.000  0.00  0.00     0.000 A 
ATOM     11  C   UNL d   1      -4.031   1.875   0.000  0.00  0.00     0.002 A 
ENDROOT
BRANCH   4  12
ATOM     12  C   UNL d   1      -0.436   1.471   0.000  0.00  0.00     0.041 A 
ATOM     13  C   UNL d   1      -0.436   0.649   0.000  0.00  0.00     0.004 A 
ATOM     14  C   UNL d   1       0.272   0.241   0.000  0.00  0.00     0.000 A 
ATOM     15  C   UNL d   1       0.985   0.654   0.000  0.00  0.00     0.000 A 
ATOM     16  C   UNL d   1       0.981   1.471   0.000  0.00  0.00     0.000 A 
ATOM     17  C   UNL d   1       0.259   1.889   0.000  0.00  0.00     0.004 A 
ENDBRANCH   4  12
TORSDOF 1
