REMARK  2 active torsions:
REMARK  status: ('A' for Active; 'I' for Inactive)
REMARK    1  A    between atoms: C_6  and  C_1 
REMARK    2  A    between atoms: O_16  and  C_13 
ROOT
ATOM      1  C   UNL d   1      -0.014  -0.005   0.000  0.00  0.00     0.148 A 
ATOM      2  N   UNL d   1      -0.808  -0.175   0.000  0.00  0.00    -0.289 N 
ATOM      3  N   UNL d   1       0.076   0.808   0.000  0.00  0.00    -0.225 NA
ATOM      4  C   UNL d   1      -1.243   0.534   0.000  0.00  0.00     0.085 A 
ATOM      5  C   UNL d   1      -0.676   1.149   0.000  0.00  0.00     0.118 A 
ATOM      6  C   UNL d   1      -1.243  -0.926   0.000  0.00  0.00     0.082 A 
ATOM      7  C   UNL d   1      -2.056   0.534   0.000  0.00  0.00     0.019 A 
ATOM      8  C   UNL d   1      -2.056  -0.926   0.000  0.00  0.00     0.019 A 
ATOM      9  C   UNL d   1      -2.491  -0.175   0.000  0.00  0.00     0.003 A 
ENDROOT
BRANCH   1  10
ATOM     10  C   UNL d   1       0.553  -0.624   0.000  0.00  0.00     0.035 A 
ATOM     11  C   UNL d   1       1.366  -0.454   0.000  0.00  0.00     0.005 A 
ATOM     12  C   UNL d   1       1.914  -1.063   0.000  0.00  0.00     0.024 A 
ATOM     13  C   UNL d   1       1.664  -1.848   0.000  0.00  0.00     0.094 A 
ATOM     14  C   UNL d   1       0.870  -2.018   0.000  0.00  0.00     0.024 A 
ATOM     15  C   UNL d   1       0.302  -1.404   0.000  0.00  0.00     0.005 A 
BRANCH  13  16
ATOM     16  O   UNL d   1       2.212  -2.496   0.000  0.00  0.00    -0.328 OA
ATOM     17  C   UNL d   1       3.025  -2.359   0.000  0.00  0.00     0.181 C 
ENDBRANCH  13  16
ENDBRANCH   1  10
TORSDOF 2
