REMARK  4 active torsions:
REMARK  status: ('A' for Active; 'I' for Inactive)
REMARK    1  A    between atoms: N_7  and  S_1 
REMARK    2  A    between atoms: C_8  and  S_1 
REMARK    3  A    between atoms: C_17  and  N_2 
REMARK    4  A    between atoms: C_14  and  N_7 
ROOT
ATOM      1  N   UNL d   1       2.847   0.827   0.000  0.00  0.00    -0.273 N 
ATOM      2  C   UNL d   1       3.408   1.764   0.000  0.00  0.00     0.265 A 
ATOM      3  C   UNL d   1       2.088   1.068   0.000  0.00  0.00     0.067 A 
ATOM      4  C   UNL d   1       2.088   1.909   0.000  0.00  0.00     0.021 A 
ATOM      5  C   UNL d   1       2.804   2.320   0.000  0.00  0.00     0.058 A 
ATOM      6  C   UNL d   1       0.643   1.909   0.000  0.00  0.00     0.105 A 
ATOM      7  C   UNL d   1       1.368   2.320   0.000  0.00  0.00     0.014 A 
ATOM      8  C   UNL d   1       1.368   0.691   0.000  0.00  0.00     0.018 A 
ATOM      9  C   UNL d   1       0.624   1.102   0.000  0.00  0.00     0.014 A 
ATOM     10  O   UNL d   1       4.196   1.972   0.000  0.00  0.00    -0.267 OA
ATOM     11  C   UNL d   1       2.804   3.127   0.000  0.00  0.00     0.005 A 
ATOM     12  C   UNL d   1       1.368   3.127   0.000  0.00  0.00     0.001 A 
ATOM     13  C   UNL d   1       2.088   3.538   0.000  0.00  0.00     0.000 A 
ENDROOT
BRANCH   6  14
ATOM     14  S   UNL d   1      -0.072   2.286   0.000  0.00  0.00     0.287 S 
ATOM     15  O   UNL d   1      -0.464   1.590   0.000  0.00  0.00    -0.198 OA
ATOM     16  O   UNL d   1       0.324   3.016   0.000  0.00  0.00    -0.198 OA
BRANCH  14  17
ATOM     17  N   UNL d   1      -0.793   2.707   0.000  0.00  0.00    -0.139 NA
BRANCH  17  18
ATOM     18  C   UNL d   1      -1.508   2.301   0.000  0.00  0.00     0.175 A 
ATOM     19  N   UNL d   1      -1.523   1.465   0.000  0.00  0.00    -0.225 NA
ATOM     20  C   UNL d   1      -2.257   1.068   0.000  0.00  0.00     0.101 A 
ATOM     21  C   UNL d   1      -2.958   1.503   0.000  0.00  0.00     0.021 A 
ATOM     22  C   UNL d   1      -2.953   2.320   0.000  0.00  0.00     0.005 A 
ATOM     23  C   UNL d   1      -2.219   2.721   0.000  0.00  0.00     0.040 A 
ENDBRANCH  17  18
ENDBRANCH  14  17
ENDBRANCH   6  14
BRANCH   1  24
ATOM     24  C   UNL d   1       3.016   0.024   0.000  0.00  0.00     0.083 C 
ATOM     25  C   UNL d   1       2.383  -0.527   0.000  0.00  0.00     0.021 C 
ENDBRANCH   1  24
TORSDOF 4
