REMARK  3 active torsions:
REMARK  status: ('A' for Active; 'I' for Inactive)
REMARK    1  A    between atoms: C_7  and  N_1 
REMARK    2  A    between atoms: C_10  and  C_3 
REMARK    3  A    between atoms: C_8  and  C_7 
ROOT
ATOM      1  N   UNL d   1      -3.069 -25.980   0.000  0.00  0.00    -0.289 N 
ATOM      2  N   UNL d   1      -2.357 -24.738   0.000  0.00  0.00    -0.217 NA
ATOM      3  C   UNL d   1      -2.357 -25.560   0.000  0.00  0.00     0.149 A 
ATOM      4  C   UNL d   1      -3.796 -24.738   0.000  0.00  0.00     0.044 A 
ATOM      5  C   UNL d   1      -3.069 -24.322   0.000  0.00  0.00     0.139 A 
ATOM      6  C   UNL d   1      -3.796 -25.560   0.000  0.00  0.00     0.068 A 
ATOM      7  S   UNL d   1      -3.083 -23.491   0.000  0.00  0.00    -0.057 SA
ATOM      8  C   UNL d   1      -4.517 -24.322   0.000  0.00  0.00     0.004 A 
ATOM      9  C   UNL d   1      -4.508 -25.985   0.000  0.00  0.00     0.018 A 
ATOM     10  C   UNL d   1      -5.230 -24.751   0.000  0.00  0.00     0.000 A 
ATOM     11  C   UNL d   1      -5.230 -25.573   0.000  0.00  0.00     0.002 A 
ENDROOT
BRANCH   1  12
ATOM     12  C   UNL d   1      -3.069 -26.802   0.000  0.00  0.00     0.106 C 
BRANCH  12  13
ATOM     13  C   UNL d   1      -3.782 -27.218   0.000  0.00  0.00     0.118 A 
ATOM     14  O   UNL d   1      -3.860 -28.026   0.000  0.00  0.00    -0.304 OA
ATOM     15  C   UNL d   1      -4.659 -28.204   0.000  0.00  0.00     0.123 A 
ATOM     16  C   UNL d   1      -5.079 -27.492   0.000  0.00  0.00     0.029 A 
ATOM     17  C   UNL d   1      -4.531 -26.875   0.000  0.00  0.00     0.028 A 
ENDBRANCH  12  13
ENDBRANCH   1  12
BRANCH   3  18
ATOM     18  C   UNL d   1      -1.644 -25.980   0.000  0.00  0.00     0.035 A 
ATOM     19  C   UNL d   1      -1.644 -26.802   0.000  0.00  0.00     0.003 A 
ATOM     20  C   UNL d   1      -0.927 -27.204   0.000  0.00  0.00     0.000 A 
ATOM     21  C   UNL d   1      -0.215 -26.802   0.000  0.00  0.00     0.000 A 
ATOM     22  C   UNL d   1      -0.215 -25.966   0.000  0.00  0.00     0.000 A 
ATOM     23  C   UNL d   1      -0.932 -25.560   0.000  0.00  0.00     0.003 A 
ENDBRANCH   3  18
TORSDOF 3
