REMARK  4 active torsions:
REMARK  status: ('A' for Active; 'I' for Inactive)
REMARK    1  A    between atoms: N_5  and  S_1 
REMARK    2  A    between atoms: C_8  and  S_1 
REMARK    3  A    between atoms: C_18  and  N_2 
REMARK    4  A    between atoms: C_10  and  N_5 
ROOT
ATOM      1  N   UNL d   1       0.358   2.044   0.000  0.00  0.00    -0.273 N 
ATOM      2  C   UNL d   1       0.274   2.865   0.000  0.00  0.00     0.265 A 
ATOM      3  C   UNL d   1      -0.398   1.686   0.000  0.00  0.00     0.067 A 
ATOM      4  C   UNL d   1      -0.955   2.308   0.000  0.00  0.00     0.021 A 
ATOM      5  C   UNL d   1      -0.552   3.024   0.000  0.00  0.00     0.058 A 
ATOM      6  C   UNL d   1      -2.164   1.577   0.000  0.00  0.00     0.105 A 
ATOM      7  C   UNL d   1      -1.756   2.293   0.000  0.00  0.00     0.014 A 
ATOM      8  C   UNL d   1      -0.637   0.910   0.000  0.00  0.00     0.018 A 
ATOM      9  C   UNL d   1      -1.771   0.890   0.000  0.00  0.00     0.014 A 
ATOM     10  O   UNL d   1       0.915   3.417   0.000  0.00  0.00    -0.267 OA
ATOM     11  C   UNL d   1      -0.950   3.725   0.000  0.00  0.00     0.005 A 
ATOM     12  C   UNL d   1      -2.188   3.009   0.000  0.00  0.00     0.001 A 
ATOM     13  C   UNL d   1      -1.815   3.740   0.000  0.00  0.00     0.000 A 
ENDROOT
BRANCH   6  14
ATOM     14  S   UNL d   1      -2.984   1.577   0.000  0.00  0.00     0.287 S 
ATOM     15  O   UNL d   1      -2.999   0.756   0.000  0.00  0.00    -0.198 OA
ATOM     16  O   UNL d   1      -3.009   2.427   0.000  0.00  0.00    -0.198 OA
BRANCH  14  17
ATOM     17  N   UNL d   1      -3.820   1.577   0.000  0.00  0.00    -0.139 NA
BRANCH  17  18
ATOM     18  C   UNL d   1      -4.262   0.890   0.000  0.00  0.00     0.174 A 
ATOM     19  N   UNL d   1      -3.835   0.174   0.000  0.00  0.00    -0.225 NA
ATOM     20  C   UNL d   1      -4.238  -0.542   0.000  0.00  0.00     0.101 A 
ATOM     21  C   UNL d   1      -5.073  -0.542   0.000  0.00  0.00     0.021 A 
ATOM     22  C   UNL d   1      -5.506   0.174   0.000  0.00  0.00     0.005 A 
ATOM     23  C   UNL d   1      -5.098   0.890   0.000  0.00  0.00     0.037 A 
ATOM     24  C   UNL d   1      -5.158   1.890   0.000  0.00  0.00     0.003 C 
ENDBRANCH  17  18
ENDBRANCH  14  17
ENDBRANCH   6  14
BRANCH   1  25
ATOM     25  C   UNL d   1       1.079   1.651   0.000  0.00  0.00     0.083 C 
ATOM     26  C   UNL d   1       1.079   0.831   0.000  0.00  0.00     0.021 C 
ENDBRANCH   1  25
TORSDOF 4
