REMARK  5 active torsions:
REMARK  status: ('A' for Active; 'I' for Inactive)
REMARK    1  A    between atoms: C_20  and  N_1 
REMARK       I    between atoms: C_6  and  N_7 
REMARK    2  A    between atoms: C_10  and  C_6 
REMARK    3  A    between atoms: N_7  and  C_8 
REMARK    4  A    between atoms: O_22  and  C_13 
REMARK    5  A    between atoms: O_23  and  C_16 
ROOT
ATOM      1  N   UNL d   1      -2.165  -0.585   0.000  0.00  0.00    -0.273 N 
ATOM      2  C   UNL d   1      -2.191  -1.613   0.000  0.00  0.00     0.265 A 
ATOM      3  C   UNL d   1      -1.297  -0.428   0.000  0.00  0.00     0.067 A 
ATOM      4  C   UNL d   1      -0.894  -1.099   0.000  0.00  0.00     0.022 A 
ATOM      5  C   UNL d   1      -1.308  -1.815   0.000  0.00  0.00     0.058 A 
ATOM      6  C   UNL d   1       0.328  -0.402   0.000  0.00  0.00     0.085 A 
ATOM      7  C   UNL d   1      -0.086  -1.088   0.000  0.00  0.00     0.019 A 
ATOM      8  C   UNL d   1      -0.868   0.313   0.000  0.00  0.00     0.019 A 
ATOM      9  O   UNL d   1      -2.847  -2.057   0.000  0.00  0.00    -0.267 OA
ATOM     10  C   UNL d   1      -0.089   0.309   0.000  0.00  0.00     0.021 A 
ATOM     11  C   UNL d   1      -0.894  -2.508   0.000  0.00  0.00     0.005 A 
ATOM     12  C   UNL d   1       0.346  -1.803   0.000  0.00  0.00     0.002 A 
ATOM     13  C   UNL d   1      -0.063  -2.508   0.000  0.00  0.00     0.000 A 
ENDROOT
BRANCH   6  14
ATOM     14  N   UNL d   1       1.166  -0.384   0.000  0.00  0.00    -0.208 NA
ATOM     15  C   UNL d   1       1.535   0.343   0.000  0.00  0.00     0.279 C 
ATOM     16  O   UNL d   1       1.118   1.028   0.000  0.00  0.00    -0.265 OA
BRANCH  15  17
ATOM     17  C   UNL d   1       2.329   0.369   0.000  0.00  0.00     0.060 A 
ATOM     18  C   UNL d   1       2.687  -0.313   0.000  0.00  0.00     0.031 A 
ATOM     19  C   UNL d   1       3.577  -0.313   0.000  0.00  0.00     0.116 A 
ATOM     20  C   UNL d   1       3.983   0.414   0.000  0.00  0.00     0.116 A 
ATOM     21  C   UNL d   1       3.566   1.114   0.000  0.00  0.00     0.026 A 
ATOM     22  C   UNL d   1       2.728   1.092   0.000  0.00  0.00     0.007 A 
BRANCH  19  23
ATOM     23  O   UNL d   1       3.994  -0.984   0.000  0.00  0.00    -0.326 OA
ATOM     24  C   UNL d   1       3.603  -1.703   0.000  0.00  0.00     0.181 C 
ENDBRANCH  19  23
BRANCH  20  25
ATOM     25  O   UNL d   1       4.818   0.432   0.000  0.00  0.00    -0.326 OA
ATOM     26  C   UNL d   1       5.213   1.159   0.000  0.00  0.00     0.181 C 
ENDBRANCH  20  25
ENDBRANCH  15  17
ENDBRANCH   6  14
BRANCH   1  27
ATOM     27  C   UNL d   1      -2.593   0.280   0.000  0.00  0.00     0.083 C 
ATOM     28  C   UNL d   1      -2.143   0.950   0.000  0.00  0.00     0.021 C 
ENDBRANCH   1  27
TORSDOF 5
