REMARK  3 active torsions:
REMARK  status: ('A' for Active; 'I' for Inactive)
REMARK    1  A    between atoms: S_6  and  C_1 
REMARK    2  A    between atoms: C_9  and  S_6 
REMARK    3  A    between atoms: C_7  and  C_9 
ROOT
ATOM      1  C   UNL d   1      -1.383   0.289   0.000  0.00  0.00     0.137 A 
ATOM      2  N   UNL d   1      -1.861   0.956   0.000  0.00  0.00    -0.232 NA
ATOM      3  S   UNL d   1      -1.861  -0.374   0.000  0.00  0.00    -0.060 SA
ATOM      4  C   UNL d   1      -2.636   0.713   0.000  0.00  0.00     0.088 A 
ATOM      5  C   UNL d   1      -2.636  -0.119   0.000  0.00  0.00     0.049 A 
ATOM      6  C   UNL d   1      -3.341   1.121   0.000  0.00  0.00     0.020 A 
ATOM      7  C   UNL d   1      -3.341  -0.524   0.000  0.00  0.00     0.008 A 
ATOM      8  C   UNL d   1      -4.066  -0.119   0.000  0.00  0.00     0.001 A 
ATOM      9  C   UNL d   1      -4.066   0.694   0.000  0.00  0.00     0.002 A 
ENDROOT
BRANCH   1  10
ATOM     10  S   UNL d   1      -0.567   0.308   0.000  0.00  0.00    -0.077 SA
BRANCH  10  11
ATOM     11  C   UNL d   1      -0.158  -0.416   0.000  0.00  0.00     0.161 C 
BRANCH  11  12
ATOM     12  C   UNL d   1       0.674  -0.416   0.000  0.00  0.00     0.197 C 
ATOM     13  O   UNL d   1       1.098  -1.137   0.000  0.00  0.00    -0.647 OA
ATOM     14  O   UNL d   1       1.079   0.289   0.000  0.00  0.00    -0.647 OA
ENDBRANCH  11  12
ENDBRANCH  10  11
ENDBRANCH   1  10
TORSDOF 3
