REMARK  4 active torsions:
REMARK  status: ('A' for Active; 'I' for Inactive)
REMARK    1  A    between atoms: S_4  and  C_1 
REMARK    2  A    between atoms: C_7  and  S_4 
REMARK       I    between atoms: C_5  and  N_6 
REMARK    3  A    between atoms: C_12  and  C_5 
REMARK    4  A    between atoms: N_6  and  C_7 
ROOT
ATOM      1  C   UNL d   1      -0.258   0.638   0.000  0.00  0.00     0.141 C 
ENDROOT
BRANCH   1   2
ATOM      2  N   UNL d   1       0.471   0.224   0.000  0.00  0.00    -0.199 NA
ATOM      3  C   UNL d   1       1.185   0.638   0.000  0.00  0.00     0.280 C 
ATOM      4  O   UNL d   1       1.185   1.477   0.000  0.00  0.00    -0.265 OA
BRANCH   3   5
ATOM      5  C   UNL d   1       1.894   0.224   0.000  0.00  0.00     0.058 A 
ATOM      6  C   UNL d   1       1.894  -0.608   0.000  0.00  0.00     0.005 A 
ATOM      7  C   UNL d   1       2.597  -1.029   0.000  0.00  0.00     0.000 A 
ATOM      8  C   UNL d   1       3.326  -0.626   0.000  0.00  0.00     0.000 A 
ATOM      9  C   UNL d   1       3.329   0.213   0.000  0.00  0.00     0.000 A 
ATOM     10  C   UNL d   1       2.601   0.634   0.000  0.00  0.00     0.005 A 
ENDBRANCH   3   5
ENDBRANCH   1   2
BRANCH   1  11
ATOM     11  S   UNL d   1      -0.987   0.224   0.000  0.00  0.00    -0.027 SA
BRANCH  11  12
ATOM     12  C   UNL d   1      -1.716   0.657   0.000  0.00  0.00     0.196 A 
ATOM     13  N   UNL d   1      -2.426   0.239   0.000  0.00  0.00    -0.221 NA
ATOM     14  C   UNL d   1      -3.140   0.657   0.000  0.00  0.00     0.085 A 
ATOM     15  C   UNL d   1      -3.777   0.304   0.000  0.00  0.00     0.021 C 
ATOM     16  C   UNL d   1      -3.140   1.500   0.000  0.00  0.00     0.038 A 
ATOM     17  C   UNL d   1      -2.426   1.898   0.000  0.00  0.00     0.085 A 
ATOM     18  N   UNL d   1      -1.716   1.500   0.000  0.00  0.00    -0.221 NA
ATOM     19  C   UNL d   1      -2.433   2.695   0.000  0.00  0.00     0.021 C 
ENDBRANCH  11  12
ENDBRANCH   1  11
TORSDOF 4
