REMARK  4 active torsions:
REMARK  status: ('A' for Active; 'I' for Inactive)
REMARK    1  A    between atoms: N_8  and  C_3 
REMARK    2  A    between atoms: C_9  and  C_4 
REMARK    3  A    between atoms: C_15  and  N_8 
REMARK    4  A    between atoms: C_10  and  C_15 
ROOT
ATOM      1  C   UNL d   1       0.532   0.222   0.000  0.00  0.00     0.192 A 
ATOM      2  N   UNL d   1       1.346   0.256   0.000  0.00  0.00    -0.208 NA
ATOM      3  C   UNL d   1       0.298  -0.558   0.000  0.00  0.00     0.212 A 
ATOM      4  C   UNL d   1       1.632  -0.543   0.000  0.00  0.00     0.185 A 
ATOM      5  O   UNL d   1       0.965  -1.044   0.000  0.00  0.00    -0.269 OA
ATOM      6  C   UNL d   1       0.004   0.871   0.000  0.00  0.00     0.124 C 
ATOM      7  N   UNL d   1      -0.516   1.523   0.000  0.00  0.00    -0.190 NA
ENDROOT
BRANCH   3   8
ATOM      8  N   UNL d   1      -0.516  -0.814   0.000  0.00  0.00    -0.217 NA
BRANCH   8   9
ATOM      9  C   UNL d   1      -0.697  -1.610   0.000  0.00  0.00     0.126 C 
BRANCH   9  10
ATOM     10  C   UNL d   1      -1.493  -1.843   0.000  0.00  0.00     0.119 A 
ATOM     11  O   UNL d   1      -2.202  -1.429   0.000  0.00  0.00    -0.304 OA
ATOM     12  C   UNL d   1      -2.816  -1.972   0.000  0.00  0.00     0.123 A 
ATOM     13  C   UNL d   1      -2.507  -2.714   0.000  0.00  0.00     0.029 A 
ATOM     14  C   UNL d   1      -1.693  -2.658   0.000  0.00  0.00     0.028 A 
ENDBRANCH   9  10
ENDBRANCH   8   9
ENDBRANCH   3   8
BRANCH   4  15
ATOM     15  C   UNL d   1       2.432  -0.758   0.000  0.00  0.00     0.041 A 
ATOM     16  C   UNL d   1       2.650  -1.553   0.000  0.00  0.00     0.004 A 
ATOM     17  C   UNL d   1       3.442  -1.768   0.000  0.00  0.00     0.000 A 
ATOM     18  C   UNL d   1       4.026  -1.191   0.000  0.00  0.00     0.000 A 
ATOM     19  C   UNL d   1       3.804  -0.396   0.000  0.00  0.00     0.000 A 
ATOM     20  C   UNL d   1       4.841  -1.429   0.000  0.00  0.00     0.000 C 
ATOM     21  C   UNL d   1       3.012  -0.181   0.000  0.00  0.00     0.004 A 
ENDBRANCH   4  15
TORSDOF 4
