REMARK  3 active torsions:
REMARK  status: ('A' for Active; 'I' for Inactive)
REMARK    1  A    between atoms: N_2  and  C_1 
REMARK       I    between atoms: C_5  and  N_2 
REMARK    2  A    between atoms: C_8  and  C_5 
REMARK    3  A    between atoms: O_17  and  C_13 
ROOT
ATOM      1  N   UNL d   1       2.478   0.640   0.000  0.00  0.00    -0.184 NA
ATOM      2  C   UNL d   1       3.051   1.235   0.000  0.00  0.00     0.281 C 
ATOM      3  O   UNL d   1       2.801   2.022   0.000  0.00  0.00    -0.265 OA
ENDROOT
BRANCH   1   4
ATOM      4  C   UNL d   1       1.676   0.853   0.000  0.00  0.00     0.182 A 
ATOM      5  N   UNL d   1       1.000   0.353   0.000  0.00  0.00    -0.283 N 
ATOM      6  C   UNL d   1       0.331   0.882   0.000  0.00  0.00     0.072 A 
ATOM      7  C   UNL d   1       1.000  -0.441   0.000  0.00  0.00     0.101 C 
ATOM      8  C   UNL d   1      -0.500   0.743   0.000  0.00  0.00     0.018 A 
ATOM      9  C   UNL d   1       0.618   1.625   0.000  0.00  0.00     0.048 A 
ATOM     10  C   UNL d   1      -1.029   1.404   0.000  0.00  0.00     0.002 A 
ATOM     11  C   UNL d   1      -0.728   2.154   0.000  0.00  0.00     0.001 A 
ATOM     12  C   UNL d   1       0.096   2.294   0.000  0.00  0.00     0.008 A 
ATOM     13  S   UNL d   1       1.419   1.625   0.000  0.00  0.00    -0.048 SA
ENDBRANCH   1   4
BRANCH   2  14
ATOM     14  C   UNL d   1       3.845   1.081   0.000  0.00  0.00     0.058 A 
ATOM     15  C   UNL d   1       4.374   1.698   0.000  0.00  0.00     0.007 A 
ATOM     16  C   UNL d   1       5.183   1.536   0.000  0.00  0.00     0.024 A 
ATOM     17  C   UNL d   1       5.448   0.764   0.000  0.00  0.00     0.094 A 
ATOM     18  C   UNL d   1       4.918   0.147   0.000  0.00  0.00     0.024 A 
ATOM     19  C   UNL d   1       4.088   0.287   0.000  0.00  0.00     0.007 A 
BRANCH  17  20
ATOM     20  O   UNL d   1       6.264   0.610   0.000  0.00  0.00    -0.328 OA
ATOM     21  C   UNL d   1       6.911   1.206   0.000  0.00  0.00     0.181 C 
ENDBRANCH  17  20
ENDBRANCH   2  14
TORSDOF 3
