REMARK  0 active torsions:
REMARK  status: ('A' for Active; 'I' for Inactive)
ROOT
ATOM      1  C   UNL d   1       1.929  -1.554   0.000  0.00  0.00     0.221 A 
ATOM      2  N   UNL d   1       1.929  -0.729   0.000  0.00  0.00    -0.217 NA
ATOM      3  N   UNL d   1       1.216  -1.974   0.000  0.00  0.00    -0.216 NA
ATOM      4  S   UNL d   1       2.628  -1.991   0.000  0.00  0.00    -0.037 SA
ATOM      5  C   UNL d   1       1.216  -0.317   0.000  0.00  0.00     0.085 A 
ATOM      6  C   UNL d   1       0.500  -1.554   0.000  0.00  0.00     0.103 A 
ATOM      7  C   UNL d   1       0.500  -0.729   0.000  0.00  0.00     0.040 A 
ATOM      8  C   UNL d   1       1.237   0.508   0.000  0.00  0.00     0.021 C 
ENDROOT
TORSDOF 0
