REMARK  4 active torsions:
REMARK  status: ('A' for Active; 'I' for Inactive)
REMARK    1  A    between atoms: N_2  and  C_1 
REMARK       I    between atoms: C_5  and  N_2 
REMARK    2  A    between atoms: C_8  and  C_5 
REMARK    3  A    between atoms: O_16  and  C_10 
REMARK    4  A    between atoms: O_17  and  C_12 
ROOT
ATOM      1  N   UNL d   1       2.474   0.639   0.000  0.00  0.00    -0.184 NA
ATOM      2  C   UNL d   1       3.047   1.234   0.000  0.00  0.00     0.281 C 
ATOM      3  O   UNL d   1       2.797   2.019   0.000  0.00  0.00    -0.265 OA
ENDROOT
BRANCH   2   4
ATOM      4  C   UNL d   1       3.840   1.079   0.000  0.00  0.00     0.060 A 
ATOM      5  C   UNL d   1       4.369   1.696   0.000  0.00  0.00     0.031 A 
ATOM      6  C   UNL d   1       5.176   1.534   0.000  0.00  0.00     0.116 A 
ATOM      7  C   UNL d   1       5.441   0.764   0.000  0.00  0.00     0.116 A 
ATOM      8  C   UNL d   1       4.912   0.147   0.000  0.00  0.00     0.026 A 
ATOM      9  C   UNL d   1       4.082   0.286   0.000  0.00  0.00     0.007 A 
BRANCH   6  10
ATOM     10  O   UNL d   1       5.727   2.173   0.000  0.00  0.00    -0.326 OA
ATOM     11  C   UNL d   1       5.265   2.996   0.000  0.00  0.00     0.181 C 
ENDBRANCH   6  10
BRANCH   7  12
ATOM     12  O   UNL d   1       6.256   0.609   0.000  0.00  0.00    -0.326 OA
ATOM     13  C   UNL d   1       6.902   1.204   0.000  0.00  0.00     0.181 C 
ENDBRANCH   7  12
ENDBRANCH   2   4
BRANCH   1  14
ATOM     14  C   UNL d   1       1.674   0.852   0.000  0.00  0.00     0.182 A 
ATOM     15  N   UNL d   1       0.999   0.352   0.000  0.00  0.00    -0.283 N 
ATOM     16  C   UNL d   1       0.330   0.881   0.000  0.00  0.00     0.072 A 
ATOM     17  C   UNL d   1       0.999  -0.441   0.000  0.00  0.00     0.101 C 
ATOM     18  C   UNL d   1      -0.499   0.742   0.000  0.00  0.00     0.018 A 
ATOM     19  C   UNL d   1       0.617   1.623   0.000  0.00  0.00     0.048 A 
ATOM     20  C   UNL d   1      -1.028   1.402   0.000  0.00  0.00     0.002 A 
ATOM     21  C   UNL d   1      -0.727   2.151   0.000  0.00  0.00     0.001 A 
ATOM     22  C   UNL d   1       0.096   2.291   0.000  0.00  0.00     0.008 A 
ATOM     23  S   UNL d   1       1.417   1.623   0.000  0.00  0.00    -0.048 SA
ENDBRANCH   1  14
TORSDOF 4
