REMARK  5 active torsions:
REMARK  status: ('A' for Active; 'I' for Inactive)
REMARK    1  A    between atoms: C_7  and  C_1 
REMARK    2  A    between atoms: C_6  and  C_3 
REMARK       I    between atoms: N_8  and  C_6 
REMARK    3  A    between atoms: O_14  and  C_7 
REMARK    4  A    between atoms: C_13  and  N_8 
REMARK    5  A    between atoms: C_15  and  O_14 
ROOT
ATOM      1  C   UNL d   1       1.309   0.867   0.000  0.00  0.00     0.090 A 
ATOM      2  C   UNL d   1       1.413   0.044   0.000  0.00  0.00     0.138 A 
ATOM      3  C   UNL d   1       0.131   0.289   0.000  0.00  0.00     0.089 A 
ATOM      4  C   UNL d   1       0.496   1.009   0.000  0.00  0.00     0.018 A 
ATOM      5  S   UNL d   1       0.660  -0.267   0.000  0.00  0.00    -0.061 SA
ATOM      6  N   UNL d   1       2.160  -0.349   0.000  0.00  0.00    -0.141 N 
ATOM      7  C   UNL d   1       0.153   1.795   0.000  0.00  0.00     0.001 C 
ENDROOT
BRANCH   3   8
ATOM      8  C   UNL d   1      -0.682   0.262   0.000  0.00  0.00     0.285 C 
ATOM      9  N   UNL d   1      -1.048  -0.458   0.000  0.00  0.00    -0.208 NA
ATOM     10  O   UNL d   1      -1.113   0.977   0.000  0.00  0.00    -0.265 OA
BRANCH   9  11
ATOM     11  C   UNL d   1      -0.606  -1.151   0.000  0.00  0.00     0.085 A 
ATOM     12  C   UNL d   1       0.169  -1.151   0.000  0.00  0.00     0.019 A 
ATOM     13  C   UNL d   1       0.546  -1.855   0.000  0.00  0.00     0.002 A 
ATOM     14  C   UNL d   1       0.196  -2.559   0.000  0.00  0.00     0.000 A 
ATOM     15  C   UNL d   1      -0.633  -2.619   0.000  0.00  0.00     0.002 A 
ATOM     16  C   UNL d   1      -1.026  -1.871   0.000  0.00  0.00     0.019 A 
ENDBRANCH   9  11
ENDBRANCH   3   8
BRANCH   1  17
ATOM     17  C   UNL d   1       1.904   1.418   0.000  0.00  0.00     0.302 C 
ATOM     18  O   UNL d   1       2.706   1.178   0.000  0.00  0.00    -0.259 OA
BRANCH  17  19
ATOM     19  O   UNL d   1       1.740   2.226   0.000  0.00  0.00    -0.271 OA
BRANCH  19  20
ATOM     20  C   UNL d   1       0.955   2.466   0.000  0.00  0.00     0.126 C 
ATOM     21  C   UNL d   1       0.786   3.273   0.000  0.00  0.00     0.029 C 
ENDBRANCH  19  20
ENDBRANCH  17  19
ENDBRANCH   1  17
TORSDOF 5
