REMARK  1 active torsions:
REMARK  status: ('A' for Active; 'I' for Inactive)
REMARK    1  A    between atoms: C_10  and  N_2 
ROOT
ATOM      1  C   UNL d   1      -0.157   0.891   0.000  0.00  0.00     0.759 A 
ATOM      2  N   UNL d   1      -0.157   0.046   0.000  0.00  0.00    -0.103 N 
ATOM      3  N   UNL d   1      -0.872   1.296   0.000  0.00  0.00    -0.038 N 
ATOM      4  C   UNL d   1      -0.872  -0.355   0.000  0.00  0.00     0.280 A 
ATOM      5  N   UNL d   1       0.463   1.441   0.000  0.00  0.00     0.066 NA
ATOM      6  C   UNL d   1      -1.590   0.046   0.000  0.00  0.00     0.075 A 
ATOM      7  N   UNL d   1      -0.688   2.122   0.000  0.00  0.00    -0.025 NA
ATOM      8  N   UNL d   1       0.118   2.198   0.000  0.00  0.00    -0.007 NA
ATOM      9  C   UNL d   1      -1.590   0.891   0.000  0.00  0.00     0.107 A 
ATOM     10  O   UNL d   1      -0.872  -1.196   0.000  0.00  0.00    -0.266 OA
ATOM     11  C   UNL d   1      -2.305  -0.355   0.000  0.00  0.00     0.006 A 
ATOM     12  C   UNL d   1      -2.305   1.296   0.000  0.00  0.00     0.020 A 
ATOM     13  C   UNL d   1      -3.024   0.046   0.000  0.00  0.00     0.000 A 
ATOM     14  C   UNL d   1      -3.024   0.891   0.000  0.00  0.00     0.002 A 
ENDROOT
BRANCH   2  15
ATOM     15  C   UNL d   1       0.554  -0.355   0.000  0.00  0.00     0.084 A 
ATOM     16  C   UNL d   1       1.273   0.046   0.000  0.00  0.00     0.017 A 
ATOM     17  C   UNL d   1       1.284   0.791   0.000  0.00  0.00     0.002 C 
ATOM     18  C   UNL d   1       1.988  -0.355   0.000  0.00  0.00     0.002 A 
ATOM     19  C   UNL d   1       1.988  -1.196   0.000  0.00  0.00     0.000 A 
ATOM     20  C   UNL d   1       1.273  -1.621   0.000  0.00  0.00     0.002 A 
ATOM     21  C   UNL d   1       0.554  -1.196   0.000  0.00  0.00     0.018 A 
ENDBRANCH   2  15
TORSDOF 1
