REMARK  6 active torsions:
REMARK  status: ('A' for Active; 'I' for Inactive)
REMARK       I    between atoms: N_2  and  C_1 
REMARK    1  A    between atoms: C_5  and  C_1 
REMARK    2  A    between atoms: C_4  and  N_2 
REMARK    3  A    between atoms: C_3  and  C_4 
REMARK    4  A    between atoms: N_7  and  C_4 
REMARK    5  A    between atoms: C_15  and  N_7 
REMARK    6  A    between atoms: C_14  and  C_15 
ROOT
ATOM      1  C   UNL d   1      -1.052  -0.370   0.000  0.00  0.00     0.280 C 
ATOM      2  N   UNL d   1      -0.299  -0.053   0.000  0.00  0.00    -0.189 NA
ATOM      3  O   UNL d   1      -1.158  -1.180   0.000  0.00  0.00    -0.265 OA
ENDROOT
BRANCH   2   4
ATOM      4  C   UNL d   1       0.370  -0.546   0.000  0.00  0.00     0.185 C 
BRANCH   4   5
ATOM      5  C   UNL d   1       0.264  -1.374   0.000  0.00  0.00     0.250 C 
ATOM      6 CL   UNL d   1      -0.550  -1.246   0.000  0.00  0.00    -0.075 Cl
ATOM      7 CL   UNL d   1       1.087  -1.457   0.000  0.00  0.00    -0.075 Cl
ATOM      8 CL   UNL d   1       0.163  -2.219   0.000  0.00  0.00    -0.075 Cl
ENDBRANCH   4   5
BRANCH   4   9
ATOM      9  N   UNL d   1       1.109  -0.211   0.000  0.00  0.00    -0.226 NA
BRANCH   9  10
ATOM     10  C   UNL d   1       1.796  -0.687   0.000  0.00  0.00     0.102 C 
BRANCH  10  11
ATOM     11  C   UNL d   1       2.536  -0.370   0.000  0.00  0.00     0.038 A 
ATOM     12  C   UNL d   1       3.201  -0.876   0.000  0.00  0.00     0.101 A 
ATOM     13  N   UNL d   1       3.962  -0.546   0.000  0.00  0.00    -0.242 NA
ATOM     14  C   UNL d   1       4.068   0.246   0.000  0.00  0.00     0.099 A 
ATOM     15  C   UNL d   1       3.399   0.740   0.000  0.00  0.00     0.021 A 
ATOM     16  C   UNL d   1       2.642   0.436   0.000  0.00  0.00     0.005 A 
ENDBRANCH  10  11
ENDBRANCH   9  10
ENDBRANCH   4   9
ENDBRANCH   2   4
BRANCH   1  17
ATOM     17  C   UNL d   1      -1.713   0.101   0.000  0.00  0.00     0.058 A 
ATOM     18  C   UNL d   1      -2.452  -0.211   0.000  0.00  0.00     0.005 A 
ATOM     19  C   UNL d   1      -3.130   0.260   0.000  0.00  0.00     0.000 A 
ATOM     20  C   UNL d   1      -2.518  -1.035   0.000  0.00  0.00     0.000 A 
ATOM     21  C   UNL d   1      -3.870  -0.092   0.000  0.00  0.00     0.000 A 
ATOM     22  C   UNL d   1      -3.047   1.070   0.000  0.00  0.00     0.000 A 
ATOM     23  C   UNL d   1      -3.945  -0.916   0.000  0.00  0.00     0.000 A 
ATOM     24  C   UNL d   1      -3.258  -1.405   0.000  0.00  0.00     0.000 A 
ATOM     25  C   UNL d   1      -2.285   1.409   0.000  0.00  0.00     0.000 A 
ATOM     26  C   UNL d   1      -1.633   0.920   0.000  0.00  0.00     0.005 A 
ENDBRANCH   1  17
TORSDOF 6
