REMARK  5 active torsions:
REMARK  status: ('A' for Active; 'I' for Inactive)
REMARK    1  A    between atoms: S_12  and  C_4 
REMARK    2  A    between atoms: C_7  and  C_5 
REMARK    3  A    between atoms: C_20  and  S_12 
REMARK    4  A    between atoms: C_14  and  C_20 
REMARK    5  A    between atoms: O_21  and  C_14 
ROOT
ATOM      1  C   UNL d   1      -0.267  -1.379   0.000  0.00  0.00     0.095 A 
ATOM      2  C   UNL d   1      -1.708  -1.379   0.000  0.00  0.00     0.108 A 
ATOM      3  N   UNL d   1      -0.990  -2.628   0.000  0.00  0.00    -0.217 NA
ATOM      4  C   UNL d   1      -0.267  -2.212   0.000  0.00  0.00     0.122 A 
ATOM      5  C   UNL d   1      -0.990  -0.967   0.000  0.00  0.00     0.047 A 
ATOM      6  C   UNL d   1      -1.708  -2.212   0.000  0.00  0.00     0.194 A 
ATOM      7  C   UNL d   1      -2.401  -0.967   0.000  0.00  0.00     0.104 C 
ATOM      8  C   UNL d   1       0.445  -0.960   0.000  0.00  0.00     0.103 C 
ATOM      9  N   UNL d   1       1.145  -0.548   0.000  0.00  0.00    -0.191 NA
ATOM     10  N   UNL d   1      -3.087  -0.567   0.000  0.00  0.00    -0.191 NA
ATOM     11  N   UNL d   1      -2.431  -2.628   0.000  0.00  0.00    -0.126 N 
ENDROOT
BRANCH   5  12
ATOM     12  C   UNL d   1      -0.990  -0.159   0.000  0.00  0.00     0.102 A 
ATOM     13  O   UNL d   1      -0.330   0.311   0.000  0.00  0.00    -0.305 OA
ATOM     14  C   UNL d   1      -0.589   1.112   0.000  0.00  0.00     0.123 A 
ATOM     15  C   UNL d   1      -1.379   1.097   0.000  0.00  0.00     0.029 A 
ATOM     16  C   UNL d   1      -1.645   0.341   0.000  0.00  0.00     0.027 A 
ENDBRANCH   5  12
BRANCH   4  17
ATOM     17  S   UNL d   1       0.449  -2.628   0.000  0.00  0.00    -0.061 SA
BRANCH  17  18
ATOM     18  C   UNL d   1       1.145  -2.239   0.000  0.00  0.00     0.105 C 
BRANCH  18  19
ATOM     19  C   UNL d   1       1.827  -2.639   0.000  0.00  0.00     0.303 C 
ATOM     20  O   UNL d   1       1.872  -3.191   0.000  0.00  0.00    -0.259 OA
BRANCH  19  21
ATOM     21  O   UNL d   1       2.524  -2.239   0.000  0.00  0.00    -0.295 OA
ATOM     22  C   UNL d   1       3.217  -2.639   0.000  0.00  0.00     0.185 C 
ENDBRANCH  19  21
ENDBRANCH  18  19
ENDBRANCH  17  18
ENDBRANCH   4  17
TORSDOF 5
