REMARK  8 active torsions:
REMARK  status: ('A' for Active; 'I' for Inactive)
REMARK    1  A    between atoms: C_14  and  C_1 
REMARK    2  A    between atoms: C_6  and  C_2 
REMARK    3  A    between atoms: C_19  and  C_4 
REMARK       I    between atoms: N_13  and  C_6 
REMARK    4  A    between atoms: C_7  and  S_18 
REMARK    5  A    between atoms: C_26  and  N_13 
REMARK    6  A    between atoms: C_22  and  C_14 
REMARK    7  A    between atoms: S_18  and  C_22 
REMARK    8  A    between atoms: O_31  and  C_27 
ROOT
ATOM      1  C   UNL d   1      -1.406  -1.035   0.000  0.00  0.00     0.076 A 
ATOM      2  C   UNL d   1       0.004  -1.035   0.000  0.00  0.00     0.092 A 
ATOM      3  C   UNL d   1      -0.698  -0.625   0.000  0.00  0.00     0.018 A 
ATOM      4  C   UNL d   1       0.004  -1.856   0.000  0.00  0.00     0.120 A 
ATOM      5  N   UNL d   1      -0.698  -2.267   0.000  0.00  0.00    -0.238 NA
ATOM      6  C   UNL d   1      -1.406  -1.856   0.000  0.00  0.00     0.087 A 
ATOM      7  C   UNL d   1       0.712  -0.625   0.000  0.00  0.00     0.103 C 
ATOM      8  N   UNL d   1       1.410  -0.222   0.000  0.00  0.00    -0.191 NA
ATOM      9  C   UNL d   1      -2.089  -2.238   0.000  0.00  0.00     0.021 C 
ENDROOT
BRANCH   4  10
ATOM     10  S   UNL d   1       0.712  -2.267   0.000  0.00  0.00    -0.063 SA
BRANCH  10  11
ATOM     11  C   UNL d   1       1.421  -1.864   0.000  0.00  0.00     0.079 C 
BRANCH  11  12
ATOM     12  C   UNL d   1       2.125  -2.271   0.000  0.00  0.00     0.207 C 
ATOM     13  O   UNL d   1       2.118  -3.139   0.000  0.00  0.00    -0.286 OA
BRANCH  12  14
ATOM     14  C   UNL d   1       2.877  -2.063   0.000  0.00  0.00     0.103 A 
ATOM     15  C   UNL d   1       3.578  -2.467   0.000  0.00  0.00     0.303 A 
ATOM     16  O   UNL d   1       4.276  -2.053   0.000  0.00  0.00    -0.273 OA
ATOM     17  O   UNL d   1       3.618  -3.328   0.000  0.00  0.00    -0.259 OA
ATOM     18  C   UNL d   1       4.272  -1.235   0.000  0.00  0.00     0.103 A 
ATOM     19  C   UNL d   1       3.575  -0.828   0.000  0.00  0.00     0.023 A 
ATOM     20  C   UNL d   1       5.002  -0.817   0.000  0.00  0.00     0.025 A 
ATOM     21  C   UNL d   1       2.866  -1.246   0.000  0.00  0.00     0.011 A 
ATOM     22  C   UNL d   1       3.564   0.011   0.000  0.00  0.00     0.002 A 
ATOM     23  C   UNL d   1       4.276   0.432   0.000  0.00  0.00     0.000 A 
ATOM     24  C   UNL d   1       5.002   0.011   0.000  0.00  0.00     0.002 A 
ENDBRANCH  12  14
ENDBRANCH  11  12
ENDBRANCH  10  11
ENDBRANCH   4  10
BRANCH   3  25
ATOM     25  C   UNL d   1      -0.698   0.193   0.000  0.00  0.00     0.001 A 
ATOM     26  C   UNL d   1       0.015   0.610   0.000  0.00  0.00     0.002 A 
ATOM     27  C   UNL d   1       0.015   1.439   0.000  0.00  0.00     0.024 A 
ATOM     28  C   UNL d   1      -0.698   1.849   0.000  0.00  0.00     0.094 A 
ATOM     29  C   UNL d   1      -1.413   1.439   0.000  0.00  0.00     0.024 A 
ATOM     30  C   UNL d   1      -1.413   0.610   0.000  0.00  0.00     0.002 A 
BRANCH  28  31
ATOM     31  O   UNL d   1      -0.672   2.659   0.000  0.00  0.00    -0.328 OA
ATOM     32  C   UNL d   1       0.164   3.037   0.000  0.00  0.00     0.181 C 
ENDBRANCH  28  31
ENDBRANCH   3  25
BRANCH   1  33
ATOM     33  C   UNL d   1      -2.350  -0.581   0.000  0.00  0.00     0.281 C 
ATOM     34  N   UNL d   1      -3.106  -0.774   0.000  0.00  0.00    -0.208 NA
ATOM     35  O   UNL d   1      -2.409   0.360   0.000  0.00  0.00    -0.265 OA
BRANCH  34  36
ATOM     36  C   UNL d   1      -3.658  -0.174   0.000  0.00  0.00     0.085 A 
ATOM     37  C   UNL d   1      -3.400   0.610   0.000  0.00  0.00     0.019 A 
ATOM     38  C   UNL d   1      -3.953   1.232   0.000  0.00  0.00     0.002 A 
ATOM     39  C   UNL d   1      -4.770   1.057   0.000  0.00  0.00     0.000 A 
ATOM     40  C   UNL d   1      -5.031   0.262   0.000  0.00  0.00     0.002 A 
ATOM     41  C   UNL d   1      -4.465  -0.349   0.000  0.00  0.00     0.019 A 
ENDBRANCH  34  36
ENDBRANCH   1  33
TORSDOF 8
