REMARK  2 active torsions:
REMARK  status: ('A' for Active; 'I' for Inactive)
REMARK    1  A    between atoms: C_7  and  C_1 
REMARK    2  A    between atoms: S_13  and  C_5 
ROOT
ATOM      1  C   UNL d   1      -0.715   0.811   0.000  0.00  0.00     0.025 A 
ATOM      2  C   UNL d   1      -1.427   0.396   0.000  0.00  0.00     0.106 A 
ATOM      3  C   UNL d   1       0.000   0.396   0.000  0.00  0.00     0.092 A 
ATOM      4  N   UNL d   1      -0.715  -0.840   0.000  0.00  0.00    -0.218 NA
ATOM      5  C   UNL d   1       0.000  -0.429   0.000  0.00  0.00     0.118 A 
ATOM      6  C   UNL d   1      -1.427  -0.429   0.000  0.00  0.00     0.194 A 
ATOM      7  C   UNL d   1      -2.143   0.811   0.000  0.00  0.00     0.104 C 
ATOM      8  C   UNL d   1       0.708   0.811   0.000  0.00  0.00     0.103 C 
ATOM      9  N   UNL d   1      -2.847   1.218   0.000  0.00  0.00    -0.191 NA
ATOM     10  N   UNL d   1       1.413   1.218   0.000  0.00  0.00    -0.191 NA
ATOM     11  N   UNL d   1      -2.143  -0.840   0.000  0.00  0.00    -0.126 N 
ENDROOT
BRANCH   1  12
ATOM     12  C   UNL d   1      -0.715   1.629   0.000  0.00  0.00     0.012 A 
ATOM     13  C   UNL d   1       0.000   2.043   0.000  0.00  0.00     0.058 A 
ATOM     14 CL   UNL d   1       0.708   1.629   0.000  0.00  0.00    -0.082 Cl
ATOM     15  C   UNL d   1       0.000   2.880   0.000  0.00  0.00     0.011 A 
ATOM     16  C   UNL d   1      -0.715   3.287   0.000  0.00  0.00     0.001 A 
ATOM     17  C   UNL d   1      -1.427   2.880   0.000  0.00  0.00     0.000 A 
ATOM     18  C   UNL d   1      -1.427   2.043   0.000  0.00  0.00     0.001 A 
ENDBRANCH   1  12
BRANCH   5  19
ATOM     19  S   UNL d   1       0.719  -0.840   0.000  0.00  0.00    -0.093 SA
ATOM     20  C   UNL d   1       1.435  -0.429   0.000  0.00  0.00     0.076 C 
ENDBRANCH   5  19
TORSDOF 2
