REMARK  2 active torsions:
REMARK  status: ('A' for Active; 'I' for Inactive)
REMARK    1  A    between atoms: N_4  and  C_2 
REMARK       I    between atoms: C_3  and  N_4 
REMARK    2  A    between atoms: C_5  and  C_3 
ROOT
ATOM      1  C   UNL d   1      -0.021   1.304   0.000  0.00  0.00     0.282 C 
ATOM      2  N   UNL d   1      -0.848   1.300   0.000  0.00  0.00    -0.182 NA
ATOM      3  O   UNL d   1       0.380   2.027   0.000  0.00  0.00    -0.265 OA
ENDROOT
BRANCH   1   4
ATOM      4  C   UNL d   1       0.389   0.585   0.000  0.00  0.00     0.069 A 
ATOM      5  C   UNL d   1       1.208   0.598   0.000  0.00  0.00     0.063 A 
ATOM      6  C   UNL d   1       1.622  -0.117   0.000  0.00  0.00     0.023 A 
ATOM      7 CL   UNL d   1       1.622   1.304   0.000  0.00  0.00    -0.082 Cl
ATOM      8  C   UNL d   1       1.208  -0.832   0.000  0.00  0.00     0.059 A 
ATOM      9  C   UNL d   1       0.389  -0.832   0.000  0.00  0.00     0.012 A 
ATOM     10 CL   UNL d   1       1.634  -1.555   0.000  0.00  0.00    -0.082 Cl
ATOM     11  C   UNL d   1      -0.013  -0.117   0.000  0.00  0.00     0.006 A 
ENDBRANCH   1   4
BRANCH   2  12
ATOM     12  C   UNL d   1      -1.254   0.585   0.000  0.00  0.00     0.204 A 
ATOM     13  N   UNL d   1      -2.077   0.497   0.000  0.00  0.00    -0.203 NA
ATOM     14  C   UNL d   1      -2.253  -0.318   0.000  0.00  0.00     0.174 A 
ATOM     15  S   UNL d   1      -1.526  -0.719   0.000  0.00  0.00    -0.018 SA
ATOM     16  S   UNL d   1      -3.005  -0.656   0.000  0.00  0.00    -0.050 SA
ATOM     17  S   UNL d   1      -0.886  -0.150   0.000  0.00  0.00    -0.010 SA
ENDBRANCH   2  12
TORSDOF 2
