REMARK  3 active torsions:
REMARK  status: ('A' for Active; 'I' for Inactive)
REMARK    1  A    between atoms: N_5  and  C_1 
REMARK    2  A    between atoms: C_7  and  N_4 
REMARK    3  A    between atoms: C_12  and  C_7 
ROOT
ATOM      1  C   UNL d   1      -1.954  -0.859   0.000  0.00  0.00     0.232 A 
ATOM      2  N   UNL d   1      -1.284  -0.388   0.000  0.00  0.00    -0.204 NA
ATOM      3  C   UNL d   1      -2.621  -0.388   0.000  0.00  0.00     0.141 A 
ATOM      4  N   UNL d   1      -2.369   0.407   0.000  0.00  0.00    -0.282 N 
ATOM      5  C   UNL d   1      -1.536   0.407   0.000  0.00  0.00     0.150 A 
ATOM      6 BR   UNL d   1      -3.419  -0.636   0.000  0.00  0.00    -0.026 Br
ATOM      7  C   UNL d   1      -1.013   1.081   0.000  0.00  0.00     0.041 C 
ENDROOT
BRANCH   4   8
ATOM      8  C   UNL d   1      -2.787   1.130   0.000  0.00  0.00     0.082 C 
BRANCH   8   9
ATOM      9  C   UNL d   1      -3.615   1.149   0.000  0.00  0.00     0.018 A 
ATOM     10  C   UNL d   1      -4.041   0.448   0.000  0.00  0.00     0.002 A 
ATOM     11  C   UNL d   1      -4.865   0.448   0.000  0.00  0.00     0.000 A 
ATOM     12  C   UNL d   1      -5.283   1.149   0.000  0.00  0.00     0.000 A 
ATOM     13  C   UNL d   1      -4.865   1.871   0.000  0.00  0.00     0.000 A 
ATOM     14  C   UNL d   1      -4.041   1.894   0.000  0.00  0.00     0.002 A 
ENDBRANCH   8   9
ENDBRANCH   4   8
BRANCH   1  15
ATOM     15  N   UNL d   1      -1.954  -1.676   0.000  0.00  0.00    -0.093 N 
ATOM     16  O   UNL d   1      -2.632  -2.158   0.000  0.00  0.00    -0.530 OA
ATOM     17  O   UNL d   1      -1.277  -2.139   0.000  0.00  0.00    -0.530 OA
ENDBRANCH   1  15
TORSDOF 3
