REMARK  8 active torsions:
REMARK  status: ('A' for Active; 'I' for Inactive)
REMARK    1  A    between atoms: C_4  and  C_1 
REMARK    2  A    between atoms: C_10  and  C_2 
REMARK    3  A    between atoms: C_15  and  C_9 
REMARK    4  A    between atoms: O_21  and  C_10 
REMARK    5  A    between atoms: O_22  and  C_15 
REMARK    6  A    between atoms: C_24  and  C_17 
REMARK    7  A    between atoms: C_25  and  O_21 
REMARK    8  A    between atoms: C_26  and  O_22 
ROOT
ATOM      1  C   UNL d   1      -1.047   1.435   0.000  0.00  0.00     0.090 A 
ATOM      2  C   UNL d   1      -1.047   2.259   0.000  0.00  0.00     0.168 A 
ATOM      3  C   UNL d   1      -1.762   1.024   0.000  0.00  0.00     0.201 A 
ATOM      4  C   UNL d   1      -2.471   1.435   0.000  0.00  0.00     0.062 A 
ATOM      5  O   UNL d   1      -1.762   2.671   0.000  0.00  0.00    -0.301 OA
ATOM      6  C   UNL d   1      -2.471   2.259   0.000  0.00  0.00     0.106 A 
ATOM      7  C   UNL d   1      -3.157   1.024   0.000  0.00  0.00     0.008 A 
ATOM      8  C   UNL d   1      -3.157   2.671   0.000  0.00  0.00     0.067 A 
ATOM      9  C   UNL d   1      -3.872   2.259   0.000  0.00  0.00     0.198 A 
ATOM     10  C   UNL d   1      -3.872   1.435   0.000  0.00  0.00     0.039 A 
ATOM     11  O   UNL d   1      -1.762   0.200   0.000  0.00  0.00    -0.286 OA
ATOM     12  O   UNL d   1      -4.615   2.694   0.000  0.00  0.00    -0.286 OA
ENDROOT
BRANCH   1  13
ATOM     13  C   UNL d   1      -0.360   1.024   0.000  0.00  0.00     0.105 A 
ATOM     14  O   UNL d   1      -0.337   0.223   0.000  0.00  0.00    -0.302 OA
ATOM     15  C   UNL d   1       0.463  -0.023   0.000  0.00  0.00     0.163 A 
ATOM     16  C   UNL d   1       0.932   0.663   0.000  0.00  0.00     0.032 A 
ATOM     17  C   UNL d   1       0.412   1.321   0.000  0.00  0.00     0.027 A 
BRANCH  15  18
ATOM     18  C   UNL d   1       0.738  -0.824   0.000  0.00  0.00     0.323 C 
ATOM     19  O   UNL d   1       0.212  -1.447   0.000  0.00  0.00    -0.257 OA
BRANCH  18  20
ATOM     20  O   UNL d   1       1.561  -0.984   0.000  0.00  0.00    -0.270 OA
BRANCH  20  21
ATOM     21  C   UNL d   1       1.836  -1.756   0.000  0.00  0.00     0.126 C 
ATOM     22  C   UNL d   1       2.631  -1.922   0.000  0.00  0.00     0.029 C 
ENDBRANCH  20  21
ENDBRANCH  18  20
ENDBRANCH  15  18
ENDBRANCH   1  13
BRANCH   2  23
ATOM     23  C   UNL d   1      -0.337   2.694   0.000  0.00  0.00     0.323 C 
ATOM     24  O   UNL d   1       0.383   2.282   0.000  0.00  0.00    -0.257 OA
BRANCH  23  25
ATOM     25  O   UNL d   1      -0.337   3.517   0.000  0.00  0.00    -0.270 OA
BRANCH  25  26
ATOM     26  C   UNL d   1       0.383   3.929   0.000  0.00  0.00     0.126 C 
ATOM     27  C   UNL d   1       0.383   4.753   0.000  0.00  0.00     0.029 C 
ENDBRANCH  25  26
ENDBRANCH  23  25
ENDBRANCH   2  23
BRANCH  10  28
ATOM     28  C   UNL d   1      -4.615   1.024   0.000  0.00  0.00     0.003 C 
ATOM     29  C   UNL d   1      -5.330   1.435   0.000  0.00  0.00     0.000 C 
ENDBRANCH  10  28
TORSDOF 8
