REMARK  3 active torsions:
REMARK  status: ('A' for Active; 'I' for Inactive)
REMARK    1  A    between atoms: C_2  and  C_1 
REMARK    2  A    between atoms: C_13  and  C_8 
REMARK    3  A    between atoms: O_23  and  C_20 
ROOT
ATOM      1  C   UNL d   1      -0.176   0.701   0.000  0.00  0.00     0.106 A 
ATOM      2  C   UNL d   1      -0.176  -0.149   0.000  0.00  0.00     0.304 A 
ATOM      3  C   UNL d   1      -0.891   1.109   0.000  0.00  0.00     0.011 A 
ATOM      4  C   UNL d   1      -1.588   0.701   0.000  0.00  0.00     0.023 A 
ATOM      5  O   UNL d   1      -0.891  -0.561   0.000  0.00  0.00    -0.273 OA
ATOM      6  C   UNL d   1      -1.588  -0.149   0.000  0.00  0.00     0.103 A 
ATOM      7  C   UNL d   1      -2.303   1.109   0.000  0.00  0.00     0.002 A 
ATOM      8  O   UNL d   1       0.561  -0.561   0.000  0.00  0.00    -0.259 OA
ATOM      9  C   UNL d   1      -2.303  -0.561   0.000  0.00  0.00     0.025 A 
ATOM     10  C   UNL d   1      -3.022   0.701   0.000  0.00  0.00     0.000 A 
ATOM     11  C   UNL d   1      -3.022  -0.149   0.000  0.00  0.00     0.002 A 
ATOM     12  C   UNL d   1      -2.280   1.937   0.000  0.00  0.00     0.000 A 
ATOM     13  C   UNL d   1      -3.715   1.109   0.000  0.00  0.00     0.000 A 
ATOM     14  C   UNL d   1      -3.000   2.348   0.000  0.00  0.00     0.000 A 
ATOM     15  C   UNL d   1      -3.715   1.937   0.000  0.00  0.00     0.000 A 
ENDROOT
BRANCH   1  16
ATOM     16  C   UNL d   1       0.543   1.109   0.000  0.00  0.00     0.210 A 
ATOM     17  O   UNL d   1       1.253   0.701   0.000  0.00  0.00    -0.268 OA
ATOM     18  C   UNL d   1       1.864   1.244   0.000  0.00  0.00     0.204 A 
ATOM     19  N   UNL d   1       1.520   1.977   0.000  0.00  0.00    -0.121 NA
ATOM     20  N   UNL d   1       0.710   1.896   0.000  0.00  0.00    -0.121 NA
BRANCH  18  21
ATOM     21  C   UNL d   1       2.692   1.176   0.000  0.00  0.00     0.043 A 
ATOM     22  C   UNL d   1       3.041   0.434   0.000  0.00  0.00     0.006 A 
ATOM     23  C   UNL d   1       3.841   0.348   0.000  0.00  0.00     0.024 A 
ATOM     24  C   UNL d   1       4.321   1.045   0.000  0.00  0.00     0.094 A 
ATOM     25  C   UNL d   1       3.968   1.787   0.000  0.00  0.00     0.024 A 
ATOM     26  C   UNL d   1       3.149   1.846   0.000  0.00  0.00     0.006 A 
BRANCH  24  27
ATOM     27  O   UNL d   1       5.145   1.000   0.000  0.00  0.00    -0.328 OA
ATOM     28  C   UNL d   1       5.597   1.679   0.000  0.00  0.00     0.181 C 
ENDBRANCH  24  27
ENDBRANCH  18  21
ENDBRANCH   1  16
TORSDOF 3
