REMARK  4 active torsions:
REMARK  status: ('A' for Active; 'I' for Inactive)
REMARK    1  A    between atoms: S_11  and  C_2 
REMARK    2  A    between atoms: C_7  and  C_3 
REMARK    3  A    between atoms: C_17  and  S_11 
REMARK    4  A    between atoms: C_13  and  C_17 
ROOT
ATOM      1  C   UNL d   1      -2.622  -1.800   0.000  0.00  0.00     0.092 A 
ATOM      2  C   UNL d   1      -2.622  -2.612   0.000  0.00  0.00     0.124 A 
ATOM      3  C   UNL d   1      -3.346  -1.386   0.000  0.00  0.00     0.017 A 
ATOM      4  N   UNL d   1      -3.346  -3.026   0.000  0.00  0.00    -0.201 NA
ATOM      5  C   UNL d   1      -4.060  -2.612   0.000  0.00  0.00     0.280 A 
ATOM      6  C   UNL d   1      -1.903  -1.386   0.000  0.00  0.00     0.103 C 
ATOM      7  N   UNL d   1      -1.179  -0.978   0.000  0.00  0.00    -0.191 NA
ATOM      8  C   UNL d   1      -4.060  -1.800   0.000  0.00  0.00     0.063 A 
ATOM      9  O   UNL d   1      -4.779  -3.026   0.000  0.00  0.00    -0.265 OA
ENDROOT
BRANCH   2  10
ATOM     10  S   UNL d   1      -1.903  -3.026   0.000  0.00  0.00    -0.067 SA
BRANCH  10  11
ATOM     11  C   UNL d   1      -1.179  -2.612   0.000  0.00  0.00     0.037 C 
BRANCH  11  12
ATOM     12  C   UNL d   1      -0.352  -3.015   0.000  0.00  0.00     0.007 C 
ATOM     13  C   UNL d   1       0.543  -2.550   0.000  0.00  0.00     0.001 C 
ENDBRANCH  11  12
ENDBRANCH  10  11
ENDBRANCH   2  10
BRANCH   3  14
ATOM     14  C   UNL d   1      -3.346  -0.564   0.000  0.00  0.00     0.011 A 
ATOM     15  C   UNL d   1      -4.050  -0.160   0.000  0.00  0.00     0.058 A 
ATOM     16 CL   UNL d   1      -4.991  -0.502   0.000  0.00  0.00    -0.082 Cl
ATOM     17  C   UNL d   1      -4.034   0.677   0.000  0.00  0.00     0.011 A 
ATOM     18  C   UNL d   1      -3.315   1.081   0.000  0.00  0.00     0.001 A 
ATOM     19  C   UNL d   1      -2.622   0.662   0.000  0.00  0.00     0.000 A 
ATOM     20  C   UNL d   1      -2.633  -0.171   0.000  0.00  0.00     0.001 A 
ENDBRANCH   3  14
TORSDOF 4
