REMARK  11 active torsions:
REMARK  status: ('A' for Active; 'I' for Inactive)
REMARK    1  A    between atoms: C_4  and  C_1 
REMARK    2  A    between atoms: C_10  and  C_2 
REMARK    3  A    between atoms: C_16  and  C_9 
REMARK    4  A    between atoms: O_24  and  C_10 
REMARK    5  A    between atoms: O_18  and  C_14 
REMARK    6  A    between atoms: O_25  and  C_16 
REMARK    7  A    between atoms: C_26  and  C_17 
REMARK    8  A    between atoms: C_19  and  O_18 
REMARK    9  A    between atoms: C_29  and  O_24 
REMARK   10  A    between atoms: C_28  and  O_25 
REMARK   11  A    between atoms: C_30  and  C_26 
ROOT
ATOM      1  C   UNL d   1       0.619   0.116   0.000  0.00  0.00     0.090 A 
ATOM      2  C   UNL d   1       0.619   0.941   0.000  0.00  0.00     0.168 A 
ATOM      3  C   UNL d   1      -0.103  -0.296   0.000  0.00  0.00     0.201 A 
ATOM      4  C   UNL d   1      -0.825   0.116   0.000  0.00  0.00     0.062 A 
ATOM      5  O   UNL d   1      -0.103   1.353   0.000  0.00  0.00    -0.301 OA
ATOM      6  C   UNL d   1      -0.825   0.941   0.000  0.00  0.00     0.105 A 
ATOM      7  C   UNL d   1      -1.529  -0.296   0.000  0.00  0.00     0.007 A 
ATOM      8  C   UNL d   1      -1.529   1.353   0.000  0.00  0.00     0.050 A 
ATOM      9  C   UNL d   1      -2.251   0.941   0.000  0.00  0.00     0.105 A 
ATOM     10  C   UNL d   1      -2.251   0.116   0.000  0.00  0.00     0.023 A 
ATOM     11  O   UNL d   1      -0.103  -1.121   0.000  0.00  0.00    -0.286 OA
ENDROOT
BRANCH   1  12
ATOM     12  C   UNL d   1       1.340  -0.296   0.000  0.00  0.00     0.105 A 
ATOM     13  O   UNL d   1       1.379  -1.121   0.000  0.00  0.00    -0.302 OA
ATOM     14  C   UNL d   1       2.165  -1.327   0.000  0.00  0.00     0.163 A 
ATOM     15  C   UNL d   1       2.616  -0.649   0.000  0.00  0.00     0.032 A 
ATOM     16  C   UNL d   1       2.100   0.013   0.000  0.00  0.00     0.027 A 
BRANCH  14  17
ATOM     17  C   UNL d   1       2.474  -2.113   0.000  0.00  0.00     0.323 C 
ATOM     18  O   UNL d   1       1.937  -2.770   0.000  0.00  0.00    -0.257 OA
BRANCH  17  19
ATOM     19  O   UNL d   1       3.277  -2.255   0.000  0.00  0.00    -0.270 OA
BRANCH  19  20
ATOM     20  C   UNL d   1       3.586  -3.019   0.000  0.00  0.00     0.126 C 
ATOM     21  C   UNL d   1       4.385  -3.144   0.000  0.00  0.00     0.029 C 
ENDBRANCH  19  20
ENDBRANCH  17  19
ENDBRANCH  14  17
ENDBRANCH   1  12
BRANCH   2  22
ATOM     22  C   UNL d   1       1.357   1.374   0.000  0.00  0.00     0.323 C 
ATOM     23  O   UNL d   1       2.062   0.962   0.000  0.00  0.00    -0.257 OA
BRANCH  22  24
ATOM     24  O   UNL d   1       1.357   2.199   0.000  0.00  0.00    -0.270 OA
BRANCH  24  25
ATOM     25  C   UNL d   1       2.079   2.611   0.000  0.00  0.00     0.126 C 
ATOM     26  C   UNL d   1       2.079   3.436   0.000  0.00  0.00     0.029 C 
ENDBRANCH  24  25
ENDBRANCH  22  24
ENDBRANCH   2  22
BRANCH  10  27
ATOM     27  C   UNL d   1      -2.989  -0.314   0.000  0.00  0.00     0.002 C 
BRANCH  27  28
ATOM     28  C   UNL d   1      -3.694   0.116   0.000  0.00  0.00     0.000 C 
ATOM     29  C   UNL d   1      -4.415  -0.314   0.000  0.00  0.00     0.000 C 
ENDBRANCH  27  28
ENDBRANCH  10  27
BRANCH   9  30
ATOM     30  O   UNL d   1      -2.989   1.374   0.000  0.00  0.00    -0.273 OA
BRANCH  30  31
ATOM     31  C   UNL d   1      -2.972   2.178   0.000  0.00  0.00     0.300 C 
ATOM     32  O   UNL d   1      -2.435   2.487   0.000  0.00  0.00    -0.259 OA
ATOM     33  C   UNL d   1      -3.672   2.611   0.000  0.00  0.00     0.074 C 
ENDBRANCH  30  31
ENDBRANCH   9  30
TORSDOF 11
