REMARK  1 active torsions:
REMARK  status: ('A' for Active; 'I' for Inactive)
REMARK    1  A    between atoms: C_7  and  C_1 
ROOT
ATOM      1  C   UNL d   1      -0.418  -0.079   0.000  0.00  0.00     0.062 A 
ATOM      2  C   UNL d   1      -1.137  -0.476   0.000  0.00  0.00     0.202 A 
ATOM      3  C   UNL d   1      -1.849  -0.079   0.000  0.00  0.00     0.101 A 
ATOM      4  C   UNL d   1      -0.418   0.757   0.000  0.00  0.00     0.103 A 
ATOM      5  C   UNL d   1      -1.849   0.757   0.000  0.00  0.00     0.109 A 
ATOM      6  O   UNL d   1      -1.137   1.175   0.000  0.00  0.00    -0.307 OA
ATOM      7  C   UNL d   1      -2.544  -0.476   0.000  0.00  0.00     0.204 A 
ATOM      8  C   UNL d   1      -2.544   1.175   0.000  0.00  0.00     0.067 A 
ATOM      9  C   UNL d   1      -3.259  -0.079   0.000  0.00  0.00     0.084 A 
ATOM     10  O   UNL d   1      -1.137  -1.307   0.000  0.00  0.00    -0.286 OA
ATOM     11  C   UNL d   1      -3.259   0.757   0.000  0.00  0.00     0.201 A 
ATOM     12  O   UNL d   1      -2.544  -1.307   0.000  0.00  0.00    -0.286 OA
ATOM     13  C   UNL d   1       0.298   1.175   0.000  0.00  0.00     0.027 C 
ATOM     14  O   UNL d   1      -3.971   1.175   0.000  0.00  0.00    -0.286 OA
ENDROOT
BRANCH   1  15
ATOM     15  C   UNL d   1       0.298  -0.496   0.000  0.00  0.00     0.007 A 
ATOM     16  C   UNL d   1       0.993  -0.079   0.000  0.00  0.00     0.027 A 
ATOM     17  C   UNL d   1       1.704  -0.496   0.000  0.00  0.00     0.123 A 
ATOM     18  O   UNL d   1       2.337   0.021   0.000  0.00  0.00    -0.303 OA
ATOM     19  C   UNL d   1       1.704  -1.307   0.000  0.00  0.00     0.123 A 
ATOM     20  C   UNL d   1       3.131  -0.153   0.000  0.00  0.00     0.125 A 
ATOM     21  C   UNL d   1       3.491  -0.893   0.000  0.00  0.00     0.053 A 
ATOM     22  C   UNL d   1       3.131  -1.642   0.000  0.00  0.00     0.125 A 
ATOM     23  O   UNL d   1       2.337  -1.824   0.000  0.00  0.00    -0.303 OA
ATOM     24  C   UNL d   1       0.993  -1.725   0.000  0.00  0.00     0.027 A 
ATOM     25  C   UNL d   1       0.277  -1.307   0.000  0.00  0.00     0.002 A 
ENDBRANCH   1  15
TORSDOF 1
