REMARK  4 active torsions:
REMARK  status: ('A' for Active; 'I' for Inactive)
REMARK    1  A    between atoms: C_10  and  C_1 
REMARK    2  A    between atoms: N_7  and  C_4 
REMARK    3  A    between atoms: N_16  and  C_9 
REMARK    4  A    between atoms: C_15  and  C_10 
ROOT
ATOM      1  C   UNL d   1      -1.792  -0.018   0.000  0.00  0.00     0.143 A 
ATOM      2  C   UNL d   1      -1.792   0.811   0.000  0.00  0.00     0.086 A 
ATOM      3  C   UNL d   1      -1.079  -0.433   0.000  0.00  0.00     0.025 A 
ATOM      4  C   UNL d   1      -1.071   1.218   0.000  0.00  0.00     0.019 A 
ATOM      5  C   UNL d   1      -0.368  -0.018   0.000  0.00  0.00     0.002 A 
ATOM      6  C   UNL d   1      -0.368   0.811   0.000  0.00  0.00     0.002 A 
ENDROOT
BRANCH   5   7
ATOM      7  C   UNL d   1       0.343  -0.433   0.000  0.00  0.00     0.010 C 
BRANCH   7   8
ATOM      8  C   UNL d   1       1.061  -0.003   0.000  0.00  0.00     0.116 A 
ATOM      9  C   UNL d   1       1.764  -0.420   0.000  0.00  0.00     0.288 A 
ATOM     10  N   UNL d   1       2.475  -0.003   0.000  0.00  0.00    -0.152 NA
ATOM     11  O   UNL d   1       1.764  -1.239   0.000  0.00  0.00    -0.265 OA
ATOM     12  C   UNL d   1       2.475   0.824   0.000  0.00  0.00     0.374 A 
ATOM     13  N   UNL d   1       1.764   1.226   0.000  0.00  0.00    -0.152 NA
ATOM     14  O   UNL d   1       3.185   1.249   0.000  0.00  0.00    -0.242 OA
ATOM     15  C   UNL d   1       1.061   0.824   0.000  0.00  0.00     0.288 A 
ATOM     16  O   UNL d   1       0.343   1.249   0.000  0.00  0.00    -0.265 OA
ENDBRANCH   7   8
ENDBRANCH   5   7
BRANCH   1  17
ATOM     17  N   UNL d   1      -2.500  -0.425   0.000  0.00  0.00    -0.112 N 
ATOM     18  O   UNL d   1      -3.203  -0.003   0.000  0.00  0.00    -0.532 OA
ATOM     19  O   UNL d   1      -2.485  -1.239   0.000  0.00  0.00    -0.532 OA
ENDBRANCH   1  17
BRANCH   2  20
ATOM     20  N   UNL d   1      -2.500   1.218   0.000  0.00  0.00    -0.300 N 
ATOM     21  C   UNL d   1      -2.500   2.047   0.000  0.00  0.00     0.100 C 
ATOM     22  C   UNL d   1      -3.190   0.801   0.000  0.00  0.00     0.100 C 
ENDBRANCH   2  20
TORSDOF 4
