REMARK  7 active torsions:
REMARK  status: ('A' for Active; 'I' for Inactive)
REMARK    1  A    between atoms: C_7  and  C_1 
REMARK    2  A    between atoms: C_8  and  C_3 
REMARK    3  A    between atoms: O_17  and  C_7 
REMARK    4  A    between atoms: N_11  and  C_10 
REMARK    5  A    between atoms: C_19  and  N_11 
REMARK    6  A    between atoms: C_20  and  N_11 
REMARK    7  A    between atoms: C_21  and  O_17 
ROOT
ATOM      1  C   UNL d   1      -1.708   0.565   0.000  0.00  0.00     0.099 A 
ATOM      2  C   UNL d   1      -2.407   0.978   0.000  0.00  0.00     0.093 A 
ATOM      3  C   UNL d   1      -1.708  -0.272   0.000  0.00  0.00     0.093 A 
ATOM      4  C   UNL d   1      -3.121  -0.272   0.000  0.00  0.00     0.369 A 
ATOM      5  N   UNL d   1      -3.121   0.565   0.000  0.00  0.00    -0.191 NA
ATOM      6  N   UNL d   1      -2.407  -0.684   0.000  0.00  0.00    -0.191 NA
ATOM      7  O   UNL d   1      -3.850  -0.684   0.000  0.00  0.00    -0.242 OA
ATOM      8  C   UNL d   1      -2.407   1.804   0.000  0.00  0.00     0.021 C 
ENDROOT
BRANCH   3   9
ATOM      9  C   UNL d   1      -0.993  -0.684   0.000  0.00  0.00     0.018 A 
ATOM     10  C   UNL d   1      -0.279  -0.272   0.000  0.00  0.00     0.003 A 
ATOM     11  C   UNL d   1       0.435  -0.684   0.000  0.00  0.00     0.018 A 
ATOM     12  C   UNL d   1       0.450  -1.507   0.000  0.00  0.00     0.064 A 
ATOM     13  C   UNL d   1      -0.264  -1.919   0.000  0.00  0.00     0.018 A 
ATOM     14  C   UNL d   1      -0.978  -1.507   0.000  0.00  0.00     0.003 A 
BRANCH  12  15
ATOM     15  N   UNL d   1       1.187  -1.919   0.000  0.00  0.00    -0.304 N 
BRANCH  15  16
ATOM     16  C   UNL d   1       1.205  -2.738   0.000  0.00  0.00     0.080 C 
ATOM     17  C   UNL d   1       0.506  -3.169   0.000  0.00  0.00     0.021 C 
ENDBRANCH  15  16
BRANCH  15  18
ATOM     18  C   UNL d   1       1.879  -1.488   0.000  0.00  0.00     0.080 C 
ATOM     19  C   UNL d   1       2.593  -1.879   0.000  0.00  0.00     0.021 C 
ENDBRANCH  15  18
ENDBRANCH  12  15
ENDBRANCH   3   9
BRANCH   1  20
ATOM     20  C   UNL d   1      -0.978   0.993   0.000  0.00  0.00     0.303 C 
ATOM     21  O   UNL d   1      -0.264   0.580   0.000  0.00  0.00    -0.259 OA
BRANCH  20  22
ATOM     22  O   UNL d   1      -0.978   1.815   0.000  0.00  0.00    -0.271 OA
BRANCH  22  23
ATOM     23  C   UNL d   1      -1.692   2.228   0.000  0.00  0.00     0.126 C 
ATOM     24  C   UNL d   1      -1.692   3.054   0.000  0.00  0.00     0.029 C 
ENDBRANCH  22  23
ENDBRANCH  20  22
ENDBRANCH   1  20
TORSDOF 7
