REMARK  4 active torsions:
REMARK  status: ('A' for Active; 'I' for Inactive)
REMARK    1  A    between atoms: C_2  and  C_1 
REMARK    2  A    between atoms: C_3  and  C_2 
REMARK    3  A    between atoms: C_5  and  C_3 
REMARK    4  A    between atoms: C_13  and  C_5 
ROOT
ATOM      1  C   UNL d   1      -2.798   0.016   0.000  0.00  0.00     0.042 C 
ENDROOT
BRANCH   1   2
ATOM      2  C   UNL d   1      -3.487  -0.439   0.000  0.00  0.00     0.199 C 
ATOM      3  O   UNL d   1      -3.445  -1.253   0.000  0.00  0.00    -0.286 OA
BRANCH   2   4
ATOM      4  C   UNL d   1      -4.213  -0.063   0.000  0.00  0.00     0.078 A 
ATOM      5  C   UNL d   1      -4.286   0.746   0.000  0.00  0.00     0.199 A 
ATOM      6  C   UNL d   1      -5.006   1.107   0.000  0.00  0.00     0.042 A 
ATOM      7  O   UNL d   1      -3.550   1.232   0.000  0.00  0.00    -0.286 OA
ATOM      8  C   UNL d   1      -5.700   0.684   0.000  0.00  0.00     0.003 A 
ATOM      9  C   UNL d   1      -5.664  -0.115   0.000  0.00  0.00     0.000 A 
ATOM     10  C   UNL d   1      -4.928  -0.501   0.000  0.00  0.00     0.006 A 
ATOM     11  C   UNL d   1      -6.212  -0.585   0.000  0.00  0.00     0.000 C 
ENDBRANCH   2   4
ENDBRANCH   1   2
BRANCH   1  12
ATOM     12  C   UNL d   1      -2.125  -0.475   0.000  0.00  0.00     0.003 C 
BRANCH  12  13
ATOM     13  C   UNL d   1      -1.315  -0.084   0.000  0.00  0.00     0.002 A 
ATOM     14  C   UNL d   1      -1.216   0.705   0.000  0.00  0.00     0.027 A 
ATOM     15  C   UNL d   1      -0.465   1.044   0.000  0.00  0.00     0.123 A 
ATOM     16  O   UNL d   1      -0.355   1.895   0.000  0.00  0.00    -0.301 OA
ATOM     17  C   UNL d   1       0.251   0.564   0.000  0.00  0.00     0.123 A 
ATOM     18  C   UNL d   1       0.381   2.250   0.000  0.00  0.00     0.149 A 
ATOM     19  C   UNL d   1       1.112   1.749   0.000  0.00  0.00     0.149 A 
ATOM     20  O   UNL d   1       1.023   0.934   0.000  0.00  0.00    -0.301 OA
ATOM     21  C   UNL d   1       0.162  -0.272   0.000  0.00  0.00     0.027 A 
ATOM     22  C   UNL d   1      -0.590  -0.600   0.000  0.00  0.00     0.002 A 
ENDBRANCH  12  13
ENDBRANCH   1  12
TORSDOF 4
