REMARK  6 active torsions:
REMARK  status: ('A' for Active; 'I' for Inactive)
REMARK    1  A    between atoms: C_8  and  C_1 
REMARK    2  A    between atoms: C_7  and  C_2 
REMARK    3  A    between atoms: O_11  and  C_7 
REMARK    4  A    between atoms: O_12  and  C_8 
REMARK    5  A    between atoms: C_16  and  O_11 
REMARK    6  A    between atoms: C_15  and  O_12 
ROOT
ATOM      1  C   UNL d   1      -0.367  -0.678   0.000  0.00  0.00     0.081 A 
ATOM      2  C   UNL d   1       1.066  -0.678   0.000  0.00  0.00     0.081 A 
ATOM      3  N   UNL d   1       0.349  -1.914   0.000  0.00  0.00    -0.245 NA
ATOM      4  C   UNL d   1       1.066  -1.503   0.000  0.00  0.00     0.086 A 
ATOM      5  C   UNL d   1      -0.367  -1.503   0.000  0.00  0.00     0.086 A 
ATOM      6  C   UNL d   1       0.349  -0.270   0.000  0.00  0.00     0.014 A 
ATOM      7  C   UNL d   1      -1.079  -1.929   0.000  0.00  0.00     0.021 C 
ATOM      8  C   UNL d   1       1.798  -1.929   0.000  0.00  0.00     0.021 C 
ENDROOT
BRANCH   1   9
ATOM      9  C   UNL d   1      -1.079  -0.249   0.000  0.00  0.00     0.302 C 
ATOM     10  O   UNL d   1      -1.079   0.576   0.000  0.00  0.00    -0.259 OA
BRANCH   9  11
ATOM     11  O   UNL d   1      -1.796  -0.658   0.000  0.00  0.00    -0.271 OA
BRANCH  11  12
ATOM     12  C   UNL d   1      -2.510  -0.249   0.000  0.00  0.00     0.126 C 
ATOM     13  C   UNL d   1      -2.479   0.521   0.000  0.00  0.00     0.029 C 
ENDBRANCH  11  12
ENDBRANCH   9  11
ENDBRANCH   1   9
BRANCH   2  14
ATOM     14  C   UNL d   1       1.798  -0.270   0.000  0.00  0.00     0.302 C 
ATOM     15  O   UNL d   1       2.497  -0.678   0.000  0.00  0.00    -0.259 OA
BRANCH  14  16
ATOM     16  O   UNL d   1       1.798   0.576   0.000  0.00  0.00    -0.271 OA
BRANCH  16  17
ATOM     17  C   UNL d   1       2.497   0.987   0.000  0.00  0.00     0.126 C 
ATOM     18  C   UNL d   1       3.299   0.583   0.000  0.00  0.00     0.029 C 
ENDBRANCH  16  17
ENDBRANCH  14  16
ENDBRANCH   2  14
TORSDOF 6
