REMARK  4 active torsions:
REMARK  status: ('A' for Active; 'I' for Inactive)
REMARK    1  A    between atoms: C_5  and  N_1 
REMARK       I    between atoms: C_2  and  N_3 
REMARK    2  A    between atoms: C_6  and  C_2 
REMARK    3  A    between atoms: N_3  and  C_4 
REMARK    4  A    between atoms: O_18  and  C_11 
ROOT
ATOM      1  C   UNL d   1      -2.788  -0.678   0.000  0.00  0.00     0.108 A 
ATOM      2  C   UNL d   1      -4.097  -0.264   0.000  0.00  0.00     0.128 A 
ATOM      3  C   UNL d   1      -3.325  -0.066   0.000  0.00  0.00     0.045 A 
ATOM      4  C   UNL d   1      -3.014  -1.441   0.000  0.00  0.00     0.112 A 
ATOM      5  C   UNL d   1      -4.370  -0.989   0.000  0.00  0.00     0.026 A 
ATOM      6  C   UNL d   1      -3.833  -1.620   0.000  0.00  0.00     0.027 A 
ENDROOT
BRANCH   1   7
ATOM      7  N   UNL d   1      -1.921  -0.490   0.000  0.00  0.00    -0.204 NA
ATOM      8  C   UNL d   1      -1.384  -1.130   0.000  0.00  0.00     0.302 C 
ATOM      9  O   UNL d   1      -1.695  -1.893   0.000  0.00  0.00    -0.263 OA
BRANCH   8  10
ATOM     10  C   UNL d   1      -0.565  -1.017   0.000  0.00  0.00     0.158 A 
ATOM     11  O   UNL d   1       0.038  -1.582   0.000  0.00  0.00    -0.300 OA
ATOM     12  C   UNL d   1       0.763  -1.168   0.000  0.00  0.00     0.123 A 
ATOM     13  C   UNL d   1       0.575  -0.348   0.000  0.00  0.00     0.029 A 
ATOM     14  C   UNL d   1      -0.226  -0.292   0.000  0.00  0.00     0.032 A 
ENDBRANCH   8  10
ENDBRANCH   1   7
BRANCH   4  15
ATOM     15  O   UNL d   1      -2.477  -2.072   0.000  0.00  0.00    -0.327 OA
ATOM     16  C   UNL d   1      -2.788  -2.891   0.000  0.00  0.00     0.181 C 
ENDBRANCH   4  15
BRANCH   2  17
ATOM     17  N   UNL d   1      -4.681   0.414   0.000  0.00  0.00    -0.114 N 
ATOM     18  O   UNL d   1      -4.408   1.234   0.000  0.00  0.00    -0.532 OA
ATOM     19  O   UNL d   1      -5.500   0.226   0.000  0.00  0.00    -0.532 OA
ENDBRANCH   2  17
TORSDOF 4
