REMARK  5 active torsions:
REMARK  status: ('A' for Active; 'I' for Inactive)
REMARK    1  A    between atoms: C_2  and  C_1 
REMARK    2  A    between atoms: O_16  and  C_12 
REMARK    3  A    between atoms: C_21  and  C_14 
REMARK    4  A    between atoms: C_17  and  O_16 
REMARK    5  A    between atoms: C_24  and  C_21 
ROOT
ATOM      1  C   UNL d   1      -0.088  -0.281   0.000  0.00  0.00     0.086 A 
ATOM      2  C   UNL d   1      -0.791  -0.703   0.000  0.00  0.00     0.201 A 
ATOM      3  C   UNL d   1      -1.523  -0.281   0.000  0.00  0.00     0.062 A 
ATOM      4  C   UNL d   1      -0.088   0.539   0.000  0.00  0.00     0.105 A 
ATOM      5  C   UNL d   1      -1.523   0.562   0.000  0.00  0.00     0.105 A 
ATOM      6  O   UNL d   1      -0.791   0.960   0.000  0.00  0.00    -0.307 OA
ATOM      7  C   UNL d   1      -2.225  -0.703   0.000  0.00  0.00     0.007 A 
ATOM      8  C   UNL d   1      -2.225   0.960   0.000  0.00  0.00     0.050 A 
ATOM      9  C   UNL d   1      -2.928   0.539   0.000  0.00  0.00     0.105 A 
ATOM     10  C   UNL d   1      -2.928  -0.281   0.000  0.00  0.00     0.023 A 
ATOM     11  O   UNL d   1      -0.767  -1.517   0.000  0.00  0.00    -0.286 OA
ATOM     12  C   UNL d   1       0.638   0.960   0.000  0.00  0.00     0.027 C 
ENDROOT
BRANCH   1  13
ATOM     13  C   UNL d   1       0.638  -0.673   0.000  0.00  0.00     0.116 A 
ATOM     14  N   UNL d   1       0.843  -1.482   0.000  0.00  0.00    -0.238 NA
ATOM     15  C   UNL d   1       1.657  -1.546   0.000  0.00  0.00     0.088 A 
ATOM     16  C   UNL d   1       2.108  -2.249   0.000  0.00  0.00     0.021 C 
ATOM     17  C   UNL d   1       1.968  -0.814   0.000  0.00  0.00     0.056 A 
ATOM     18  S   UNL d   1       1.341  -0.252   0.000  0.00  0.00    -0.066 SA
ENDBRANCH   1  13
BRANCH  10  19
ATOM     19  C   UNL d   1      -3.684  -0.673   0.000  0.00  0.00     0.002 C 
BRANCH  19  20
ATOM     20  C   UNL d   1      -4.386  -0.217   0.000  0.00  0.00     0.000 C 
ATOM     21  C   UNL d   1      -5.124  -0.586   0.000  0.00  0.00     0.000 C 
ENDBRANCH  19  20
ENDBRANCH  10  19
BRANCH   9  22
ATOM     22  O   UNL d   1      -3.654   0.960   0.000  0.00  0.00    -0.273 OA
BRANCH  22  23
ATOM     23  C   UNL d   1      -3.631   1.804   0.000  0.00  0.00     0.300 C 
ATOM     24  O   UNL d   1      -4.334   2.196   0.000  0.00  0.00    -0.259 OA
ATOM     25  C   UNL d   1      -2.875   2.196   0.000  0.00  0.00     0.074 C 
ENDBRANCH  22  23
ENDBRANCH   9  22
TORSDOF 5
