REMARK  1 active torsions:
REMARK  status: ('A' for Active; 'I' for Inactive)
REMARK    1  A    between atoms: C_6  and  C_1 
ROOT
ATOM      1  C   UNL d   1      -2.046  -3.048   0.000  0.00  0.00     0.163 A 
ATOM      2  N   UNL d   1      -2.523  -2.376   0.000  0.00  0.00    -0.225 NA
ATOM      3  N   UNL d   1      -2.523  -3.732   0.000  0.00  0.00    -0.225 NA
ATOM      4  C   UNL d   1      -3.319  -2.623   0.000  0.00  0.00     0.101 A 
ATOM      5  C   UNL d   1      -3.319  -3.472   0.000  0.00  0.00     0.101 A 
ATOM      6  C   UNL d   1      -4.026  -2.234   0.000  0.00  0.00     0.021 A 
ATOM      7  C   UNL d   1      -4.026  -3.873   0.000  0.00  0.00     0.021 A 
ATOM      8  C   UNL d   1      -4.734  -2.659   0.000  0.00  0.00     0.002 A 
ATOM      9  C   UNL d   1      -4.734  -3.449   0.000  0.00  0.00     0.002 A 
ENDROOT
BRANCH   1  10
ATOM     10  C   UNL d   1      -1.220  -3.024   0.000  0.00  0.00     0.039 A 
ATOM     11  C   UNL d   1      -0.796  -2.317   0.000  0.00  0.00     0.024 A 
ATOM     12  C   UNL d   1       0.024  -2.317   0.000  0.00  0.00     0.099 A 
ATOM     13  N   UNL d   1       0.477  -2.995   0.000  0.00  0.00    -0.242 NA
ATOM     14  C   UNL d   1       0.053  -3.732   0.000  0.00  0.00     0.099 A 
ATOM     15  C   UNL d   1      -0.796  -3.732   0.000  0.00  0.00     0.024 A 
ENDBRANCH   1  10
TORSDOF 1
