REMARK  2 active torsions:
REMARK  status: ('A' for Active; 'I' for Inactive)
REMARK    1  A    between atoms: C_9  and  C_1 
REMARK    2  A    between atoms: O_13  and  C_11 
ROOT
ATOM      1  C   UNL d   1       1.048   2.347   0.000  0.00  0.00     0.064 A 
ATOM      2  C   UNL d   1       0.333   1.947   0.000  0.00  0.00     0.199 A 
ATOM      3  C   UNL d   1      -0.394   2.347   0.000  0.00  0.00     0.062 A 
ATOM      4  C   UNL d   1       1.048   3.195   0.000  0.00  0.00     0.126 A 
ATOM      5  C   UNL d   1      -0.394   3.173   0.000  0.00  0.00     0.105 A 
ATOM      6  O   UNL d   1       0.333   3.606   0.000  0.00  0.00    -0.305 OA
ATOM      7  C   UNL d   1      -1.082   1.947   0.000  0.00  0.00     0.007 A 
ATOM      8  C   UNL d   1      -1.082   3.606   0.000  0.00  0.00     0.049 A 
ATOM      9  O   UNL d   1       0.333   1.126   0.000  0.00  0.00    -0.286 OA
ATOM     10  C   UNL d   1      -1.797   3.195   0.000  0.00  0.00     0.096 A 
ATOM     11  C   UNL d   1      -1.797   2.347   0.000  0.00  0.00     0.024 A 
ENDROOT
BRANCH   1  12
ATOM     12  C   UNL d   1       1.736   1.925   0.000  0.00  0.00     0.005 A 
ATOM     13  C   UNL d   1       1.714   1.082   0.000  0.00  0.00     0.000 A 
ATOM     14  C   UNL d   1       2.402   0.660   0.000  0.00  0.00     0.000 A 
ATOM     15  C   UNL d   1       3.134   1.043   0.000  0.00  0.00     0.000 A 
ATOM     16  C   UNL d   1       3.168   1.881   0.000  0.00  0.00     0.000 A 
ATOM     17  C   UNL d   1       2.469   2.308   0.000  0.00  0.00     0.000 A 
ENDBRANCH   1  12
BRANCH  10  18
ATOM     18  O   UNL d   1      -2.524   3.656   0.000  0.00  0.00    -0.328 OA
ATOM     19  C   UNL d   1      -3.240   3.256   0.000  0.00  0.00     0.181 C 
ENDBRANCH  10  18
TORSDOF 2
