REMARK  1 active torsions:
REMARK  status: ('A' for Active; 'I' for Inactive)
REMARK    1  A    between atoms: C_15  and  C_10 
ROOT
ATOM      1  C   UNL d   1      -1.785   0.185   0.000  0.00  0.00     0.111 A 
ATOM      2  C   UNL d   1      -3.210   0.185   0.000  0.00  0.00     0.062 A 
ATOM      3  C   UNL d   1      -3.210  -0.623   0.000  0.00  0.00     0.105 A 
ATOM      4  C   UNL d   1      -1.785  -0.623   0.000  0.00  0.00     0.213 A 
ATOM      5  C   UNL d   1      -2.495   0.597   0.000  0.00  0.00     0.018 A 
ATOM      6  O   UNL d   1      -2.495  -1.034   0.000  0.00  0.00    -0.287 OA
ATOM      7  C   UNL d   1      -3.945   0.633   0.000  0.00  0.00     0.198 A 
ATOM      8  C   UNL d   1      -1.065   0.597   0.000  0.00  0.00     0.105 C 
ATOM      9  C   UNL d   1      -3.945  -1.070   0.000  0.00  0.00     0.025 A 
ATOM     10  C   UNL d   1      -4.671  -0.638   0.000  0.00  0.00     0.005 A 
ATOM     11  C   UNL d   1      -4.671   0.211   0.000  0.00  0.00     0.042 A 
ATOM     12  N   UNL d   1      -0.365   0.988   0.000  0.00  0.00    -0.191 NA
ATOM     13  O   UNL d   1      -3.945   1.260   0.000  0.00  0.00    -0.286 OA
ATOM     14  N   UNL d   1      -1.065  -1.034   0.000  0.00  0.00    -0.120 N 
ATOM     15  C   UNL d   1      -2.526   1.461   0.000  0.00  0.00     0.001 C 
ENDROOT
BRANCH  10  16
ATOM     16  C   UNL d   1      -5.370  -1.049   0.000  0.00  0.00     0.000 A 
ATOM     17  C   UNL d   1      -5.386  -1.873   0.000  0.00  0.00     0.000 A 
ATOM     18  C   UNL d   1      -6.090  -2.268   0.000  0.00  0.00     0.000 A 
ATOM     19  C   UNL d   1      -6.816  -1.852   0.000  0.00  0.00     0.000 A 
ATOM     20  C   UNL d   1      -6.790  -1.034   0.000  0.00  0.00     0.000 A 
ATOM     21  C   UNL d   1      -6.065  -0.623   0.000  0.00  0.00     0.000 A 
ENDBRANCH  10  16
TORSDOF 1
