REMARK  4 active torsions:
REMARK  status: ('A' for Active; 'I' for Inactive)
REMARK    1  A    between atoms: C_8  and  N_1 
REMARK    2  A    between atoms: C_2  and  C_4 
REMARK       I    between atoms: C_4  and  N_5 
REMARK    3  A    between atoms: N_5  and  C_7 
REMARK    4  A    between atoms: O_19  and  C_14 
ROOT
ATOM      1  C   UNL d   1      -2.792  -0.679   0.000  0.00  0.00     0.108 A 
ATOM      2  C   UNL d   1      -4.103  -0.264   0.000  0.00  0.00     0.128 A 
ATOM      3  C   UNL d   1      -3.330  -0.066   0.000  0.00  0.00     0.045 A 
ATOM      4  C   UNL d   1      -3.018  -1.443   0.000  0.00  0.00     0.112 A 
ATOM      5  C   UNL d   1      -4.377  -0.990   0.000  0.00  0.00     0.026 A 
ATOM      6  C   UNL d   1      -3.839  -1.623   0.000  0.00  0.00     0.027 A 
ENDROOT
BRANCH   1   7
ATOM      7  N   UNL d   1      -1.924  -0.491   0.000  0.00  0.00    -0.206 NA
ATOM      8  C   UNL d   1      -1.387  -1.132   0.000  0.00  0.00     0.285 C 
ATOM      9  O   UNL d   1      -1.698  -1.896   0.000  0.00  0.00    -0.265 OA
BRANCH   8  10
ATOM     10  C   UNL d   1      -0.566  -1.019   0.000  0.00  0.00     0.088 A 
ATOM     11  S   UNL d   1       0.038  -1.585   0.000  0.00  0.00    -0.075 SA
ATOM     12  C   UNL d   1       0.764  -1.170   0.000  0.00  0.00     0.064 A 
ATOM     13 BR   UNL d   1       1.509  -1.509   0.000  0.00  0.00    -0.042 Br
ATOM     14  C   UNL d   1       0.576  -0.349   0.000  0.00  0.00     0.014 A 
ATOM     15  C   UNL d   1      -0.226  -0.292   0.000  0.00  0.00     0.012 A 
ENDBRANCH   8  10
ENDBRANCH   1   7
BRANCH   4  16
ATOM     16  O   UNL d   1      -2.481  -2.075   0.000  0.00  0.00    -0.327 OA
ATOM     17  C   UNL d   1      -2.792  -2.896   0.000  0.00  0.00     0.181 C 
ENDBRANCH   4  16
BRANCH   2  18
ATOM     18  N   UNL d   1      -4.688   0.415   0.000  0.00  0.00    -0.114 N 
ATOM     19  O   UNL d   1      -4.414   1.236   0.000  0.00  0.00    -0.532 OA
ATOM     20  O   UNL d   1      -5.508   0.226   0.000  0.00  0.00    -0.532 OA
ENDBRANCH   2  18
TORSDOF 4
