REMARK  7 active torsions:
REMARK  status: ('A' for Active; 'I' for Inactive)
REMARK    1  A    between atoms: C_2  and  C_1 
REMARK    2  A    between atoms: O_13  and  C_11 
REMARK    3  A    between atoms: C_18  and  O_13 
REMARK    4  A    between atoms: C_15  and  C_18 
REMARK       I    between atoms: N_21  and  C_15 
REMARK    5  A    between atoms: C_23  and  C_16 
REMARK    6  A    between atoms: C_26  and  N_21 
REMARK    7  A    between atoms: C_27  and  C_26 
ROOT
ATOM      1  C   UNL d   1       0.777   2.711   0.000  0.00  0.00     0.087 A 
ATOM      2  C   UNL d   1       0.066   2.292   0.000  0.00  0.00     0.201 A 
ATOM      3  C   UNL d   1      -0.656   2.711   0.000  0.00  0.00     0.062 A 
ATOM      4  C   UNL d   1       0.777   3.532   0.000  0.00  0.00     0.128 A 
ATOM      5  C   UNL d   1      -0.656   3.532   0.000  0.00  0.00     0.105 A 
ATOM      6  O   UNL d   1       0.066   3.962   0.000  0.00  0.00    -0.305 OA
ATOM      7  C   UNL d   1      -1.366   2.292   0.000  0.00  0.00     0.007 A 
ATOM      8  C   UNL d   1      -2.077   3.532   0.000  0.00  0.00     0.102 A 
ATOM      9  C   UNL d   1      -1.366   3.962   0.000  0.00  0.00     0.050 A 
ATOM     10  C   UNL d   1      -2.077   2.711   0.000  0.00  0.00     0.023 A 
ATOM     11  O   UNL d   1       0.066   1.471   0.000  0.00  0.00    -0.286 OA
ENDROOT
BRANCH   8  12
ATOM     12  O   UNL d   1      -2.794   3.962   0.000  0.00  0.00    -0.302 OA
BRANCH  12  13
ATOM     13  C   UNL d   1      -3.504   3.565   0.000  0.00  0.00     0.158 C 
ATOM     14  C   UNL d   1      -3.532   2.738   0.000  0.00  0.00     0.032 C 
BRANCH  13  15
ATOM     15  C   UNL d   1      -4.226   3.995   0.000  0.00  0.00     0.302 C 
ATOM     16  O   UNL d   1      -4.937   3.587   0.000  0.00  0.00    -0.263 OA
ATOM     17  N   UNL d   1      -4.193   4.805   0.000  0.00  0.00    -0.201 NA
BRANCH  17  18
ATOM     18  C   UNL d   1      -4.827   5.240   0.000  0.00  0.00     0.148 C 
BRANCH  18  19
ATOM     19  C   UNL d   1      -5.664   4.805   0.000  0.00  0.00     0.255 C 
ATOM     20  O   UNL d   1      -6.375   5.218   0.000  0.00  0.00    -0.281 OA
ENDBRANCH  18  19
ENDBRANCH  17  18
ENDBRANCH  13  15
ENDBRANCH  12  13
ENDBRANCH   8  12
BRANCH  10  21
ATOM     21  C   UNL d   1      -2.738   2.358   0.000  0.00  0.00     0.002 C 
ATOM     22  C   UNL d   1      -2.772   1.603   0.000  0.00  0.00     0.000 C 
ENDBRANCH  10  21
BRANCH   1  23
ATOM     23  C   UNL d   1       1.493   2.292   0.000  0.00  0.00     0.116 A 
ATOM     24  N   UNL d   1       1.675   1.499   0.000  0.00  0.00    -0.238 NA
ATOM     25  C   UNL d   1       2.496   1.416   0.000  0.00  0.00     0.088 A 
ATOM     26  C   UNL d   1       2.948   0.705   0.000  0.00  0.00     0.021 C 
ATOM     27  C   UNL d   1       2.816   2.132   0.000  0.00  0.00     0.056 A 
ATOM     28  S   UNL d   1       2.204   2.711   0.000  0.00  0.00    -0.066 SA
ENDBRANCH   1  23
TORSDOF 7
