REMARK  1 active torsions:
REMARK  status: ('A' for Active; 'I' for Inactive)
REMARK    1  A    between atoms: C_9  and  C_1 
ROOT
ATOM      1  C   UNL d   1      -1.006   1.018   0.000  0.00  0.00     0.064 A 
ATOM      2  C   UNL d   1      -1.722   0.595   0.000  0.00  0.00     0.199 A 
ATOM      3  C   UNL d   1      -2.438   1.018   0.000  0.00  0.00     0.062 A 
ATOM      4  C   UNL d   1      -1.006   1.840   0.000  0.00  0.00     0.126 A 
ATOM      5  C   UNL d   1      -2.438   1.840   0.000  0.00  0.00     0.106 A 
ATOM      6  O   UNL d   1      -1.722   2.255   0.000  0.00  0.00    -0.305 OA
ATOM      7  C   UNL d   1      -3.147   0.595   0.000  0.00  0.00     0.009 A 
ATOM      8  C   UNL d   1      -3.147   2.255   0.000  0.00  0.00     0.067 A 
ATOM      9  O   UNL d   1      -1.722  -0.223   0.000  0.00  0.00    -0.286 OA
ATOM     10  C   UNL d   1      -3.863   1.840   0.000  0.00  0.00     0.198 A 
ATOM     11  C   UNL d   1      -3.863   1.018   0.000  0.00  0.00     0.042 A 
ATOM     12  O   UNL d   1      -4.599   2.255   0.000  0.00  0.00    -0.286 OA
ENDROOT
BRANCH   1  13
ATOM     13  C   UNL d   1      -0.294   0.595   0.000  0.00  0.00     0.005 A 
ATOM     14  C   UNL d   1      -0.294  -0.223   0.000  0.00  0.00     0.000 A 
ATOM     15  C   UNL d   1       0.423  -0.646   0.000  0.00  0.00     0.000 A 
ATOM     16  C   UNL d   1       1.131  -0.223   0.000  0.00  0.00     0.000 A 
ATOM     17  C   UNL d   1       1.131   0.595   0.000  0.00  0.00     0.000 A 
ATOM     18  C   UNL d   1       0.423   1.018   0.000  0.00  0.00     0.000 A 
ENDBRANCH   1  13
TORSDOF 1
