REMARK  5 active torsions:
REMARK  status: ('A' for Active; 'I' for Inactive)
REMARK    1  A    between atoms: C_3  and  S_1 
REMARK    2  A    between atoms: N_2  and  C_4 
REMARK    3  A    between atoms: N_5  and  C_16 
REMARK    4  A    between atoms: C_11  and  N_5 
REMARK    5  A    between atoms: C_17  and  C_11 
ROOT
ATOM      1  N   UNL d   1      -1.994   1.730   0.000  0.00  0.00    -0.244 NA
ENDROOT
BRANCH   1   2
ATOM      2  C   UNL d   1      -1.280   2.153   0.000  0.00  0.00     0.082 A 
ATOM      3  C   UNL d   1      -1.280   2.966   0.000  0.00  0.00     0.020 A 
ATOM      4  C   UNL d   1      -0.571   3.388   0.000  0.00  0.00     0.015 A 
ATOM      5  C   UNL d   1       0.137   2.966   0.000  0.00  0.00     0.107 A 
ATOM      6  C   UNL d   1       0.137   2.153   0.000  0.00  0.00     0.015 A 
ATOM      7  C   UNL d   1      -0.571   1.730   0.000  0.00  0.00     0.020 A 
BRANCH   5   8
ATOM      8  S   UNL d   1       0.857   3.388   0.000  0.00  0.00     0.302 S 
ATOM      9  O   UNL d   1       0.434   4.102   0.000  0.00  0.00    -0.197 OA
ATOM     10  O   UNL d   1       1.565   3.817   0.000  0.00  0.00    -0.197 OA
ATOM     11  N   UNL d   1       1.274   2.680   0.000  0.00  0.00    -0.043 N 
ENDBRANCH   5   8
ENDBRANCH   1   2
BRANCH   1  12
ATOM     12  C   UNL d   1      -1.994   0.917   0.000  0.00  0.00     0.099 C 
BRANCH  12  13
ATOM     13  C   UNL d   1      -2.702   0.489   0.000  0.00  0.00     0.019 A 
ATOM     14  C   UNL d   1      -3.421   0.917   0.000  0.00  0.00     0.003 A 
ATOM     15  C   UNL d   1      -4.130   0.489   0.000  0.00  0.00     0.024 A 
ATOM     16  C   UNL d   1      -4.130  -0.351   0.000  0.00  0.00     0.127 A 
ATOM     17  C   UNL d   1      -3.421  -0.747   0.000  0.00  0.00     0.024 A 
ATOM     18  C   UNL d   1      -2.702  -0.351   0.000  0.00  0.00     0.003 A 
BRANCH  16  19
ATOM     19  N   UNL d   1      -4.827  -0.791   0.000  0.00  0.00    -0.114 N 
ATOM     20  O   UNL d   1      -5.563  -0.395   0.000  0.00  0.00    -0.532 OA
ATOM     21  O   UNL d   1      -4.789  -1.620   0.000  0.00  0.00    -0.532 OA
ENDBRANCH  16  19
ENDBRANCH  12  13
ENDBRANCH   1  12
TORSDOF 5
