REMARK  3 active torsions:
REMARK  status: ('A' for Active; 'I' for Inactive)
REMARK    1  A    between atoms: S_10  and  C_2 
REMARK    2  A    between atoms: C_9  and  C_4 
REMARK    3  A    between atoms: C_17  and  C_12 
ROOT
ATOM      1  C   UNL d   1      -2.615  -1.795   0.000  0.00  0.00     0.092 A 
ATOM      2  C   UNL d   1      -2.615  -2.605   0.000  0.00  0.00     0.119 A 
ATOM      3  N   UNL d   1      -3.337  -3.018   0.000  0.00  0.00    -0.201 NA
ATOM      4  C   UNL d   1      -3.337  -1.382   0.000  0.00  0.00     0.016 A 
ATOM      5  C   UNL d   1      -4.049  -2.605   0.000  0.00  0.00     0.280 A 
ATOM      6  C   UNL d   1      -1.898  -1.382   0.000  0.00  0.00     0.103 C 
ATOM      7  N   UNL d   1      -1.176  -0.975   0.000  0.00  0.00    -0.191 NA
ATOM      8  C   UNL d   1      -4.049  -1.795   0.000  0.00  0.00     0.063 A 
ATOM      9  O   UNL d   1      -4.766  -3.018   0.000  0.00  0.00    -0.265 OA
ENDROOT
BRANCH   2  10
ATOM     10  S   UNL d   1      -1.898  -3.018   0.000  0.00  0.00    -0.093 SA
ATOM     11  C   UNL d   1      -1.176  -2.605   0.000  0.00  0.00     0.076 C 
ENDBRANCH   2  10
BRANCH   4  12
ATOM     12  C   UNL d   1      -3.337  -0.562   0.000  0.00  0.00     0.001 A 
ATOM     13  C   UNL d   1      -2.625  -0.170   0.000  0.00  0.00     0.000 A 
ATOM     14  C   UNL d   1      -2.615   0.660   0.000  0.00  0.00     0.000 A 
ATOM     15  C   UNL d   1      -3.306   1.078   0.000  0.00  0.00     0.000 A 
ATOM     16  C   UNL d   1      -4.023   0.676   0.000  0.00  0.00     0.000 A 
ATOM     17  C   UNL d   1      -4.039  -0.160   0.000  0.00  0.00     0.000 A 
BRANCH  15  18
ATOM     18  C   UNL d   1      -3.306   1.996   0.000  0.00  0.00     0.000 C 
ATOM     19  C   UNL d   1      -4.162   2.687   0.000  0.00  0.00     0.000 C 
ATOM     20  C   UNL d   1      -2.347   2.703   0.000  0.00  0.00     0.000 C 
ENDBRANCH  15  18
ENDBRANCH   4  12
TORSDOF 3
