REMARK  4 active torsions:
REMARK  status: ('A' for Active; 'I' for Inactive)
REMARK    1  A    between atoms: C_3  and  C_1 
REMARK    2  A    between atoms: C_4  and  C_3 
REMARK    3  A    between atoms: C_7  and  C_4 
REMARK    4  A    between atoms: C_14  and  C_7 
ROOT
ATOM      1  C   UNL d   1      -2.779   0.957   0.000  0.00  0.00     0.042 C 
ENDROOT
BRANCH   1   2
ATOM      2  C   UNL d   1      -3.501   0.544   0.000  0.00  0.00     0.199 C 
ATOM      3  O   UNL d   1      -3.501  -0.315   0.000  0.00  0.00    -0.286 OA
BRANCH   2   4
ATOM      4  C   UNL d   1      -4.188   0.957   0.000  0.00  0.00     0.078 A 
ATOM      5  C   UNL d   1      -4.188   1.782   0.000  0.00  0.00     0.199 A 
ATOM      6  C   UNL d   1      -4.898   2.194   0.000  0.00  0.00     0.042 A 
ATOM      7  O   UNL d   1      -3.466   2.217   0.000  0.00  0.00    -0.286 OA
ATOM      8  C   UNL d   1      -5.614   1.782   0.000  0.00  0.00     0.003 A 
ATOM      9  C   UNL d   1      -5.614   0.957   0.000  0.00  0.00     0.000 A 
ATOM     10  C   UNL d   1      -6.325   2.194   0.000  0.00  0.00     0.000 C 
ATOM     11  C   UNL d   1      -4.898   0.544   0.000  0.00  0.00     0.006 A 
ENDBRANCH   2   4
ENDBRANCH   1   2
BRANCH   1  12
ATOM     12  C   UNL d   1      -2.062   0.544   0.000  0.00  0.00     0.003 C 
BRANCH  12  13
ATOM     13  C   UNL d   1      -1.352   0.957   0.000  0.00  0.00     0.002 A 
ATOM     14  C   UNL d   1      -0.636   0.544   0.000  0.00  0.00     0.027 A 
ATOM     15  C   UNL d   1       0.074   0.957   0.000  0.00  0.00     0.123 A 
ATOM     16  O   UNL d   1       0.796   0.544   0.000  0.00  0.00    -0.301 OA
ATOM     17  C   UNL d   1       0.074   1.782   0.000  0.00  0.00     0.123 A 
ATOM     18  C   UNL d   1       1.512   0.957   0.000  0.00  0.00     0.149 A 
ATOM     19  C   UNL d   1       1.512   1.782   0.000  0.00  0.00     0.149 A 
ATOM     20  O   UNL d   1       0.796   2.194   0.000  0.00  0.00    -0.301 OA
ATOM     21  C   UNL d   1      -0.636   2.194   0.000  0.00  0.00     0.027 A 
ATOM     22  C   UNL d   1      -1.352   1.782   0.000  0.00  0.00     0.002 A 
ENDBRANCH  12  13
ENDBRANCH   1  12
TORSDOF 4
