REMARK  3 active torsions:
REMARK  status: ('A' for Active; 'I' for Inactive)
REMARK    1  A    between atoms: O_7  and  C_1 
REMARK    2  A    between atoms: C_12  and  O_7 
REMARK    3  A    between atoms: O_20  and  C_14 
ROOT
ATOM      1  C   UNL d   1      -0.334   0.571   0.000  0.00  0.00     0.163 A 
ATOM      2  C   UNL d   1      -1.028   0.149   0.000  0.00  0.00     0.222 A 
ATOM      3  C   UNL d   1      -1.742   0.550   0.000  0.00  0.00     0.064 A 
ATOM      4  C   UNL d   1      -1.742   1.382   0.000  0.00  0.00     0.106 A 
ATOM      5  C   UNL d   1      -0.334   1.357   0.000  0.00  0.00     0.150 A 
ATOM      6  O   UNL d   1      -1.028   1.783   0.000  0.00  0.00    -0.303 OA
ATOM      7  C   UNL d   1      -2.462   0.149   0.000  0.00  0.00     0.009 A 
ATOM      8  C   UNL d   1      -2.462   1.783   0.000  0.00  0.00     0.067 A 
ATOM      9  O   UNL d   1      -1.028  -0.684   0.000  0.00  0.00    -0.284 OA
ATOM     10  C   UNL d   1      -3.171   1.357   0.000  0.00  0.00     0.198 A 
ATOM     11  C   UNL d   1      -3.171   0.571   0.000  0.00  0.00     0.042 A 
ATOM     12  O   UNL d   1      -3.911   1.752   0.000  0.00  0.00    -0.286 OA
ENDROOT
BRANCH   1  13
ATOM     13  O   UNL d   1       0.432   0.149   0.000  0.00  0.00    -0.302 OA
BRANCH  13  14
ATOM     14  C   UNL d   1       1.131   0.571   0.000  0.00  0.00     0.100 A 
ATOM     15  C   UNL d   1       1.131   1.413   0.000  0.00  0.00     0.027 A 
ATOM     16  C   UNL d   1       1.835   1.829   0.000  0.00  0.00     0.026 A 
ATOM     17  C   UNL d   1       2.575   1.413   0.000  0.00  0.00     0.094 A 
ATOM     18  C   UNL d   1       2.575   0.571   0.000  0.00  0.00     0.026 A 
ATOM     19  C   UNL d   1       1.850   0.164   0.000  0.00  0.00     0.027 A 
BRANCH  17  20
ATOM     20  O   UNL d   1       3.315   1.804   0.000  0.00  0.00    -0.328 OA
ATOM     21  C   UNL d   1       4.091   1.475   0.000  0.00  0.00     0.181 C 
ENDBRANCH  17  20
ENDBRANCH  13  14
ENDBRANCH   1  13
TORSDOF 3
