REMARK  3 active torsions:
REMARK  status: ('A' for Active; 'I' for Inactive)
REMARK    1  A    between atoms: C_11  and  N_1 
REMARK    2  A    between atoms: C_3  and  C_2 
REMARK    3  A    between atoms: C_13  and  C_16 
ROOT
ATOM      1  N   UNL d   1       0.641  -0.545   0.000  0.00  0.00    -0.260 N 
ATOM      2  C   UNL d   1      -0.513  -1.203   0.000  0.00  0.00     0.093 A 
ATOM      3  C   UNL d   1       0.834  -1.315   0.000  0.00  0.00     0.153 A 
ATOM      4  C   UNL d   1      -0.188  -0.449   0.000  0.00  0.00     0.272 A 
ATOM      5  S   UNL d   1       0.124  -1.736   0.000  0.00  0.00    -0.053 SA
ATOM      6  S   UNL d   1       1.603  -1.623   0.000  0.00  0.00    -0.052 SA
ATOM      7  O   UNL d   1      -0.609   0.261   0.000  0.00  0.00    -0.266 OA
ENDROOT
BRANCH   2   8
ATOM      8  C   UNL d   1      -1.299  -1.411   0.000  0.00  0.00     0.068 A 
ATOM      9  C   UNL d   1      -1.571  -2.181   0.000  0.00  0.00     0.258 A 
ATOM     10  N   UNL d   1      -2.377  -2.181   0.000  0.00  0.00    -0.321 N 
ATOM     11  O   UNL d   1      -1.090  -2.854   0.000  0.00  0.00    -0.267 OA
ATOM     12  H   UNL d   1      -2.858  -2.854   0.000  0.00  0.00     0.169 HD
ATOM     13  C   UNL d   1      -2.630  -1.395   0.000  0.00  0.00     0.059 A 
ATOM     14  C   UNL d   1      -1.972  -0.914   0.000  0.00  0.00     0.021 A 
ATOM     15  C   UNL d   1      -3.399  -1.062   0.000  0.00  0.00     0.017 A 
ATOM     16  C   UNL d   1      -2.052  -0.100   0.000  0.00  0.00     0.002 A 
ATOM     17  C   UNL d   1      -2.802   0.240   0.000  0.00  0.00     0.000 A 
ATOM     18  C   UNL d   1      -3.476  -0.240   0.000  0.00  0.00     0.002 A 
ENDBRANCH   2   8
BRANCH   1  19
ATOM     19  C   UNL d   1       1.143   0.092   0.000  0.00  0.00     0.068 A 
ATOM     20  C   UNL d   1       1.952  -0.004   0.000  0.00  0.00     0.018 A 
ATOM     21  C   UNL d   1       2.453   0.669   0.000  0.00  0.00     0.008 A 
ATOM     22  C   UNL d   1       2.121   1.415   0.000  0.00  0.00     0.065 A 
ATOM     23  C   UNL d   1       1.299   1.511   0.000  0.00  0.00     0.008 A 
ATOM     24  C   UNL d   1       0.818   0.862   0.000  0.00  0.00     0.018 A 
BRANCH  22  25
ATOM     25  C   UNL d   1       2.646   2.088   0.000  0.00  0.00     0.211 C 
ATOM     26  O   UNL d   1       3.468   1.972   0.000  0.00  0.00    -0.644 OA
ATOM     27  O   UNL d   1       2.337   2.858   0.000  0.00  0.00    -0.644 OA
ENDBRANCH  22  25
ENDBRANCH   1  19
TORSDOF 3
