REMARK  5 active torsions:
REMARK  status: ('A' for Active; 'I' for Inactive)
REMARK    1  A    between atoms: N_2  and  C_1 
REMARK    2  A    between atoms: N_3  and  C_1 
REMARK       I    between atoms: C_4  and  N_2 
REMARK    3  A    between atoms: C_7  and  N_3 
REMARK    4  A    between atoms: C_8  and  C_4 
REMARK    5  A    between atoms: C_9  and  C_8 
ROOT
ATOM      1  C   UNL d   1      -0.527  -1.014   0.000  0.00  0.00     0.209 C 
ATOM      2  S   UNL d   1      -0.939  -0.281   0.000  0.00  0.00    -0.038 SA
ENDROOT
BRANCH   1   3
ATOM      3  N   UNL d   1      -0.939  -1.690   0.000  0.00  0.00    -0.180 NA
ATOM      4  C   UNL d   1      -1.747  -1.690   0.000  0.00  0.00     0.281 C 
ATOM      5  O   UNL d   1      -2.177  -2.406   0.000  0.00  0.00    -0.265 OA
BRANCH   4   6
ATOM      6  C   UNL d   1      -2.159  -0.985   0.000  0.00  0.00     0.063 C 
BRANCH   6   7
ATOM      7  C   UNL d   1      -2.984  -0.985   0.000  0.00  0.00     0.005 A 
ATOM      8  C   UNL d   1      -3.385  -1.701   0.000  0.00  0.00     0.000 A 
ATOM      9  C   UNL d   1      -4.221  -1.718   0.000  0.00  0.00     0.000 A 
ATOM     10  C   UNL d   1      -4.634  -1.002   0.000  0.00  0.00     0.000 A 
ATOM     11  C   UNL d   1      -4.239  -0.281   0.000  0.00  0.00     0.000 A 
ATOM     12  C   UNL d   1      -3.397  -0.258   0.000  0.00  0.00     0.000 A 
ENDBRANCH   6   7
ENDBRANCH   4   6
ENDBRANCH   1   3
BRANCH   1  13
ATOM     13  N   UNL d   1       0.281  -1.014   0.000  0.00  0.00    -0.281 N 
ATOM     14  C   UNL d   1       0.779  -0.281   0.000  0.00  0.00     0.101 C 
BRANCH  13  15
ATOM     15  C   UNL d   1       0.693  -1.701   0.000  0.00  0.00     0.066 A 
ATOM     16  C   UNL d   1       1.518  -1.718   0.000  0.00  0.00     0.018 A 
ATOM     17  C   UNL d   1       1.930  -2.429   0.000  0.00  0.00     0.002 A 
ATOM     18  C   UNL d   1       1.512  -3.162   0.000  0.00  0.00     0.000 A 
ATOM     19  C   UNL d   1       0.687  -3.145   0.000  0.00  0.00     0.002 A 
ATOM     20  C   UNL d   1       0.281  -2.412   0.000  0.00  0.00     0.018 A 
ENDBRANCH  13  15
ENDBRANCH   1  13
TORSDOF 5
