REMARK  3 active torsions:
REMARK  status: ('A' for Active; 'I' for Inactive)
REMARK    1  A    between atoms: N_4  and  C_1 
REMARK    2  A    between atoms: C_9  and  C_3 
REMARK    3  A    between atoms: C_7  and  N_4 
ROOT
ATOM      1  C   UNL d   1      -0.852   1.254   0.000  0.00  0.00     0.196 A 
ATOM      2  N   UNL d   1      -1.192   2.031   0.000  0.00  0.00    -0.221 NA
ATOM      3  C   UNL d   1      -1.982   1.923   0.000  0.00  0.00     0.090 A 
ATOM      4  S   UNL d   1      -1.428   0.696   0.000  0.00  0.00    -0.046 SA
ATOM      5  C   UNL d   1      -2.156   1.107   0.000  0.00  0.00     0.058 A 
ENDROOT
BRANCH   1   6
ATOM      6  N   UNL d   1      -0.013   1.040   0.000  0.00  0.00    -0.202 NA
BRANCH   6   7
ATOM      7  C   UNL d   1       0.567   1.642   0.000  0.00  0.00     0.165 A 
ATOM      8  N   UNL d   1       0.201   2.392   0.000  0.00  0.00    -0.225 NA
ATOM      9  C   UNL d   1       0.589   3.142   0.000  0.00  0.00     0.101 A 
ATOM     10  C   UNL d   1       1.379   3.316   0.000  0.00  0.00     0.021 A 
ATOM     11  C   UNL d   1       2.022   2.780   0.000  0.00  0.00     0.002 A 
ATOM     12  C   UNL d   1       2.022   1.964   0.000  0.00  0.00     0.003 A 
ATOM     13  C   UNL d   1       1.357   1.446   0.000  0.00  0.00     0.039 A 
ENDBRANCH   6   7
ENDBRANCH   1   6
BRANCH   3  14
ATOM     14  C   UNL d   1      -2.566   2.499   0.000  0.00  0.00     0.018 A 
ATOM     15  C   UNL d   1      -2.352   3.289   0.000  0.00  0.00     0.002 A 
ATOM     16  C   UNL d   1      -2.928   3.869   0.000  0.00  0.00     0.007 A 
ATOM     17  C   UNL d   1      -3.744   3.664   0.000  0.00  0.00     0.035 A 
ATOM     18  C   UNL d   1      -3.958   2.861   0.000  0.00  0.00     0.007 A 
ATOM     19 BR   UNL d   1      -4.360   4.213   0.000  0.00  0.00    -0.049 Br
ATOM     20  C   UNL d   1      -3.374   2.285   0.000  0.00  0.00     0.002 A 
ENDBRANCH   3  14
TORSDOF 3
