REMARK  7 active torsions:
REMARK  status: ('A' for Active; 'I' for Inactive)
REMARK    1  A    between atoms: C_2  and  C_1 
REMARK    2  A    between atoms: C_16  and  N_4 
REMARK    3  A    between atoms: C_14  and  C_21 
REMARK    4  A    between atoms: C_22  and  C_16 
REMARK    5  A    between atoms: C_21  and  C_23 
REMARK    6  A    between atoms: C_25  and  C_22 
REMARK    7  A    between atoms: C_23  and  C_25 
ROOT
ATOM      1  C   UNL d   1      -1.147  -0.335   0.000  0.00  0.00     0.093 A 
ATOM      2  N   UNL d   1      -0.128   0.489   0.000  0.00  0.00    -0.259 N 
ATOM      3  C   UNL d   1       0.163  -0.269   0.000  0.00  0.00     0.153 A 
ATOM      4  C   UNL d   1      -0.935   0.445   0.000  0.00  0.00     0.272 A 
ATOM      5  S   UNL d   1      -0.472  -0.781   0.000  0.00  0.00    -0.053 SA
ATOM      6  S   UNL d   1       0.970  -0.463   0.000  0.00  0.00    -0.052 SA
ATOM      7  O   UNL d   1      -1.464   1.107   0.000  0.00  0.00    -0.266 OA
ENDROOT
BRANCH   1   8
ATOM      8  C   UNL d   1      -1.954  -0.547   0.000  0.00  0.00     0.069 A 
ATOM      9  C   UNL d   1      -2.223  -1.327   0.000  0.00  0.00     0.265 A 
ATOM     10  N   UNL d   1      -3.030  -1.327   0.000  0.00  0.00    -0.272 N 
ATOM     11  O   UNL d   1      -1.742  -2.011   0.000  0.00  0.00    -0.267 OA
ATOM     12  C   UNL d   1      -3.515  -2.011   0.000  0.00  0.00     0.102 C 
ATOM     13  C   UNL d   1      -3.281  -0.547   0.000  0.00  0.00     0.067 A 
ATOM     14  C   UNL d   1      -2.606  -0.057   0.000  0.00  0.00     0.021 A 
ATOM     15  C   UNL d   1      -4.022  -0.212   0.000  0.00  0.00     0.018 A 
ATOM     16  C   UNL d   1      -2.695   0.763   0.000  0.00  0.00     0.002 A 
ATOM     17  C   UNL d   1      -3.435   1.125   0.000  0.00  0.00     0.000 A 
ATOM     18  C   UNL d   1      -4.110   0.617   0.000  0.00  0.00     0.002 A 
ENDBRANCH   1   8
BRANCH   2  19
ATOM     19  C   UNL d   1       0.335   1.186   0.000  0.00  0.00     0.084 C 
BRANCH  19  20
ATOM     20  C   UNL d   1       1.142   1.125   0.000  0.00  0.00     0.019 C 
BRANCH  20  21
ATOM     21  C   UNL d   1       1.605   1.821   0.000  0.00  0.00     0.002 C 
BRANCH  21  22
ATOM     22  C   UNL d   1       2.412   1.760   0.000  0.00  0.00     0.006 C 
BRANCH  22  23
ATOM     23  C   UNL d   1       2.875   2.456   0.000  0.00  0.00     0.070 C 
BRANCH  23  24
ATOM     24  C   UNL d   1       3.683   2.404   0.000  0.00  0.00     0.211 C 
ATOM     25  O   UNL d   1       4.146   3.091   0.000  0.00  0.00    -0.644 OA
ATOM     26  O   UNL d   1       4.062   1.676   0.000  0.00  0.00    -0.644 OA
ENDBRANCH  23  24
ENDBRANCH  22  23
ENDBRANCH  21  22
ENDBRANCH  20  21
ENDBRANCH  19  20
ENDBRANCH   2  19
TORSDOF 7
