REMARK  2 active torsions:
REMARK  status: ('A' for Active; 'I' for Inactive)
REMARK    1  A    between atoms: C_6  and  C_3 
REMARK    2  A    between atoms: C_9  and  C_6 
ROOT
ATOM      1  C   UNL d   1      -5.703   4.039   0.000  0.00  0.00     0.011 C 
ENDROOT
BRANCH   1   2
ATOM      2  C   UNL d   1      -4.868   4.098   0.000  0.00  0.00     0.092 A 
ATOM      3  C   UNL d   1      -4.415   4.755   0.000  0.00  0.00     0.288 A 
ATOM      4  N   UNL d   1      -3.645   4.540   0.000  0.00  0.00    -0.163 NA
ATOM      5  O   UNL d   1      -4.725   5.560   0.000  0.00  0.00    -0.265 OA
ATOM      6  C   UNL d   1      -3.645   3.699   0.000  0.00  0.00     0.313 A 
ATOM      7  S   UNL d   1      -4.415   3.466   0.000  0.00  0.00    -0.021 SA
ATOM      8  O   UNL d   1      -2.953   3.215   0.000  0.00  0.00    -0.258 OA
ENDBRANCH   1   2
BRANCH   1   9
ATOM      9  C   UNL d   1      -6.115   3.323   0.000  0.00  0.00     0.001 A 
ATOM     10  C   UNL d   1      -6.938   3.269   0.000  0.00  0.00     0.001 A 
ATOM     11  C   UNL d   1      -7.302   2.553   0.000  0.00  0.00     0.011 A 
ATOM     12  C   UNL d   1      -6.848   1.837   0.000  0.00  0.00     0.058 A 
ATOM     13  C   UNL d   1      -6.025   1.891   0.000  0.00  0.00     0.011 A 
ATOM     14 CL   UNL d   1      -7.206   1.092   0.000  0.00  0.00    -0.082 Cl
ATOM     15  C   UNL d   1      -5.649   2.643   0.000  0.00  0.00     0.001 A 
ENDBRANCH   1   9
TORSDOF 2
