REMARK  5 active torsions:
REMARK  status: ('A' for Active; 'I' for Inactive)
REMARK    1  A    between atoms: N_2  and  C_7 
REMARK    2  A    between atoms: N_6  and  C_3 
REMARK    3  A    between atoms: N_8  and  N_6 
REMARK    4  A    between atoms: C_15  and  N_8 
REMARK    5  A    between atoms: C_16  and  C_15 
ROOT
ATOM      1  C   UNL d   1       2.394   0.049   0.000  0.00  0.00     0.127 A 
ATOM      2  C   UNL d   1       1.724  -0.431   0.000  0.00  0.00     0.024 A 
ATOM      3  C   UNL d   1       2.295   0.870   0.000  0.00  0.00     0.024 A 
ATOM      4  C   UNL d   1       0.875   0.710   0.000  0.00  0.00     0.021 A 
ATOM      5  C   UNL d   1       1.532   1.195   0.000  0.00  0.00     0.003 A 
ATOM      6  C   UNL d   1       0.973  -0.090   0.000  0.00  0.00     0.003 A 
ENDROOT
BRANCH   4   7
ATOM      7  C   UNL d   1       0.115   1.035   0.000  0.00  0.00     0.122 C 
BRANCH   7   8
ATOM      8  N   UNL d   1      -0.538   0.542   0.000  0.00  0.00    -0.144 NA
BRANCH   8   9
ATOM      9  N   UNL d   1      -1.314   0.883   0.000  0.00  0.00    -0.121 NA
BRANCH   9  10
ATOM     10  C   UNL d   1      -1.967   0.357   0.000  0.00  0.00     0.217 A 
ATOM     11  N   UNL d   1      -2.730   0.604   0.000  0.00  0.00    -0.181 NA
ATOM     12  C   UNL d   1      -3.223  -0.066   0.000  0.00  0.00     0.288 A 
ATOM     13  O   UNL d   1      -4.061  -0.017   0.000  0.00  0.00    -0.265 OA
ATOM     14  C   UNL d   1      -2.759  -0.727   0.000  0.00  0.00     0.101 A 
ATOM     15  S   UNL d   1      -1.971  -0.460   0.000  0.00  0.00    -0.041 SA
ENDBRANCH   9  10
ENDBRANCH   8   9
ENDBRANCH   7   8
ENDBRANCH   4   7
BRANCH   1  16
ATOM     16  N   UNL d   1       3.133  -0.251   0.000  0.00  0.00    -0.114 N 
ATOM     17  O   UNL d   1       3.305  -1.063   0.000  0.00  0.00    -0.532 OA
ATOM     18  O   UNL d   1       3.822   0.168   0.000  0.00  0.00    -0.532 OA
ENDBRANCH   1  16
TORSDOF 5
