REMARK  4 active torsions:
REMARK  status: ('A' for Active; 'I' for Inactive)
REMARK    1  A    between atoms: C_3  and  N_1 
REMARK       I    between atoms: C_4  and  N_1 
REMARK    2  A    between atoms: C_9  and  C_4 
REMARK    3  A    between atoms: C_5  and  C_10 
REMARK    4  A    between atoms: C_10  and  C_9 
ROOT
ATOM      1  N   UNL d   1      -0.044  -1.120   0.000  0.00  0.00    -0.189 NA
ATOM      2  C   UNL d   1       0.532  -0.510   0.000  0.00  0.00     0.281 C 
ATOM      3  O   UNL d   1       1.323  -0.697   0.000  0.00  0.00    -0.265 OA
ENDROOT
BRANCH   1   4
ATOM      4  C   UNL d   1      -0.856  -0.906   0.000  0.00  0.00     0.166 A 
ATOM      5  N   UNL d   1      -1.444  -1.488   0.000  0.00  0.00    -0.225 NA
ATOM      6  C   UNL d   1      -2.234  -1.301   0.000  0.00  0.00     0.107 A 
ATOM      7  C   UNL d   1      -2.465  -0.532   0.000  0.00  0.00     0.054 A 
ATOM      8  C   UNL d   1      -1.910   0.093   0.000  0.00  0.00     0.011 A 
ATOM      9 BR   UNL d   1      -3.310  -0.379   0.000  0.00  0.00    -0.048 Br
ATOM     10  C   UNL d   1      -1.120  -0.088   0.000  0.00  0.00     0.039 A 
ENDBRANCH   1   4
BRANCH   2  11
ATOM     11  C   UNL d   1       0.302   0.307   0.000  0.00  0.00     0.069 C 
BRANCH  11  12
ATOM     12  C   UNL d   1      -0.488   0.488   0.000  0.00  0.00     0.075 C 
BRANCH  12  13
ATOM     13  C   UNL d   1      -0.725   1.279   0.000  0.00  0.00     0.211 C 
ATOM     14  O   UNL d   1      -1.542   1.466   0.000  0.00  0.00    -0.644 OA
ATOM     15  O   UNL d   1      -0.176   1.861   0.000  0.00  0.00    -0.644 OA
ENDBRANCH  12  13
ENDBRANCH  11  12
ENDBRANCH   2  11
TORSDOF 4
