REMARK  1 active torsions:
REMARK  status: ('A' for Active; 'I' for Inactive)
REMARK    1  A    between atoms: C_2  and  C_1 
ROOT
ATOM      1  C   UNL d   1      -2.204   1.296   0.000  0.00  0.00     0.104 A 
ATOM      2  C   UNL d   1      -1.848   0.536   0.000  0.00  0.00     0.202 A 
ATOM      3  C   UNL d   1      -1.701   1.983   0.000  0.00  0.00     0.021 A 
ATOM      4  C   UNL d   1      -1.026   0.474   0.000  0.00  0.00     0.043 A 
ATOM      5  C   UNL d   1      -0.883   1.877   0.000  0.00  0.00     0.058 A 
ATOM      6  C   UNL d   1      -0.540   1.128   0.000  0.00  0.00     0.015 A 
ATOM      7  O   UNL d   1      -2.339  -0.151   0.000  0.00  0.00    -0.286 OA
ATOM      8 CL   UNL d   1      -0.393   2.563   0.000  0.00  0.00    -0.082 Cl
ENDROOT
BRANCH   1   9
ATOM      9  C   UNL d   1      -3.026   1.374   0.000  0.00  0.00     0.214 C 
ATOM     10  O   UNL d   1      -3.528   0.707   0.000  0.00  0.00    -0.644 OA
ATOM     11  O   UNL d   1      -3.397   2.130   0.000  0.00  0.00    -0.644 OA
ENDBRANCH   1   9
TORSDOF 1
