REMARK  5 active torsions:
REMARK  status: ('A' for Active; 'I' for Inactive)
REMARK    1  A    between atoms: N_4  and  C_2 
REMARK    2  A    between atoms: S_8  and  C_3 
REMARK    3  A    between atoms: C_10  and  S_8 
REMARK    4  A    between atoms: C_9  and  C_10 
REMARK    5  A    between atoms: C_12  and  C_9 
ROOT
ATOM      1  N   UNL d   1      -3.625  -1.278   0.000  0.00  0.00    -0.203 NA
ATOM      2  C   UNL d   1      -2.915  -1.711   0.000  0.00  0.00     0.152 A 
ATOM      3  C   UNL d   1      -4.335  -1.671   0.000  0.00  0.00     0.196 A 
ATOM      4  C   UNL d   1      -2.915  -2.495   0.000  0.00  0.00     0.057 A 
ATOM      5  N   UNL d   1      -4.335  -2.495   0.000  0.00  0.00    -0.221 NA
ATOM      6  C   UNL d   1      -3.625  -2.928   0.000  0.00  0.00     0.087 A 
ATOM      7  C   UNL d   1      -3.591  -3.760   0.000  0.00  0.00     0.021 C 
ENDROOT
BRANCH   3   8
ATOM      8  S   UNL d   1      -5.052  -1.278   0.000  0.00  0.00    -0.045 SA
BRANCH   8   9
ATOM      9  C   UNL d   1      -5.052  -0.453   0.000  0.00  0.00     0.080 C 
BRANCH   9  10
ATOM     10  C   UNL d   1      -5.762  -0.007   0.000  0.00  0.00     0.202 C 
ATOM     11  O   UNL d   1      -5.762   0.811   0.000  0.00  0.00    -0.286 OA
BRANCH  10  12
ATOM     12  C   UNL d   1      -6.445  -0.453   0.000  0.00  0.00     0.040 A 
ATOM     13  C   UNL d   1      -7.196  -0.047   0.000  0.00  0.00     0.003 A 
ATOM     14  C   UNL d   1      -7.872  -0.453   0.000  0.00  0.00     0.000 A 
ATOM     15  C   UNL d   1      -7.872  -1.278   0.000  0.00  0.00     0.000 A 
ATOM     16  C   UNL d   1      -7.162  -1.671   0.000  0.00  0.00     0.000 A 
ATOM     17  C   UNL d   1      -6.445  -1.278   0.000  0.00  0.00     0.003 A 
ENDBRANCH  10  12
ENDBRANCH   9  10
ENDBRANCH   8   9
ENDBRANCH   3   8
BRANCH   2  18
ATOM     18  N   UNL d   1      -2.191  -1.278   0.000  0.00  0.00    -0.285 N 
ATOM     19  C   UNL d   1      -2.191  -0.494   0.000  0.00  0.00     0.108 A 
ATOM     20  C   UNL d   1      -1.481  -0.047   0.000  0.00  0.00     0.142 A 
ATOM     21  O   UNL d   1      -0.764  -0.494   0.000  0.00  0.00    -0.300 OA
ATOM     22  C   UNL d   1      -0.805  -1.278   0.000  0.00  0.00     0.142 A 
ATOM     23  C   UNL d   1      -1.481  -1.711   0.000  0.00  0.00     0.108 A 
ENDBRANCH   2  18
TORSDOF 5
