REMARK  4 active torsions:
REMARK  status: ('A' for Active; 'I' for Inactive)
REMARK    1  A    between atoms: C_14  and  C_2 
REMARK    2  A    between atoms: C_4  and  C_5 
REMARK    3  A    between atoms: C_5  and  O_9 
REMARK    4  A    between atoms: O_9  and  C_14 
ROOT
ATOM      1  N   UNL d   1      -2.998   1.365   0.000  0.00  0.00    -0.236 NA
ATOM      2  C   UNL d   1      -2.765   2.147   0.000  0.00  0.00     0.136 A 
ATOM      3  S   UNL d   1      -3.449   2.625   0.000  0.00  0.00    -0.064 SA
ATOM      4  C   UNL d   1      -3.826   1.349   0.000  0.00  0.00     0.088 A 
ATOM      5  C   UNL d   1      -4.103   2.119   0.000  0.00  0.00     0.049 A 
ATOM      6  C   UNL d   1      -4.359   0.719   0.000  0.00  0.00     0.020 A 
ATOM      7  C   UNL d   1      -4.919   2.259   0.000  0.00  0.00     0.008 A 
ATOM      8  C   UNL d   1      -5.460   1.629   0.000  0.00  0.00     0.001 A 
ATOM      9  C   UNL d   1      -5.180   0.859   0.000  0.00  0.00     0.002 A 
ENDROOT
BRANCH   2  10
ATOM     10  C   UNL d   1      -2.006   2.446   0.000  0.00  0.00     0.152 C 
BRANCH  10  11
ATOM     11  O   UNL d   1      -1.373   1.898   0.000  0.00  0.00    -0.269 OA
BRANCH  11  12
ATOM     12  C   UNL d   1      -0.579   2.178   0.000  0.00  0.00     0.306 C 
ATOM     13  O   UNL d   1      -0.432   2.994   0.000  0.00  0.00    -0.258 OA
BRANCH  12  14
ATOM     14  C   UNL d   1       0.074   1.633   0.000  0.00  0.00     0.093 A 
ATOM     15  S   UNL d   1       0.093   0.813   0.000  0.00  0.00    -0.081 SA
ATOM     16  C   UNL d   1       0.890   0.591   0.000  0.00  0.00     0.036 A 
ATOM     17  C   UNL d   1       1.342   1.260   0.000  0.00  0.00     0.008 A 
ATOM     18  C   UNL d   1       0.844   1.913   0.000  0.00  0.00     0.012 A 
ENDBRANCH  12  14
ENDBRANCH  11  12
ENDBRANCH  10  11
ENDBRANCH   2  10
TORSDOF 4
