REMARK  5 active torsions:
REMARK  status: ('A' for Active; 'I' for Inactive)
REMARK    1  A    between atoms: C_8  and  C_1 
REMARK    2  A    between atoms: C_9  and  C_2 
REMARK    3  A    between atoms: S_6  and  C_4 
REMARK    4  A    between atoms: C_11  and  S_6 
REMARK    5  A    between atoms: C_7  and  C_11 
ROOT
ATOM      1  C   UNL d   1       3.406  -3.211   0.000  0.00  0.00     0.107 A 
ATOM      2  C   UNL d   1       2.997  -2.496   0.000  0.00  0.00     0.120 A 
ATOM      3  N   UNL d   1       2.846  -3.814   0.000  0.00  0.00    -0.214 NA
ATOM      4  C   UNL d   1       2.102  -3.464   0.000  0.00  0.00     0.215 A 
ATOM      5  O   UNL d   1       2.204  -2.647   0.000  0.00  0.00    -0.283 OA
ENDROOT
BRANCH   1   6
ATOM      6  C   UNL d   1       4.223  -3.347   0.000  0.00  0.00     0.020 A 
ATOM      7  C   UNL d   1       4.748  -2.691   0.000  0.00  0.00     0.002 A 
ATOM      8  C   UNL d   1       5.580  -2.837   0.000  0.00  0.00     0.000 A 
ATOM      9  C   UNL d   1       5.858  -3.605   0.000  0.00  0.00     0.000 A 
ATOM     10  C   UNL d   1       5.332  -4.247   0.000  0.00  0.00     0.000 A 
ATOM     11  C   UNL d   1       4.515  -4.121   0.000  0.00  0.00     0.002 A 
ENDBRANCH   1   6
BRANCH   2  12
ATOM     12  C   UNL d   1       3.313  -1.737   0.000  0.00  0.00     0.024 A 
ATOM     13  C   UNL d   1       4.131  -1.620   0.000  0.00  0.00     0.002 A 
ATOM     14  C   UNL d   1       4.457  -0.861   0.000  0.00  0.00     0.000 A 
ATOM     15  C   UNL d   1       3.955  -0.219   0.000  0.00  0.00     0.000 A 
ATOM     16  C   UNL d   1       3.138  -0.326   0.000  0.00  0.00     0.000 A 
ATOM     17  C   UNL d   1       2.822  -1.085   0.000  0.00  0.00     0.002 A 
ENDBRANCH   2  12
BRANCH   4  18
ATOM     18  S   UNL d   1       1.387  -3.887   0.000  0.00  0.00    -0.037 SA
BRANCH  18  19
ATOM     19  C   UNL d   1       0.662  -3.464   0.000  0.00  0.00     0.103 C 
BRANCH  19  20
ATOM     20  C   UNL d   1      -0.039  -3.873   0.000  0.00  0.00     0.303 C 
ATOM     21  O   UNL d   1      -0.039  -4.714   0.000  0.00  0.00    -0.263 OA
ATOM     22  N   UNL d   1      -0.759  -3.464   0.000  0.00  0.00    -0.102 N 
ENDBRANCH  19  20
ENDBRANCH  18  19
ENDBRANCH   4  18
TORSDOF 5
