REMARK  5 active torsions:
REMARK  status: ('A' for Active; 'I' for Inactive)
REMARK    1  A    between atoms: C_3  and  C_1 
REMARK    2  A    between atoms: N_2  and  C_7 
REMARK       I    between atoms: N_4  and  C_3 
REMARK    3  A    between atoms: C_9  and  N_4 
REMARK    4  A    between atoms: O_19  and  C_6 
REMARK    5  A    between atoms: O_20  and  C_10 
ROOT
ATOM      1  C   UNL d   1      -0.357  -1.415   0.000  0.00  0.00     0.281 C 
ATOM      2  N   UNL d   1      -0.583  -0.621   0.000  0.00  0.00    -0.206 NA
ATOM      3  O   UNL d   1      -0.914  -1.990   0.000  0.00  0.00    -0.265 OA
ENDROOT
BRANCH   1   4
ATOM      4  C   UNL d   1       0.452  -1.607   0.000  0.00  0.00     0.080 A 
ATOM      5  C   UNL d   1       1.020  -1.020   0.000  0.00  0.00     0.007 A 
ATOM      6  C   UNL d   1       1.832  -1.234   0.000  0.00  0.00     0.000 A 
ATOM      7  C   UNL d   1       2.397  -0.636   0.000  0.00  0.00     0.000 A 
ATOM      8  C   UNL d   1       2.032  -2.035   0.000  0.00  0.00     0.002 A 
ATOM      9  C   UNL d   1       3.209  -0.858   0.000  0.00  0.00     0.000 A 
ATOM     10  C   UNL d   1       3.401  -1.629   0.000  0.00  0.00     0.000 A 
ATOM     11  C   UNL d   1       2.833  -2.227   0.000  0.00  0.00     0.000 A 
ATOM     12  C   UNL d   1       1.445  -2.607   0.000  0.00  0.00     0.024 A 
ATOM     13  C   UNL d   1       0.647  -2.381   0.000  0.00  0.00     0.099 A 
BRANCH  13  14
ATOM     14  O   UNL d   1       0.034  -2.950   0.000  0.00  0.00    -0.328 OA
ATOM     15  C   UNL d   1       0.230  -3.762   0.000  0.00  0.00     0.181 C 
ENDBRANCH  13  14
ENDBRANCH   1   4
BRANCH   2  16
ATOM     16  C   UNL d   1      -1.354  -0.410   0.000  0.00  0.00     0.107 A 
ATOM     17  C   UNL d   1      -1.926  -0.997   0.000  0.00  0.00     0.113 A 
ATOM     18  C   UNL d   1      -2.728  -0.794   0.000  0.00  0.00     0.049 A 
ATOM     19  C   UNL d   1      -2.965   0.000   0.000  0.00  0.00     0.129 A 
ATOM     20  C   UNL d   1      -2.389   0.587   0.000  0.00  0.00     0.025 A 
ATOM     21  C   UNL d   1      -1.591   0.391   0.000  0.00  0.00     0.023 A 
BRANCH  17  22
ATOM     22  O   UNL d   1      -1.700  -1.806   0.000  0.00  0.00    -0.327 OA
ATOM     23  C   UNL d   1      -2.299  -2.393   0.000  0.00  0.00     0.181 C 
ENDBRANCH  17  22
BRANCH  19  24
ATOM     24  N   UNL d   1      -3.777   0.181   0.000  0.00  0.00    -0.114 N 
ATOM     25  O   UNL d   1      -3.992   0.978   0.000  0.00  0.00    -0.532 OA
ATOM     26  O   UNL d   1      -4.334  -0.421   0.000  0.00  0.00    -0.532 OA
ENDBRANCH  19  24
ENDBRANCH   2  16
TORSDOF 5
