REMARK  5 active torsions:
REMARK  status: ('A' for Active; 'I' for Inactive)
REMARK       I    between atoms: C_6  and  N_1 
REMARK    1  A    between atoms: C_7  and  C_3 
REMARK    2  A    between atoms: C_8  and  C_4 
REMARK    3  A    between atoms: C_11  and  C_6 
REMARK    4  A    between atoms: C_9  and  C_17 
REMARK    5  A    between atoms: C_17  and  C_11 
ROOT
ATOM      1  N   UNL d   1      -2.302   0.699   0.000  0.00  0.00    -0.195 N 
ATOM      2  N   UNL d   1      -2.758   0.024   0.000  0.00  0.00    -0.163 NA
ATOM      3  C   UNL d   1      -3.512   0.283   0.000  0.00  0.00     0.103 A 
ATOM      4  C   UNL d   1      -2.758   1.344   0.000  0.00  0.00     0.088 A 
ATOM      5  C   UNL d   1      -3.512   1.123   0.000  0.00  0.00     0.040 A 
ATOM      6  C   UNL d   1      -1.477   0.699   0.000  0.00  0.00     0.281 C 
ATOM      7  O   UNL d   1      -1.061   1.414   0.000  0.00  0.00    -0.265 OA
ENDROOT
BRANCH   4   8
ATOM      8  C   UNL d   1      -2.381   2.098   0.000  0.00  0.00     0.018 A 
ATOM      9  C   UNL d   1      -2.868   2.773   0.000  0.00  0.00     0.002 A 
ATOM     10  C   UNL d   1      -2.491   3.489   0.000  0.00  0.00     0.007 A 
ATOM     11  C   UNL d   1      -1.697   3.575   0.000  0.00  0.00     0.035 A 
ATOM     12  C   UNL d   1      -1.218   2.891   0.000  0.00  0.00     0.007 A 
ATOM     13 BR   UNL d   1      -1.359   4.361   0.000  0.00  0.00    -0.049 Br
ATOM     14  C   UNL d   1      -1.595   2.137   0.000  0.00  0.00     0.002 A 
ENDBRANCH   4   8
BRANCH   6  15
ATOM     15  C   UNL d   1      -1.061  -0.055   0.000  0.00  0.00     0.069 C 
BRANCH  15  16
ATOM     16  C   UNL d   1      -0.228  -0.055   0.000  0.00  0.00     0.075 C 
BRANCH  16  17
ATOM     17  C   UNL d   1       0.189  -0.762   0.000  0.00  0.00     0.211 C 
ATOM     18  O   UNL d   1      -0.228  -1.485   0.000  0.00  0.00    -0.644 OA
ATOM     19  O   UNL d   1       1.014  -0.762   0.000  0.00  0.00    -0.644 OA
ENDBRANCH  16  17
ENDBRANCH  15  16
ENDBRANCH   6  15
BRANCH   3  20
ATOM     20  C   UNL d   1      -4.235  -0.126   0.000  0.00  0.00     0.019 A 
ATOM     21  C   UNL d   1      -4.942   0.283   0.000  0.00  0.00     0.002 A 
ATOM     22  C   UNL d   1      -5.657  -0.126   0.000  0.00  0.00     0.007 A 
ATOM     23  C   UNL d   1      -5.657  -0.951   0.000  0.00  0.00     0.035 A 
ATOM     24  C   UNL d   1      -4.942  -1.375   0.000  0.00  0.00     0.007 A 
ATOM     25 BR   UNL d   1      -6.411  -1.414   0.000  0.00  0.00    -0.049 Br
ATOM     26  C   UNL d   1      -4.235  -0.951   0.000  0.00  0.00     0.002 A 
ENDBRANCH   3  20
TORSDOF 5
