REMARK  3 active torsions:
REMARK  status: ('A' for Active; 'I' for Inactive)
REMARK    1  A    between atoms: N_3  and  C_1 
REMARK       I    between atoms: C_5  and  N_3 
REMARK    2  A    between atoms: C_14  and  C_4 
REMARK       I    between atoms: N_8  and  C_5 
REMARK    3  A    between atoms: C_11  and  N_8 
ROOT
ATOM      1  N   UNL d   1      -1.866  -0.053   0.000  0.00  0.00    -0.166 NA
ATOM      2  C   UNL d   1      -1.187  -0.458   0.000  0.00  0.00     0.370 C 
ATOM      3  N   UNL d   1      -0.480  -0.071   0.000  0.00  0.00    -0.191 NA
ATOM      4  O   UNL d   1      -1.187  -1.284   0.000  0.00  0.00    -0.242 OA
ENDROOT
BRANCH   1   5
ATOM      5  C   UNL d   1      -2.573  -0.444   0.000  0.00  0.00     0.199 A 
ATOM      6  N   UNL d   1      -2.662  -1.244   0.000  0.00  0.00    -0.221 NA
ATOM      7  C   UNL d   1      -3.466  -1.404   0.000  0.00  0.00     0.090 A 
ATOM      8  C   UNL d   1      -3.862  -0.680   0.000  0.00  0.00     0.058 A 
ATOM      9  S   UNL d   1      -3.288  -0.093   0.000  0.00  0.00    -0.046 SA
BRANCH   7  10
ATOM     10  C   UNL d   1      -3.808  -2.138   0.000  0.00  0.00     0.018 A 
ATOM     11  C   UNL d   1      -3.342  -2.826   0.000  0.00  0.00     0.002 A 
ATOM     12  C   UNL d   1      -3.693  -3.573   0.000  0.00  0.00     0.000 A 
ATOM     13  C   UNL d   1      -4.502  -3.644   0.000  0.00  0.00     0.000 A 
ATOM     14  C   UNL d   1      -4.981  -2.964   0.000  0.00  0.00     0.000 A 
ATOM     15  C   UNL d   1      -4.635  -2.204   0.000  0.00  0.00     0.002 A 
ENDBRANCH   7  10
ENDBRANCH   1   5
BRANCH   3  16
ATOM     16  C   UNL d   1      -0.462   0.760   0.000  0.00  0.00     0.087 A 
ATOM     17  C   UNL d   1      -1.142   1.169   0.000  0.00  0.00     0.032 A 
ATOM     18  C   UNL d   1      -1.142   1.973   0.000  0.00  0.00     0.070 A 
ATOM     19 CL   UNL d   1      -1.866   2.400   0.000  0.00  0.00    -0.081 Cl
ATOM     20  C   UNL d   1      -0.462   2.382   0.000  0.00  0.00     0.068 A 
ATOM     21  C   UNL d   1       0.267   1.973   0.000  0.00  0.00     0.014 A 
ATOM     22 CL   UNL d   1      -0.462   3.195   0.000  0.00  0.00    -0.082 Cl
ATOM     23  C   UNL d   1       0.267   1.169   0.000  0.00  0.00     0.020 A 
ENDBRANCH   3  16
TORSDOF 3
