REMARK  8 active torsions:
REMARK  status: ('A' for Active; 'I' for Inactive)
REMARK    1  A    between atoms: N_2  and  S_1 
REMARK    2  A    between atoms: C_3  and  S_1 
REMARK    3  A    between atoms: C_4  and  C_7 
REMARK    4  A    between atoms: O_17  and  C_4 
REMARK    5  A    between atoms: C_23  and  O_17 
REMARK    6  A    between atoms: C_18  and  C_24 
REMARK    7  A    between atoms: C_27  and  C_23 
REMARK    8  A    between atoms: C_24  and  C_27 
ROOT
ATOM      1  C   UNL d   1      -1.977  -0.589   0.000  0.00  0.00     0.104 A 
ATOM      2  C   UNL d   1      -0.494  -1.294   0.000  0.00  0.00     0.064 A 
ATOM      3  C   UNL d   1      -1.298  -0.136   0.000  0.00  0.00     0.013 A 
ATOM      4  C   UNL d   1      -1.913  -1.419   0.000  0.00  0.00     0.013 A 
ATOM      5  C   UNL d   1      -0.555  -0.468   0.000  0.00  0.00     0.006 A 
ATOM      6  C   UNL d   1      -1.173  -1.766   0.000  0.00  0.00     0.006 A 
ENDROOT
BRANCH   2   7
ATOM      7  C   UNL d   1       0.260  -1.633   0.000  0.00  0.00     0.300 C 
ATOM      8  O   UNL d   1       0.298  -2.471   0.000  0.00  0.00    -0.259 OA
BRANCH   7   9
ATOM      9  O   UNL d   1       0.932  -1.204   0.000  0.00  0.00    -0.271 OA
BRANCH   9  10
ATOM     10  C   UNL d   1       1.679  -1.554   0.000  0.00  0.00     0.126 C 
BRANCH  10  11
ATOM     11  C   UNL d   1       2.381  -1.113   0.000  0.00  0.00     0.027 C 
BRANCH  11  12
ATOM     12  C   UNL d   1       3.105  -1.475   0.000  0.00  0.00     0.002 C 
BRANCH  12  13
ATOM     13  C   UNL d   1       3.807  -1.022   0.000  0.00  0.00     0.003 A 
ATOM     14  C   UNL d   1       3.757  -0.207   0.000  0.00  0.00     0.021 A 
ATOM     15  C   UNL d   1       4.440   0.245   0.000  0.00  0.00     0.099 A 
ATOM     16  N   UNL d   1       5.187  -0.124   0.000  0.00  0.00    -0.242 NA
ATOM     17  C   UNL d   1       5.233  -0.939   0.000  0.00  0.00     0.099 A 
ATOM     18  C   UNL d   1       4.531  -1.373   0.000  0.00  0.00     0.021 A 
ENDBRANCH  12  13
ENDBRANCH  11  12
ENDBRANCH  10  11
ENDBRANCH   9  10
ENDBRANCH   7   9
ENDBRANCH   2   7
BRANCH   1  19
ATOM     19  S   UNL d   1      -2.728  -0.230   0.000  0.00  0.00     0.272 S 
ATOM     20  O   UNL d   1      -2.373   0.528   0.000  0.00  0.00    -0.200 OA
ATOM     21  O   UNL d   1      -3.109  -0.977   0.000  0.00  0.00    -0.200 OA
BRANCH  19  22
ATOM     22  N   UNL d   1      -3.486   0.121   0.000  0.00  0.00    -0.225 N 
ATOM     23  C   UNL d   1      -4.165  -0.332   0.000  0.00  0.00     0.118 A 
ATOM     24  C   UNL d   1      -4.908   0.042   0.000  0.00  0.00     0.142 A 
ATOM     25  O   UNL d   1      -4.965   0.860   0.000  0.00  0.00    -0.300 OA
ATOM     26  C   UNL d   1      -4.274   1.313   0.000  0.00  0.00     0.142 A 
ATOM     27  C   UNL d   1      -3.542   0.970   0.000  0.00  0.00     0.118 A 
ENDBRANCH  19  22
ENDBRANCH   1  19
TORSDOF 8
