REMARK  5 active torsions:
REMARK  status: ('A' for Active; 'I' for Inactive)
REMARK    1  A    between atoms: C_2  and  C_1 
REMARK    2  A    between atoms: S_3  and  C_4 
REMARK    3  A    between atoms: C_7  and  S_3 
REMARK    4  A    between atoms: C_5  and  C_7 
REMARK    5  A    between atoms: C_6  and  C_5 
ROOT
ATOM      1  S   UNL d   1       2.584  -0.054   0.000  0.00  0.00    -0.083 SA
ENDROOT
BRANCH   1   2
ATOM      2  C   UNL d   1       3.297   0.398   0.000  0.00  0.00     0.035 A 
ATOM      3  C   UNL d   1       4.041   0.040   0.000  0.00  0.00     0.070 A 
ATOM      4  C   UNL d   1       4.714   0.492   0.000  0.00  0.00     0.007 A 
ATOM      5  C   UNL d   1       4.673   1.312   0.000  0.00  0.00     0.000 A 
ATOM      6  C   UNL d   1       3.920   1.687   0.000  0.00  0.00     0.001 A 
ATOM      7  C   UNL d   1       3.244   1.202   0.000  0.00  0.00     0.007 A 
BRANCH   3   8
ATOM      8  C   UNL d   1       4.098  -0.777   0.000  0.00  0.00     0.211 C 
ATOM      9  O   UNL d   1       4.861  -1.128   0.000  0.00  0.00    -0.644 OA
ATOM     10  O   UNL d   1       3.418  -1.249   0.000  0.00  0.00    -0.644 OA
ENDBRANCH   3   8
ENDBRANCH   1   2
BRANCH   1  11
ATOM     11  C   UNL d   1       2.641  -0.857   0.000  0.00  0.00     0.077 C 
BRANCH  11  12
ATOM     12  C   UNL d   1       1.952  -1.326   0.000  0.00  0.00     0.202 C 
ATOM     13  O   UNL d   1       2.022  -2.143   0.000  0.00  0.00    -0.286 OA
BRANCH  12  14
ATOM     14  C   UNL d   1       1.229  -0.937   0.000  0.00  0.00     0.040 A 
ATOM     15  C   UNL d   1       0.536  -1.409   0.000  0.00  0.00     0.003 A 
ATOM     16  C   UNL d   1      -0.198  -1.034   0.000  0.00  0.00     0.000 A 
ATOM     17  C   UNL d   1      -0.238  -0.241   0.000  0.00  0.00     0.000 A 
ATOM     18  C   UNL d   1       0.455   0.228   0.000  0.00  0.00     0.000 A 
ATOM     19  C   UNL d   1      -0.991   0.147   0.000  0.00  0.00     0.000 C 
ATOM     20  C   UNL d   1       1.195  -0.161   0.000  0.00  0.00     0.003 A 
ENDBRANCH  12  14
ENDBRANCH  11  12
ENDBRANCH   1  11
TORSDOF 5
