REMARK  1 active torsions:
REMARK  status: ('A' for Active; 'I' for Inactive)
REMARK    1  A    between atoms: C_2  and  C_1 
ROOT
ATOM      1  C   UNL d   1       1.475   0.375   0.000  0.00  0.00     0.087 A 
ATOM      2  C   UNL d   1       1.475   1.200   0.000  0.00  0.00     0.302 A 
ATOM      3  C   UNL d   1       0.762  -0.048   0.000  0.00  0.00     0.009 A 
ATOM      4  O   UNL d   1       0.762   1.605   0.000  0.00  0.00    -0.273 OA
ATOM      5  C   UNL d   1       0.048   1.200   0.000  0.00  0.00     0.106 A 
ATOM      6  C   UNL d   1       0.048   0.375   0.000  0.00  0.00     0.023 A 
ATOM      7  C   UNL d   1      -0.665   1.605   0.000  0.00  0.00     0.067 A 
ATOM      8  O   UNL d   1       2.189   1.605   0.000  0.00  0.00    -0.259 OA
ATOM      9  C   UNL d   1      -0.665  -0.048   0.000  0.00  0.00     0.005 A 
ATOM     10  C   UNL d   1      -1.379   1.200   0.000  0.00  0.00     0.198 A 
ATOM     11  C   UNL d   1      -1.379   0.375   0.000  0.00  0.00     0.042 A 
ATOM     12  O   UNL d   1      -2.092   1.605   0.000  0.00  0.00    -0.286 OA
ENDROOT
BRANCH   1  13
ATOM     13  C   UNL d   1       2.174  -0.048   0.000  0.00  0.00     0.116 A 
ATOM     14  N   UNL d   1       2.300  -0.851   0.000  0.00  0.00    -0.238 NA
ATOM     15  C   UNL d   1       3.103  -0.996   0.000  0.00  0.00     0.088 A 
ATOM     16  C   UNL d   1       3.527  -1.710   0.000  0.00  0.00     0.020 A 
ATOM     17  C   UNL d   1       3.478  -0.282   0.000  0.00  0.00     0.049 A 
ATOM     18  C   UNL d   1       4.359  -1.665   0.000  0.00  0.00     0.002 A 
ATOM     19  C   UNL d   1       4.742  -0.936   0.000  0.00  0.00     0.001 A 
ATOM     20  C   UNL d   1       4.296  -0.238   0.000  0.00  0.00     0.008 A 
ATOM     21  S   UNL d   1       2.925   0.323   0.000  0.00  0.00    -0.066 SA
ENDBRANCH   1  13
TORSDOF 1
