REMARK  2 active torsions:
REMARK  status: ('A' for Active; 'I' for Inactive)
REMARK    1  A    between atoms: C_7  and  C_5 
REMARK    2  A    between atoms: C_8  and  C_7 
ROOT
ATOM      1  C   UNL d   1      -0.044  -0.926   0.000  0.00  0.00     0.046 C 
ENDROOT
BRANCH   1   2
ATOM      2  C   UNL d   1       0.487  -0.311   0.000  0.00  0.00     0.205 A 
ATOM      3  N   UNL d   1       0.245   0.458   0.000  0.00  0.00    -0.120 NA
ATOM      4  N   UNL d   1       0.923   0.934   0.000  0.00  0.00    -0.109 NA
ATOM      5  C   UNL d   1       1.564   0.425   0.000  0.00  0.00     0.262 A 
ATOM      6  O   UNL d   1       1.318  -0.311   0.000  0.00  0.00    -0.260 OA
ATOM      7  S   UNL d   1       2.376   0.659   0.000  0.00  0.00    -0.029 SA
ENDBRANCH   1   2
BRANCH   1   8
ATOM      8  C   UNL d   1      -0.879  -0.762   0.000  0.00  0.00     0.004 A 
ATOM      9  C   UNL d   1      -1.446  -1.362   0.000  0.00  0.00     0.000 A 
ATOM     10  C   UNL d   1      -2.252  -1.190   0.000  0.00  0.00     0.000 A 
ATOM     11  C   UNL d   1      -2.479  -0.396   0.000  0.00  0.00     0.000 A 
ATOM     12  C   UNL d   1      -1.930   0.216   0.000  0.00  0.00     0.000 A 
ATOM     13  C   UNL d   1      -1.095   0.011   0.000  0.00  0.00     0.000 A 
ENDBRANCH   1   8
TORSDOF 2
