REMARK  5 active torsions:
REMARK  status: ('A' for Active; 'I' for Inactive)
REMARK    1  A    between atoms: N_2  and  C_1 
REMARK    2  A    between atoms: C_13  and  N_6 
REMARK    3  A    between atoms: C_12  and  C_7 
REMARK    4  A    between atoms: O_22  and  C_19 
REMARK    5  A    between atoms: C_25  and  O_22 
ROOT
ATOM      1  N   UNL d   1       0.026   0.206   0.000  0.00  0.00    -0.288 N 
ATOM      2  C   UNL d   1      -0.349  -0.533   0.000  0.00  0.00     0.196 A 
ATOM      3  S   UNL d   1       0.254  -1.103   0.000  0.00  0.00    -0.092 SA
ATOM      4  C   UNL d   1       0.838   0.085   0.000  0.00  0.00     0.268 A 
ATOM      5  C   UNL d   1       0.960  -0.750   0.000  0.00  0.00     0.093 A 
ATOM      6  O   UNL d   1       1.401   0.662   0.000  0.00  0.00    -0.266 OA
ENDROOT
BRANCH   1   7
ATOM      7  C   UNL d   1      -0.415   0.879   0.000  0.00  0.00     0.139 A 
ATOM      8  C   UNL d   1      -1.210   0.879   0.000  0.00  0.00     0.296 A 
ATOM      9  N   UNL d   1      -1.474   1.651   0.000  0.00  0.00    -0.209 N 
ATOM     10  O   UNL d   1      -1.688   0.188   0.000  0.00  0.00    -0.264 OA
ATOM     11  N   UNL d   1      -0.824   2.129   0.000  0.00  0.00    -0.238 N 
ATOM     12  C   UNL d   1      -0.151   1.632   0.000  0.00  0.00     0.102 A 
ATOM     13  C   UNL d   1      -0.824   2.941   0.000  0.00  0.00     0.120 C 
ATOM     14  C   UNL d   1       0.662   1.864   0.000  0.00  0.00     0.022 C 
BRANCH   9  15
ATOM     15  C   UNL d   1      -2.217   1.985   0.000  0.00  0.00     0.085 A 
ATOM     16  C   UNL d   1      -2.886   1.511   0.000  0.00  0.00     0.019 A 
ATOM     17  C   UNL d   1      -3.629   1.849   0.000  0.00  0.00     0.002 A 
ATOM     18  C   UNL d   1      -3.724   2.666   0.000  0.00  0.00     0.000 A 
ATOM     19  C   UNL d   1      -3.044   3.132   0.000  0.00  0.00     0.002 A 
ATOM     20  C   UNL d   1      -2.305   2.798   0.000  0.00  0.00     0.019 A 
ENDBRANCH   9  15
ENDBRANCH   1   7
BRANCH   2  21
ATOM     21  C   UNL d   1      -1.114  -0.827   0.000  0.00  0.00    -0.001 A 
ATOM     22  C   UNL d   1      -1.849  -0.324   0.000  0.00  0.00    -0.000 A 
ATOM     23  C   UNL d   1      -2.632  -0.721   0.000  0.00  0.00     0.024 A 
ATOM     24  C   UNL d   1      -2.647  -1.588   0.000  0.00  0.00     0.100 A 
ATOM     25  C   UNL d   1      -1.941  -2.030   0.000  0.00  0.00     0.024 A 
ATOM     26  C   UNL d   1      -1.177  -1.680   0.000  0.00  0.00    -0.000 A 
BRANCH  24  27
ATOM     27  O   UNL d   1      -3.382  -1.930   0.000  0.00  0.00    -0.305 OA
BRANCH  27  28
ATOM     28  C   UNL d   1      -3.441  -2.824   0.000  0.00  0.00     0.123 C 
ATOM     29  C   UNL d   1      -4.210  -3.166   0.000  0.00  0.00     0.029 C 
ENDBRANCH  27  28
ENDBRANCH  24  27
ENDBRANCH   2  21
TORSDOF 5
