REMARK  3 active torsions:
REMARK  status: ('A' for Active; 'I' for Inactive)
REMARK    1  A    between atoms: N_5  and  C_1 
REMARK       I    between atoms: C_2  and  N_3 
REMARK    2  A    between atoms: C_4  and  C_2 
REMARK    3  A    between atoms: N_3  and  N_5 
ROOT
ATOM      1  C   UNL d   1      -1.629   1.270   0.000  0.00  0.00     0.060 A 
ATOM      2  C   UNL d   1      -2.342   1.677   0.000  0.00  0.00     0.012 A 
ATOM      3  C   UNL d   1      -3.060   1.270   0.000  0.00  0.00     0.035 A 
ATOM      4 BR   UNL d   1      -3.773   1.693   0.000  0.00  0.00    -0.049 Br
ATOM      5  C   UNL d   1      -1.629   0.435   0.000  0.00  0.00     0.005 A 
ATOM      6  C   UNL d   1      -2.342   0.032   0.000  0.00  0.00     0.001 A 
ATOM      7  C   UNL d   1      -3.060   0.456   0.000  0.00  0.00     0.007 A 
ENDROOT
BRANCH   1   8
ATOM      8  C   UNL d   1      -0.915   1.693   0.000  0.00  0.00     0.297 C 
ATOM      9  N   UNL d   1      -0.214   1.290   0.000  0.00  0.00    -0.103 NA
ATOM     10  O   UNL d   1      -0.931   2.527   0.000  0.00  0.00    -0.264 OA
BRANCH   9  11
ATOM     11  N   UNL d   1      -0.214   0.480   0.000  0.00  0.00    -0.112 NA
BRANCH  11  12
ATOM     12  C   UNL d   1       0.500   0.069   0.000  0.00  0.00     0.260 C 
ATOM     13  S   UNL d   1       0.500  -0.762   0.000  0.00  0.00    -0.034 SA
ATOM     14  N   UNL d   1       1.213   0.480   0.000  0.00  0.00    -0.113 N 
ENDBRANCH  11  12
ENDBRANCH   9  11
ENDBRANCH   1   8
TORSDOF 3
