REMARK  5 active torsions:
REMARK  status: ('A' for Active; 'I' for Inactive)
REMARK    1  A    between atoms: N_2  and  S_1 
REMARK    2  A    between atoms: C_4  and  S_1 
REMARK    3  A    between atoms: C_3  and  C_8 
REMARK       I    between atoms: N_7  and  C_3 
REMARK    4  A    between atoms: C_16  and  N_7 
REMARK    5  A    between atoms: C_15  and  C_16 
ROOT
ATOM      1  C   UNL d   1      -2.412  -0.409   0.000  0.00  0.00     0.104 A 
ATOM      2  C   UNL d   1      -0.788  -0.687   0.000  0.00  0.00     0.058 A 
ATOM      3  C   UNL d   1      -1.884   0.225   0.000  0.00  0.00     0.013 A 
ATOM      4  C   UNL d   1      -2.113  -1.193   0.000  0.00  0.00     0.013 A 
ATOM      5  C   UNL d   1      -1.078   0.101   0.000  0.00  0.00     0.005 A 
ATOM      6  C   UNL d   1      -1.290  -1.320   0.000  0.00  0.00     0.005 A 
ENDROOT
BRANCH   2   7
ATOM      7  C   UNL d   1       0.057  -0.832   0.000  0.00  0.00     0.279 C 
ATOM      8  N   UNL d   1       0.568  -0.176   0.000  0.00  0.00    -0.206 NA
ATOM      9  O   UNL d   1       0.335  -1.589   0.000  0.00  0.00    -0.265 OA
BRANCH   8  10
ATOM     10  C   UNL d   1       1.373  -0.304   0.000  0.00  0.00     0.104 C 
BRANCH  10  11
ATOM     11  C   UNL d   1       1.879   0.330   0.000  0.00  0.00     0.038 A 
ATOM     12  C   UNL d   1       1.585   1.109   0.000  0.00  0.00     0.101 A 
ATOM     13  N   UNL d   1       2.091   1.743   0.000  0.00  0.00    -0.242 NA
ATOM     14  C   UNL d   1       2.909   1.620   0.000  0.00  0.00     0.099 A 
ATOM     15  C   UNL d   1       3.208   0.858   0.000  0.00  0.00     0.021 A 
ATOM     16  C   UNL d   1       2.680   0.207   0.000  0.00  0.00     0.005 A 
ENDBRANCH  10  11
ENDBRANCH   8  10
ENDBRANCH   2   7
BRANCH   1  17
ATOM     17  S   UNL d   1      -3.235  -0.282   0.000  0.00  0.00     0.271 S 
ATOM     18  O   UNL d   1      -3.112   0.541   0.000  0.00  0.00    -0.200 OA
ATOM     19  O   UNL d   1      -3.362  -1.127   0.000  0.00  0.00    -0.200 OA
BRANCH  17  20
ATOM     20  N   UNL d   1      -4.062  -0.158   0.000  0.00  0.00    -0.229 N 
ATOM     21  C   UNL d   1      -4.564  -0.810   0.000  0.00  0.00     0.092 A 
ATOM     22  C   UNL d   1      -5.370  -0.687   0.000  0.00  0.00     0.020 A 
ATOM     23  C   UNL d   1      -5.664   0.101   0.000  0.00  0.00     0.003 A 
ATOM     24  C   UNL d   1      -5.158   0.735   0.000  0.00  0.00     0.020 A 
ATOM     25  C   UNL d   1      -4.353   0.603   0.000  0.00  0.00     0.092 A 
ENDBRANCH  17  20
ENDBRANCH   1  17
TORSDOF 5
