REMARK  3 active torsions:
REMARK  status: ('A' for Active; 'I' for Inactive)
REMARK       I    between atoms: N_5  and  C_1 
REMARK       I    between atoms: N_6  and  C_1 
REMARK    1  A    between atoms: C_2  and  N_7 
REMARK    2  A    between atoms: C_9  and  N_5 
REMARK    3  A    between atoms: N_7  and  N_6 
ROOT
ATOM      1  C   UNL d   1      -2.016  -2.201   0.000  0.00  0.00     0.070 A 
ATOM      2  C   UNL d   1      -1.309  -1.772   0.000  0.00  0.00     0.032 A 
ATOM      3  C   UNL d   1      -1.309  -0.964   0.000  0.00  0.00     0.087 A 
ATOM      4  C   UNL d   1      -2.723  -1.772   0.000  0.00  0.00     0.068 A 
ATOM      5  C   UNL d   1      -2.723  -0.947   0.000  0.00  0.00     0.014 A 
ATOM      6 CL   UNL d   1      -2.033  -3.030   0.000  0.00  0.00    -0.081 Cl
ATOM      7  C   UNL d   1      -2.016  -0.543   0.000  0.00  0.00     0.020 A 
ATOM      8 CL   UNL d   1      -3.468  -2.201   0.000  0.00  0.00    -0.082 Cl
ENDROOT
BRANCH   3   9
ATOM      9  N   UNL d   1      -0.556  -0.543   0.000  0.00  0.00    -0.190 NA
ATOM     10  C   UNL d   1      -0.556   0.303   0.000  0.00  0.00     0.387 C 
ATOM     11  N   UNL d   1      -1.263   0.707   0.000  0.00  0.00    -0.086 NA
ATOM     12  O   UNL d   1       0.168   0.707   0.000  0.00  0.00    -0.241 OA
BRANCH  11  13
ATOM     13  N   UNL d   1      -1.970   0.303   0.000  0.00  0.00    -0.111 NA
BRANCH  13  14
ATOM     14  C   UNL d   1      -2.698   0.707   0.000  0.00  0.00     0.260 C 
ATOM     15  S   UNL d   1      -3.405   0.286   0.000  0.00  0.00    -0.034 SA
ATOM     16  N   UNL d   1      -2.698   1.536   0.000  0.00  0.00    -0.113 N 
ENDBRANCH  13  14
ENDBRANCH  11  13
ENDBRANCH   3   9
TORSDOF 3
