REMARK  1 active torsions:
REMARK  status: ('A' for Active; 'I' for Inactive)
REMARK    1  A    between atoms: N_2  and  C_1 
ROOT
ATOM      1  C   UNL d   1      -2.912  -0.782   0.000  0.00  0.00     0.148 A 
ATOM      2  C   UNL d   1      -3.651  -0.369   0.000  0.00  0.00     0.051 A 
ATOM      3  C   UNL d   1      -2.912  -1.607   0.000  0.00  0.00     0.127 A 
ATOM      4  C   UNL d   1      -4.359  -0.782   0.000  0.00  0.00     0.121 A 
ATOM      5  C   UNL d   1      -3.651  -2.020   0.000  0.00  0.00     0.049 A 
ATOM      6  C   UNL d   1      -4.359  -1.607   0.000  0.00  0.00     0.121 A 
ATOM      7  O   UNL d   1      -5.166  -0.517   0.000  0.00  0.00    -0.299 OA
ATOM      8  O   UNL d   1      -5.166  -1.872   0.000  0.00  0.00    -0.299 OA
ATOM      9  C   UNL d   1      -5.634  -1.188   0.000  0.00  0.00     0.304 A 
ATOM     10  N   UNL d   1      -2.143  -1.995   0.000  0.00  0.00    -0.146 N 
ENDROOT
BRANCH   1  11
ATOM     11  N   UNL d   1      -2.143  -0.394   0.000  0.00  0.00    -0.112 N 
ATOM     12  O   UNL d   1      -1.435  -0.837   0.000  0.00  0.00    -0.532 OA
ATOM     13  O   UNL d   1      -2.087   0.462   0.000  0.00  0.00    -0.532 OA
ENDBRANCH   1  11
TORSDOF 1
