REMARK  1 active torsions:
REMARK  status: ('A' for Active; 'I' for Inactive)
REMARK    1  A    between atoms: C_6  and  C_1 
ROOT
ATOM      1  C   UNL d   1      -3.883   2.405   0.000  0.00  0.00     0.085 A 
ATOM      2  C   UNL d   1      -3.411   1.722   0.000  0.00  0.00     0.137 A 
ATOM      3  S   UNL d   1      -3.883   1.091   0.000  0.00  0.00    -0.066 SA
ATOM      4  C   UNL d   1      -4.667   2.160   0.000  0.00  0.00     0.013 A 
ATOM      5  C   UNL d   1      -4.667   1.342   0.000  0.00  0.00     0.031 A 
ATOM      6  N   UNL d   1      -2.570   1.700   0.000  0.00  0.00    -0.141 N 
ATOM      7  C   UNL d   1      -5.384   2.570   0.000  0.00  0.00     0.001 A 
ATOM      8  C   UNL d   1      -5.384   0.932   0.000  0.00  0.00     0.006 A 
ATOM      9  C   UNL d   1      -6.100   2.160   0.000  0.00  0.00     0.000 A 
ATOM     10  C   UNL d   1      -6.100   1.342   0.000  0.00  0.00     0.001 A 
ENDROOT
BRANCH   1  11
ATOM     11  C   UNL d   1      -3.610   3.223   0.000  0.00  0.00     0.299 C 
ATOM     12  O   UNL d   1      -2.791   3.388   0.000  0.00  0.00    -0.264 OA
ATOM     13  N   UNL d   1      -4.156   3.849   0.000  0.00  0.00    -0.102 N 
ENDBRANCH   1  11
TORSDOF 1
