REMARK  1 active torsions:
REMARK  status: ('A' for Active; 'I' for Inactive)
REMARK    1  A    between atoms: C_2  and  N_1 
ROOT
ATOM      1  C   UNL d   1      -1.139   0.603   0.000  0.00  0.00     0.169 A 
ATOM      2  C   UNL d   1      -1.703   0.028   0.000  0.00  0.00     0.060 A 
ATOM      3  C   UNL d   1      -1.469  -0.787   0.000  0.00  0.00     0.115 A 
ATOM      4  S   UNL d   1      -2.144  -1.245   0.000  0.00  0.00    -0.068 SA
ATOM      5  C   UNL d   1      -2.524   0.028   0.000  0.00  0.00     0.011 A 
ATOM      6  N   UNL d   1      -0.352   0.430   0.000  0.00  0.00    -0.208 NA
ATOM      7  N   UNL d   1      -0.687  -0.977   0.000  0.00  0.00    -0.220 NA
ATOM      8  C   UNL d   1      -2.792  -0.759   0.000  0.00  0.00     0.031 A 
ATOM      9  C   UNL d   1      -0.084  -0.385   0.000  0.00  0.00     0.165 A 
ATOM     10  C   UNL d   1      -3.077   0.648   0.000  0.00  0.00     0.001 A 
ATOM     11  C   UNL d   1      -3.596  -0.921   0.000  0.00  0.00     0.006 A 
ATOM     12  C   UNL d   1       0.720  -0.586   0.000  0.00  0.00     0.042 C 
ATOM     13  C   UNL d   1      -3.881   0.464   0.000  0.00  0.00     0.000 A 
ATOM     14  C   UNL d   1      -4.155  -0.335   0.000  0.00  0.00     0.001 A 
ENDROOT
BRANCH   1  15
ATOM     15  N   UNL d   1      -1.357   1.402   0.000  0.00  0.00    -0.193 N 
ATOM     16  N   UNL d   1      -0.832   2.027   0.000  0.00  0.00    -0.058 NA
ATOM     17  N   UNL d   1      -1.268   2.742   0.000  0.00  0.00    -0.129 NA
ATOM     18  C   UNL d   1      -2.072   2.546   0.000  0.00  0.00     0.122 A 
ATOM     19  C   UNL d   1      -2.139   1.737   0.000  0.00  0.00     0.105 A 
ATOM     20  C   UNL d   1      -2.725   3.010   0.000  0.00  0.00     0.022 A 
ATOM     21  C   UNL d   1      -2.842   1.368   0.000  0.00  0.00     0.021 A 
ATOM     22  C   UNL d   1      -3.529   1.826   0.000  0.00  0.00     0.002 A 
ATOM     23  C   UNL d   1      -3.462   2.658   0.000  0.00  0.00     0.002 A 
ENDBRANCH   1  15
TORSDOF 1
