REMARK  3 active torsions:
REMARK  status: ('A' for Active; 'I' for Inactive)
REMARK    1  A    between atoms: S_9  and  C_6 
REMARK    2  A    between atoms: C_13  and  S_9 
REMARK    3  A    between atoms: C_11  and  C_13 
ROOT
ATOM      1  C   UNL d   1      -1.077  -1.773   0.000  0.00  0.00     0.114 A 
ATOM      2  C   UNL d   1      -1.321  -0.996   0.000  0.00  0.00     0.048 A 
ATOM      3  S   UNL d   1      -1.732  -2.261   0.000  0.00  0.00    -0.068 SA
ATOM      4  C   UNL d   1      -2.149  -0.996   0.000  0.00  0.00     0.010 A 
ATOM      5  C   UNL d   1      -2.418  -1.753   0.000  0.00  0.00     0.031 A 
ATOM      6  C   UNL d   1      -0.757  -0.386   0.000  0.00  0.00     0.111 A 
ATOM      7  N   UNL d   1      -0.269  -1.951   0.000  0.00  0.00    -0.217 NA
ATOM      8  N   UNL d   1       0.046  -0.554   0.000  0.00  0.00    -0.218 NA
ATOM      9  C   UNL d   1       0.290  -1.341   0.000  0.00  0.00     0.200 A 
ATOM     10  C   UNL d   1      -2.683  -0.366   0.000  0.00  0.00     0.001 A 
ATOM     11  C   UNL d   1      -3.226  -1.925   0.000  0.00  0.00     0.006 A 
ATOM     12  C   UNL d   1      -3.490  -0.533   0.000  0.00  0.00     0.000 A 
ATOM     13  C   UNL d   1      -3.760  -1.285   0.000  0.00  0.00     0.001 A 
ENDROOT
BRANCH   6  14
ATOM     14  S   UNL d   1      -1.001   0.422   0.000  0.00  0.00    -0.083 SA
BRANCH  14  15
ATOM     15  C   UNL d   1      -0.442   1.001   0.000  0.00  0.00     0.161 C 
BRANCH  15  16
ATOM     16  C   UNL d   1      -0.686   1.783   0.000  0.00  0.00     0.197 C 
ATOM     17  O   UNL d   1      -0.122   2.373   0.000  0.00  0.00    -0.647 OA
ATOM     18  O   UNL d   1      -1.463   1.976   0.000  0.00  0.00    -0.647 OA
ENDBRANCH  15  16
ENDBRANCH  14  15
ENDBRANCH   6  14
TORSDOF 3
