REMARK  0 active torsions:
REMARK  status: ('A' for Active; 'I' for Inactive)
ROOT
ATOM      1  C   UNL d   1      -1.692  -3.012   0.000  0.00  0.00     0.062 A 
ATOM      2  C   UNL d   1      -1.429  -3.796   0.000  0.00  0.00     0.116 A 
ATOM      3  C   UNL d   1      -1.126  -2.387   0.000  0.00  0.00     0.192 A 
ATOM      4  N   UNL d   1      -0.313  -2.580   0.000  0.00  0.00    -0.171 N 
ATOM      5  N   UNL d   1      -0.620  -3.965   0.000  0.00  0.00    -0.217 NA
ATOM      6  S   UNL d   1      -2.124  -4.248   0.000  0.00  0.00    -0.068 SA
ATOM      7  C   UNL d   1      -2.501  -2.982   0.000  0.00  0.00     0.011 A 
ATOM      8  N   UNL d   1      -0.412  -1.270   0.000  0.00  0.00    -0.022 NA
ATOM      9  N   UNL d   1       0.139  -1.866   0.000  0.00  0.00    -0.037 NA
ATOM     10  N   UNL d   1      -1.191  -1.583   0.000  0.00  0.00    -0.108 NA
ATOM     11  C   UNL d   1      -2.764  -3.771   0.000  0.00  0.00     0.031 A 
ATOM     12  C   UNL d   1      -0.074  -3.369   0.000  0.00  0.00     0.204 A 
ATOM     13  C   UNL d   1      -3.196  -2.536   0.000  0.00  0.00     0.001 A 
ATOM     14  C   UNL d   1      -3.573  -3.796   0.000  0.00  0.00     0.006 A 
ATOM     15  C   UNL d   1      -3.836  -3.037   0.000  0.00  0.00     0.001 A 
ENDROOT
TORSDOF 0
