REMARK  2 active torsions:
REMARK  status: ('A' for Active; 'I' for Inactive)
REMARK    1  A    between atoms: N_2  and  S_1 
REMARK    2  A    between atoms: C_3  and  S_1 
ROOT
ATOM      1  S   UNL d   1      -1.295   1.429   0.000  0.00  0.00     0.274 S 
ATOM      2  O   UNL d   1      -1.514   2.233   0.000  0.00  0.00    -0.200 OA
ATOM      3  O   UNL d   1      -1.083   0.625   0.000  0.00  0.00    -0.200 OA
ENDROOT
BRANCH   1   4
ATOM      4  N   UNL d   1      -0.491   1.649   0.000  0.00  0.00    -0.212 N 
ATOM      5  C   UNL d   1      -0.119   2.378   0.000  0.00  0.00     0.193 A 
ATOM      6  N   UNL d   1       0.703   2.251   0.000  0.00  0.00    -0.223 NA
ATOM      7  C   UNL d   1       0.830   1.429   0.000  0.00  0.00     0.100 A 
ATOM      8  C   UNL d   1       0.093   1.072   0.000  0.00  0.00     0.094 A 
ATOM      9  C   UNL d   1       1.522   0.982   0.000  0.00  0.00     0.021 A 
ATOM     10  C   UNL d   1       0.045   0.234   0.000  0.00  0.00     0.020 A 
ATOM     11  C   UNL d   1       0.741  -0.227   0.000  0.00  0.00     0.002 A 
ATOM     12  C   UNL d   1       1.474   0.164   0.000  0.00  0.00     0.002 A 
ENDBRANCH   1   4
BRANCH   1  13
ATOM     13  C   UNL d   1      -2.099   1.217   0.000  0.00  0.00     0.122 A 
ATOM     14  C   UNL d   1      -2.318   0.432   0.000  0.00  0.00     0.093 A 
ATOM     15  N   UNL d   1      -1.742  -0.160   0.000  0.00  0.00    -0.243 NA
ATOM     16  C   UNL d   1      -3.122   0.220   0.000  0.00  0.00     0.018 A 
ATOM     17  C   UNL d   1      -1.961  -0.942   0.000  0.00  0.00     0.099 A 
ATOM     18  C   UNL d   1      -2.765  -1.176   0.000  0.00  0.00     0.021 A 
ATOM     19  C   UNL d   1      -3.334  -0.584   0.000  0.00  0.00     0.003 A 
ATOM     20  C   UNL d   1      -3.692   0.789   0.000  0.00  0.00     0.002 A 
ATOM     21  C   UNL d   1      -3.479   1.574   0.000  0.00  0.00     0.001 A 
ATOM     22  C   UNL d   1      -2.676   1.805   0.000  0.00  0.00     0.014 A 
ENDBRANCH   1  13
TORSDOF 2
