REMARK  3 active torsions:
REMARK  status: ('A' for Active; 'I' for Inactive)
REMARK    1  A    between atoms: S_11  and  C_4 
REMARK    2  A    between atoms: C_14  and  S_11 
REMARK    3  A    between atoms: O_15  and  C_12 
ROOT
ATOM      1  N   UNL d   1       2.717  -0.922   0.000  0.00  0.00    -0.195 NA
ATOM      2  C   UNL d   1       2.007  -0.493   0.000  0.00  0.00     0.086 C 
ATOM      3  C   UNL d   1       1.288  -0.072   0.000  0.00  0.00     0.168 C 
ENDROOT
BRANCH   3   4
ATOM      4  S   UNL d   1       1.288   0.773   0.000  0.00  0.00    -0.078 SA
BRANCH   4   5
ATOM      5  C   UNL d   1       0.547   1.194   0.000  0.00  0.00     0.108 A 
ATOM      6  N   UNL d   1      -0.163   0.773   0.000  0.00  0.00    -0.239 NA
ATOM      7  C   UNL d   1      -0.864   1.194   0.000  0.00  0.00     0.084 A 
ATOM      8  C   UNL d   1      -0.864   2.007   0.000  0.00  0.00     0.018 A 
ATOM      9  C   UNL d   1      -1.573   0.773   0.000  0.00  0.00     0.043 A 
ATOM     10  C   UNL d   1      -0.163   2.437   0.000  0.00  0.00     0.004 A 
ATOM     11  C   UNL d   1      -1.573   2.437   0.000  0.00  0.00     0.004 A 
ATOM     12  C   UNL d   1       0.547   2.007   0.000  0.00  0.00     0.025 A 
ATOM     13  C   UNL d   1      -0.163   3.251   0.000  0.00  0.00     0.000 C 
ATOM     14  C   UNL d   1      -2.292   2.007   0.000  0.00  0.00     0.024 A 
ATOM     15  C   UNL d   1      -2.292   1.194   0.000  0.00  0.00     0.096 A 
BRANCH  15  16
ATOM     16  O   UNL d   1      -3.006   0.773   0.000  0.00  0.00    -0.328 OA
ATOM     17  C   UNL d   1      -3.725   1.194   0.000  0.00  0.00     0.181 C 
ENDBRANCH  15  16
ENDBRANCH   4   5
ENDBRANCH   3   4
TORSDOF 3
