REMARK  3 active torsions:
REMARK  status: ('A' for Active; 'I' for Inactive)
REMARK    1  A    between atoms: N_7  and  C_1 
REMARK    2  A    between atoms: N_10  and  N_7 
REMARK    3  A    between atoms: C_17  and  N_10 
ROOT
ATOM      1  N   UNL d   1      -3.125  -0.583   0.000  0.00  0.00    -0.148 NA
ENDROOT
BRANCH   1   2
ATOM      2  N   UNL d   1      -3.868  -0.198   0.000  0.00  0.00    -0.138 NA
BRANCH   2   3
ATOM      3  C   UNL d   1      -4.537  -0.642   0.000  0.00  0.00     0.218 A 
ATOM      4  C   UNL d   1      -4.511  -1.434   0.000  0.00  0.00     0.307 A 
ATOM      5  N   UNL d   1      -5.201  -1.867   0.000  0.00  0.00    -0.150 NA
ATOM      6  O   UNL d   1      -3.767  -1.819   0.000  0.00  0.00    -0.263 OA
ATOM      7  C   UNL d   1      -5.902  -1.541   0.000  0.00  0.00     0.374 A 
ATOM      8  N   UNL d   1      -5.950  -0.712   0.000  0.00  0.00    -0.150 NA
ATOM      9  O   UNL d   1      -6.592  -2.028   0.000  0.00  0.00    -0.242 OA
ATOM     10  C   UNL d   1      -5.281  -0.257   0.000  0.00  0.00     0.307 A 
ATOM     11  O   UNL d   1      -5.340   0.573   0.000  0.00  0.00    -0.263 OA
ENDBRANCH   2   3
ENDBRANCH   1   2
BRANCH   1  12
ATOM     12  C   UNL d   1      -2.434  -0.118   0.000  0.00  0.00     0.105 A 
ATOM     13  C   UNL d   1      -1.734  -0.535   0.000  0.00  0.00     0.048 A 
ATOM     14  C   UNL d   1      -1.022  -0.118   0.000  0.00  0.00     0.124 A 
ATOM     15  O   UNL d   1      -0.321  -0.535   0.000  0.00  0.00    -0.301 OA
ATOM     16  C   UNL d   1      -1.022   0.722   0.000  0.00  0.00     0.123 A 
ATOM     17  C   UNL d   1       0.391  -0.118   0.000  0.00  0.00     0.149 A 
ATOM     18  C   UNL d   1       0.391   0.722   0.000  0.00  0.00     0.149 A 
ATOM     19  O   UNL d   1      -0.321   1.134   0.000  0.00  0.00    -0.301 OA
ATOM     20  C   UNL d   1      -1.734   1.134   0.000  0.00  0.00     0.028 A 
ATOM     21  C   UNL d   1      -2.434   0.722   0.000  0.00  0.00     0.023 A 
ENDBRANCH   1  12
TORSDOF 3
