REMARK  1 active torsions:
REMARK  status: ('A' for Active; 'I' for Inactive)
REMARK    1  A    between atoms: C_10  and  C_5 
ROOT
ATOM      1  C   UNL d   1      -1.623  -0.300   0.000  0.00  0.00     0.118 A 
ATOM      2  C   UNL d   1      -2.058   0.386   0.000  0.00  0.00     0.088 A 
ATOM      3  N   UNL d   1      -0.781  -0.261   0.000  0.00  0.00    -0.219 NA
ATOM      4  C   UNL d   1      -1.648   1.107   0.000  0.00  0.00     0.303 A 
ATOM      5  C   UNL d   1      -0.401   0.461   0.000  0.00  0.00     0.162 A 
ATOM      6  O   UNL d   1      -0.836   1.142   0.000  0.00  0.00    -0.259 OA
ATOM      7  S   UNL d   1      -2.159  -0.947   0.000  0.00  0.00    -0.068 SA
ATOM      8  C   UNL d   1      -2.850   0.175   0.000  0.00  0.00     0.013 A 
ATOM      9  C   UNL d   1      -2.900  -0.621   0.000  0.00  0.00     0.031 A 
ATOM     10  O   UNL d   1      -2.058   1.828   0.000  0.00  0.00    -0.259 OA
ATOM     11  C   UNL d   1      -3.526   0.641   0.000  0.00  0.00     0.001 A 
ATOM     12  C   UNL d   1      -3.621  -1.022   0.000  0.00  0.00     0.006 A 
ATOM     13  C   UNL d   1      -4.267   0.240   0.000  0.00  0.00     0.000 A 
ATOM     14  C   UNL d   1      -4.322  -0.546   0.000  0.00  0.00     0.001 A 
ENDROOT
BRANCH   5  15
ATOM     15  C   UNL d   1       0.441   0.461   0.000  0.00  0.00     0.058 C 
ATOM     16  C   UNL d   1       0.421   1.287   0.000  0.00  0.00     0.008 C 
ATOM     17  C   UNL d   1       1.262   0.496   0.000  0.00  0.00     0.008 C 
ATOM     18  C   UNL d   1       0.466  -0.366   0.000  0.00  0.00     0.008 C 
ENDBRANCH   5  15
TORSDOF 1
