REMARK  3 active torsions:
REMARK  status: ('A' for Active; 'I' for Inactive)
REMARK    1  A    between atoms: C_2  and  S_1 
REMARK    2  A    between atoms: N_3  and  S_1 
REMARK    3  A    between atoms: C_10  and  N_3 
ROOT
ATOM      1  S   UNL d   1       0.950   1.373   0.000  0.00  0.00     0.285 S 
ATOM      2  O   UNL d   1       1.352   0.634   0.000  0.00  0.00    -0.198 OA
ATOM      3  O   UNL d   1       0.570   2.107   0.000  0.00  0.00    -0.198 OA
ENDROOT
BRANCH   1   4
ATOM      4  C   UNL d   1       1.684   1.774   0.000  0.00  0.00     0.107 A 
ATOM      5  C   UNL d   1       2.392   1.346   0.000  0.00  0.00     0.040 A 
ATOM      6  C   UNL d   1       3.094   1.753   0.000  0.00  0.00     0.123 A 
ATOM      7  O   UNL d   1       3.807   1.346   0.000  0.00  0.00    -0.301 OA
ATOM      8  C   UNL d   1       3.094   2.592   0.000  0.00  0.00     0.123 A 
ATOM      9  C   UNL d   1       4.519   1.774   0.000  0.00  0.00     0.149 A 
ATOM     10  C   UNL d   1       4.519   2.561   0.000  0.00  0.00     0.149 A 
ATOM     11  O   UNL d   1       3.807   2.994   0.000  0.00  0.00    -0.301 OA
ATOM     12  C   UNL d   1       2.392   2.994   0.000  0.00  0.00     0.028 A 
ATOM     13  C   UNL d   1       1.684   2.561   0.000  0.00  0.00     0.015 A 
ENDBRANCH   1   4
BRANCH   1  14
ATOM     14  N   UNL d   1       0.211   0.993   0.000  0.00  0.00    -0.158 NA
BRANCH  14  15
ATOM     15  C   UNL d   1       0.190   0.153   0.000  0.00  0.00     0.094 A 
ATOM     16  C   UNL d   1      -0.549  -0.227   0.000  0.00  0.00     0.020 A 
ATOM     17  C   UNL d   1      -0.570  -1.061   0.000  0.00  0.00     0.002 A 
ATOM     18  C   UNL d   1      -1.309  -1.462   0.000  0.00  0.00     0.000 C 
ATOM     19  C   UNL d   1       0.132  -1.494   0.000  0.00  0.00     0.000 A 
ATOM     20  C   UNL d   1       0.845  -1.082   0.000  0.00  0.00     0.002 A 
ATOM     21  C   UNL d   1       0.871  -0.275   0.000  0.00  0.00     0.020 A 
ENDBRANCH  14  15
ENDBRANCH   1  14
TORSDOF 3
