REMARK  1 active torsions:
REMARK  status: ('A' for Active; 'I' for Inactive)
REMARK    1  A    between atoms: C_2  and  N_1 
ROOT
ATOM      1  C   UNL d   1       0.071   0.263   0.000  0.00  0.00     0.153 A 
ATOM      2  C   UNL d   1      -0.487  -0.334   0.000  0.00  0.00     0.059 A 
ATOM      3  C   UNL d   1      -0.224  -1.154   0.000  0.00  0.00     0.115 A 
ATOM      4  S   UNL d   1      -0.913  -1.614   0.000  0.00  0.00    -0.068 SA
ATOM      5  C   UNL d   1      -1.307  -0.334   0.000  0.00  0.00     0.011 A 
ATOM      6  C   UNL d   1      -1.570  -1.116   0.000  0.00  0.00     0.031 A 
ATOM      7  N   UNL d   1       0.902   0.109   0.000  0.00  0.00    -0.206 NA
ATOM      8  N   UNL d   1       0.574  -1.335   0.000  0.00  0.00    -0.217 NA
ATOM      9  C   UNL d   1       1.165  -0.728   0.000  0.00  0.00     0.201 A 
ATOM     10  C   UNL d   1      -1.865   0.279   0.000  0.00  0.00     0.001 A 
ATOM     11  C   UNL d   1      -2.390  -1.296   0.000  0.00  0.00     0.006 A 
ATOM     12  C   UNL d   1      -2.708   0.126   0.000  0.00  0.00     0.000 A 
ATOM     13  C   UNL d   1      -2.932  -0.662   0.000  0.00  0.00     0.001 A 
ENDROOT
BRANCH   1  14
ATOM     14  N   UNL d   1      -0.525   0.831   0.000  0.00  0.00    -0.273 N 
ATOM     15  C   UNL d   1      -1.225   0.345   0.000  0.00  0.00     0.184 A 
ATOM     16  N   UNL d   1      -1.881   0.831   0.000  0.00  0.00    -0.224 NA
ATOM     17  C   UNL d   1      -1.619   1.603   0.000  0.00  0.00     0.099 A 
ATOM     18  C   UNL d   1      -0.766   1.635   0.000  0.00  0.00     0.085 A 
ATOM     19  C   UNL d   1      -2.029   2.314   0.000  0.00  0.00     0.021 A 
ATOM     20  C   UNL d   1      -0.372   2.341   0.000  0.00  0.00     0.019 A 
ATOM     21  C   UNL d   1      -0.804   3.046   0.000  0.00  0.00     0.002 A 
ATOM     22  C   UNL d   1      -1.619   3.019   0.000  0.00  0.00     0.002 A 
ENDBRANCH   1  14
TORSDOF 1
