REMARK  6 active torsions:
REMARK  status: ('A' for Active; 'I' for Inactive)
REMARK       I    between atoms: C_6  and  N_1 
REMARK    1  A    between atoms: C_7  and  C_3 
REMARK    2  A    between atoms: C_8  and  C_4 
REMARK    3  A    between atoms: C_11  and  C_6 
REMARK    4  A    between atoms: C_9  and  C_17 
REMARK    5  A    between atoms: C_17  and  C_11 
REMARK    6  A    between atoms: O_26  and  C_19 
ROOT
ATOM      1  N   UNL d   1       2.263  -0.265   0.000  0.00  0.00    -0.195 N 
ATOM      2  N   UNL d   1       1.626  -0.780   0.000  0.00  0.00    -0.163 NA
ATOM      3  C   UNL d   1       0.938  -0.367   0.000  0.00  0.00     0.103 A 
ATOM      4  C   UNL d   1       1.962   0.489   0.000  0.00  0.00     0.088 A 
ATOM      5  C   UNL d   1       1.162   0.443   0.000  0.00  0.00     0.040 A 
ATOM      6  C   UNL d   1       3.063  -0.489   0.000  0.00  0.00     0.281 C 
ATOM      7  O   UNL d   1       3.654   0.122   0.000  0.00  0.00    -0.265 OA
ENDROOT
BRANCH   3   8
ATOM      8  C   UNL d   1       0.229  -0.754   0.000  0.00  0.00     0.019 A 
ATOM      9  C   UNL d   1       0.229  -1.590   0.000  0.00  0.00     0.004 A 
ATOM     10  C   UNL d   1      -0.504  -2.003   0.000  0.00  0.00     0.024 A 
ATOM     11  C   UNL d   1      -1.218  -1.590   0.000  0.00  0.00     0.094 A 
ATOM     12  C   UNL d   1      -1.218  -0.754   0.000  0.00  0.00     0.024 A 
ATOM     13  C   UNL d   1      -0.484  -0.342   0.000  0.00  0.00     0.004 A 
BRANCH  11  14
ATOM     14  O   UNL d   1      -1.921  -2.023   0.000  0.00  0.00    -0.328 OA
ATOM     15  C   UNL d   1      -1.921  -2.859   0.000  0.00  0.00     0.181 C 
ENDBRANCH  11  14
ENDBRANCH   3   8
BRANCH   4  16
ATOM     16  C   UNL d   1       2.385   1.223   0.000  0.00  0.00     0.018 A 
ATOM     17  C   UNL d   1       3.216   1.223   0.000  0.00  0.00     0.002 A 
ATOM     18  C   UNL d   1       3.628   1.936   0.000  0.00  0.00     0.007 A 
ATOM     19  C   UNL d   1       3.216   2.645   0.000  0.00  0.00     0.035 A 
ATOM     20  C   UNL d   1       2.385   2.645   0.000  0.00  0.00     0.007 A 
ATOM     21 BR   UNL d   1       3.628   3.358   0.000  0.00  0.00    -0.049 Br
ATOM     22  C   UNL d   1       1.962   1.936   0.000  0.00  0.00     0.002 A 
ENDBRANCH   4  16
BRANCH   6  23
ATOM     23  C   UNL d   1       3.307  -1.269   0.000  0.00  0.00     0.069 C 
BRANCH  23  24
ATOM     24  C   UNL d   1       4.097  -1.468   0.000  0.00  0.00     0.075 C 
BRANCH  24  25
ATOM     25  C   UNL d   1       4.342  -2.247   0.000  0.00  0.00     0.211 C 
ATOM     26  O   UNL d   1       5.142  -2.446   0.000  0.00  0.00    -0.644 OA
ATOM     27  O   UNL d   1       3.796  -2.859   0.000  0.00  0.00    -0.644 OA
ENDBRANCH  24  25
ENDBRANCH  23  24
ENDBRANCH   6  23
TORSDOF 6
