REMARK  1 active torsions:
REMARK  status: ('A' for Active; 'I' for Inactive)
REMARK    1  A    between atoms: C_8  and  C_2 
ROOT
ATOM      1  N   UNL d   1      -1.002  -1.138   0.000  0.00  0.00    -0.191 NA
ATOM      2  C   UNL d   1      -1.708  -1.532   0.000  0.00  0.00     0.087 A 
ATOM      3  C   UNL d   1      -1.002  -0.301   0.000  0.00  0.00     0.369 A 
ATOM      4  N   UNL d   1      -1.708   0.126   0.000  0.00  0.00    -0.191 NA
ATOM      5  C   UNL d   1      -2.424  -1.138   0.000  0.00  0.00     0.036 A 
ATOM      6  C   UNL d   1      -2.424  -0.301   0.000  0.00  0.00     0.088 A 
ATOM      7  O   UNL d   1      -0.290   0.126   0.000  0.00  0.00    -0.242 OA
ATOM      8  C   UNL d   1      -3.130  -1.532   0.000  0.00  0.00     0.003 A 
ATOM      9  C   UNL d   1      -3.130   0.126   0.000  0.00  0.00     0.019 A 
ATOM     10  C   UNL d   1      -3.836  -1.138   0.000  0.00  0.00     0.000 A 
ATOM     11  C   UNL d   1      -3.836  -0.301   0.000  0.00  0.00     0.002 A 
ENDROOT
BRANCH   2  12
ATOM     12  C   UNL d   1      -1.708  -2.370   0.000  0.00  0.00     0.018 A 
ATOM     13  C   UNL d   1      -1.002  -2.764   0.000  0.00  0.00     0.002 A 
ATOM     14  C   UNL d   1      -1.002  -3.612   0.000  0.00  0.00     0.000 A 
ATOM     15  C   UNL d   1      -1.708  -4.006   0.000  0.00  0.00     0.000 A 
ATOM     16  C   UNL d   1      -2.424  -3.612   0.000  0.00  0.00     0.000 A 
ATOM     17  C   UNL d   1      -2.424  -2.764   0.000  0.00  0.00     0.002 A 
ENDBRANCH   2  12
TORSDOF 1
