REMARK  3 active torsions:
REMARK  status: ('A' for Active; 'I' for Inactive)
REMARK    1  A    between atoms: C_6  and  C_1 
REMARK    2  A    between atoms: O_10  and  C_6 
REMARK    3  A    between atoms: C_19  and  O_10 
ROOT
ATOM      1  C   UNL d   1       2.991  -2.045   0.000  0.00  0.00     0.081 A 
ATOM      2  C   UNL d   1       1.525  -2.045   0.000  0.00  0.00     0.056 A 
ATOM      3  C   UNL d   1       1.525  -2.856   0.000  0.00  0.00     0.080 A 
ATOM      4  C   UNL d   1       2.991  -2.856   0.000  0.00  0.00     0.086 A 
ATOM      5  C   UNL d   1       2.235  -1.623   0.000  0.00  0.00     0.013 A 
ATOM      6  N   UNL d   1       2.235  -3.296   0.000  0.00  0.00    -0.246 NA
ATOM      7  C   UNL d   1       0.816  -1.623   0.000  0.00  0.00     0.193 A 
ATOM      8  C   UNL d   1       0.816  -3.296   0.000  0.00  0.00    -0.003 A 
ATOM      9  C   UNL d   1       0.101  -2.856   0.000  0.00  0.00     0.042 A 
ATOM     10  C   UNL d   1       0.101  -2.045   0.000  0.00  0.00     0.019 A 
ATOM     11  O   UNL d   1       0.816  -0.811   0.000  0.00  0.00    -0.287 OA
ATOM     12  C   UNL d   1       2.235  -0.308   0.000  0.00  0.00     0.020 A 
ATOM     13  N   UNL d   1       2.991   0.896   0.000  0.00  0.00    -0.242 NA
ATOM     14  C   UNL d   1       3.701  -3.296   0.000  0.00  0.00     0.021 C 
ATOM     15  C   UNL d   1       2.991   0.072   0.000  0.00  0.00     0.099 A 
ATOM     16  C   UNL d   1      -0.439  -3.448   0.000  0.00  0.00     0.009 C 
ATOM     17  C   UNL d   1      -0.693  -2.856   0.000  0.00  0.00     0.009 C 
ATOM     18  C   UNL d   1       2.235   1.301   0.000  0.00  0.00     0.099 A 
ATOM     19  C   UNL d   1       1.521   0.072   0.000  0.00  0.00     0.003 A 
ATOM     20  C   UNL d   1       1.521   0.896   0.000  0.00  0.00     0.021 A 
ENDROOT
BRANCH   1  21
ATOM     21  C   UNL d   1       3.701  -1.623   0.000  0.00  0.00     0.301 C 
ATOM     22  O   UNL d   1       3.701  -0.811   0.000  0.00  0.00    -0.259 OA
BRANCH  21  23
ATOM     23  O   UNL d   1       4.411  -2.045   0.000  0.00  0.00    -0.273 OA
BRANCH  23  24
ATOM     24  C   UNL d   1       5.070  -1.673   0.000  0.00  0.00     0.103 C 
ATOM     25  C   UNL d   1       5.729  -2.079   0.000  0.00  0.00     0.027 C 
ATOM     26  C   UNL d   1       5.074  -0.913   0.000  0.00  0.00     0.027 C 
ENDBRANCH  23  24
ENDBRANCH  21  23
ENDBRANCH   1  21
TORSDOF 3
