REMARK  1 active torsions:
REMARK  status: ('A' for Active; 'I' for Inactive)
REMARK    1  A    between atoms: C_5  and  C_1 
ROOT
ATOM      1  C   UNL d   1       0.492   0.045   0.000  0.00  0.00     0.128 A 
ATOM      2  C   UNL d   1       0.492  -0.807   0.000  0.00  0.00     0.306 A 
ATOM      3  C   UNL d   1      -0.224   0.434   0.000  0.00  0.00     0.013 A 
ATOM      4  O   UNL d   1      -0.224  -1.208   0.000  0.00  0.00    -0.273 OA
ATOM      5  C   UNL d   1      -0.945   0.021   0.000  0.00  0.00     0.023 A 
ATOM      6  C   UNL d   1      -0.945  -0.807   0.000  0.00  0.00     0.103 A 
ATOM      7  O   UNL d   1       1.208  -1.252   0.000  0.00  0.00    -0.259 OA
ATOM      8  C   UNL d   1      -1.633   0.434   0.000  0.00  0.00     0.002 A 
ATOM      9  C   UNL d   1      -1.633  -1.208   0.000  0.00  0.00     0.025 A 
ATOM     10  C   UNL d   1      -2.358   0.045   0.000  0.00  0.00     0.000 A 
ATOM     11  C   UNL d   1      -2.358  -0.807   0.000  0.00  0.00     0.002 A 
ENDROOT
BRANCH   1  12
ATOM     12  C   UNL d   1       1.185   0.434   0.000  0.00  0.00     0.216 C 
ATOM     13  O   UNL d   1       1.230   1.258   0.000  0.00  0.00    -0.644 OA
ATOM     14  O   UNL d   1       1.946   0.155   0.000  0.00  0.00    -0.644 OA
ENDBRANCH   1  12
TORSDOF 1
