REMARK  4 active torsions:
REMARK  status: ('A' for Active; 'I' for Inactive)
REMARK    1  A    between atoms: C_7  and  C_1 
REMARK    2  A    between atoms: C_8  and  C_4 
REMARK    3  A    between atoms: O_9  and  C_7 
REMARK    4  A    between atoms: C_16  and  O_9 
ROOT
ATOM      1  C   UNL d   1       2.920  -3.195   0.000  0.00  0.00     0.098 A 
ATOM      2  C   UNL d   1       2.920  -4.020   0.000  0.00  0.00     0.075 A 
ATOM      3  C   UNL d   1       1.490  -4.020   0.000  0.00  0.00     0.354 A 
ATOM      4  C   UNL d   1       2.205  -2.805   0.000  0.00  0.00     0.093 A 
ATOM      5  N   UNL d   1       2.205  -4.455   0.000  0.00  0.00    -0.256 N 
ATOM      6  N   UNL d   1       1.490  -3.195   0.000  0.00  0.00    -0.192 NA
ATOM      7  O   UNL d   1       0.770  -4.455   0.000  0.00  0.00    -0.244 OA
ATOM      8  C   UNL d   1       3.635  -4.455   0.000  0.00  0.00     0.019 C 
ATOM      9  C   UNL d   1       2.205  -5.280   0.000  0.00  0.00     0.104 C 
ENDROOT
BRANCH   1  10
ATOM     10  C   UNL d   1       3.635  -2.805   0.000  0.00  0.00     0.303 C 
ATOM     11  O   UNL d   1       3.635  -1.980   0.000  0.00  0.00    -0.259 OA
BRANCH  10  12
ATOM     12  O   UNL d   1       4.350  -3.195   0.000  0.00  0.00    -0.273 OA
BRANCH  12  13
ATOM     13  C   UNL d   1       5.065  -2.805   0.000  0.00  0.00     0.103 A 
ATOM     14  C   UNL d   1       5.065  -1.980   0.000  0.00  0.00     0.025 A 
ATOM     15  C   UNL d   1       5.720  -1.448   0.000  0.00  0.00     0.002 A 
ATOM     16  C   UNL d   1       6.508  -1.650   0.000  0.00  0.00     0.000 A 
ATOM     17  C   UNL d   1       6.875  -2.370   0.000  0.00  0.00     0.000 A 
ATOM     18  C   UNL d   1       6.508  -3.135   0.000  0.00  0.00     0.002 A 
ATOM     19  C   UNL d   1       5.720  -3.300   0.000  0.00  0.00     0.025 A 
ENDBRANCH  12  13
ENDBRANCH  10  12
ENDBRANCH   1  10
BRANCH   4  20
ATOM     20  C   UNL d   1       2.205  -1.980   0.000  0.00  0.00     0.023 A 
ATOM     21  C   UNL d   1       1.490  -1.545   0.000  0.00  0.00     0.032 A 
ATOM     22  I   UNL d   1       0.775  -1.980   0.000  0.00  0.00    -0.043 I 
ATOM     23  C   UNL d   1       1.490  -0.720   0.000  0.00  0.00     0.006 A 
ATOM     24  C   UNL d   1       2.200  -0.330   0.000  0.00  0.00     0.000 A 
ATOM     25  C   UNL d   1       2.915  -0.733   0.000  0.00  0.00     0.000 A 
ATOM     26  C   UNL d   1       2.915  -1.558   0.000  0.00  0.00     0.002 A 
ENDBRANCH   4  20
TORSDOF 4
