REMARK  5 active torsions:
REMARK  status: ('A' for Active; 'I' for Inactive)
REMARK       I    between atoms: C_2  and  N_1 
REMARK    1  A    between atoms: C_10  and  C_2 
REMARK    2  A    between atoms: C_7  and  C_3 
REMARK       I    between atoms: C_5  and  N_8 
REMARK    3  A    between atoms: C_15  and  C_5 
REMARK    4  A    between atoms: N_8  and  C_7 
REMARK    5  A    between atoms: N_9  and  C_10 
ROOT
ATOM      1  N   UNL d   1       0.281   0.793   0.000  0.00  0.00    -0.271 N 
ATOM      2  C   UNL d   1       0.985   0.348   0.000  0.00  0.00     0.282 C 
ATOM      3  C   UNL d   1      -0.434   0.387   0.000  0.00  0.00     0.086 A 
ATOM      4  C   UNL d   1      -1.125   0.793   0.000  0.00  0.00     0.018 A 
ATOM      5  C   UNL d   1       0.281   1.637   0.000  0.00  0.00     0.083 A 
ATOM      6  C   UNL d   1      -1.125   1.613   0.000  0.00  0.00     0.003 A 
ATOM      7  O   UNL d   1       0.985  -0.473   0.000  0.00  0.00    -0.265 OA
ATOM      8  C   UNL d   1      -0.434   2.035   0.000  0.00  0.00     0.019 A 
ATOM      9  C   UNL d   1      -1.848   0.387   0.000  0.00  0.00     0.002 A 
ATOM     10  C   UNL d   1      -1.848   2.035   0.000  0.00  0.00     0.000 A 
ATOM     11  C   UNL d   1      -2.563   0.793   0.000  0.00  0.00     0.000 A 
ATOM     12  C   UNL d   1      -2.563   1.637   0.000  0.00  0.00     0.000 A 
ENDROOT
BRANCH   3  13
ATOM     13  C   UNL d   1      -0.434  -0.438   0.000  0.00  0.00     0.120 C 
BRANCH  13  14
ATOM     14  N   UNL d   1       0.281  -0.848   0.000  0.00  0.00    -0.205 NA
ATOM     15  C   UNL d   1       0.281  -1.688   0.000  0.00  0.00     0.279 C 
ATOM     16  O   UNL d   1       0.985  -2.110   0.000  0.00  0.00    -0.265 OA
BRANCH  15  17
ATOM     17  C   UNL d   1      -0.434  -2.078   0.000  0.00  0.00     0.058 A 
ATOM     18  C   UNL d   1      -1.145  -1.688   0.000  0.00  0.00     0.005 A 
ATOM     19  C   UNL d   1      -1.871  -2.078   0.000  0.00  0.00     0.000 A 
ATOM     20  C   UNL d   1      -1.871  -2.922   0.000  0.00  0.00     0.000 A 
ATOM     21  C   UNL d   1      -1.145  -3.328   0.000  0.00  0.00     0.000 A 
ATOM     22  C   UNL d   1      -0.453  -2.906   0.000  0.00  0.00     0.005 A 
ENDBRANCH  15  17
ENDBRANCH  13  14
ENDBRANCH   3  13
BRANCH   2  23
ATOM     23  C   UNL d   1       1.734   0.734   0.000  0.00  0.00     0.142 C 
BRANCH  23  24
ATOM     24  N   UNL d   1       1.750   1.559   0.000  0.00  0.00    -0.295 N 
ATOM     25  C   UNL d   1       2.485   1.942   0.000  0.00  0.00     0.107 A 
ATOM     26  C   UNL d   1       2.531   2.774   0.000  0.00  0.00     0.142 A 
ATOM     27  O   UNL d   1       1.828   3.207   0.000  0.00  0.00    -0.300 OA
ATOM     28  C   UNL d   1       1.078   2.832   0.000  0.00  0.00     0.142 A 
ATOM     29  C   UNL d   1       1.047   2.000   0.000  0.00  0.00     0.107 A 
ENDBRANCH  23  24
ENDBRANCH   2  23
TORSDOF 5
