REMARK  5 active torsions:
REMARK  status: ('A' for Active; 'I' for Inactive)
REMARK    1  A    between atoms: S_2  and  C_1 
REMARK    2  A    between atoms: N_11  and  S_2 
REMARK    3  A    between atoms: C_14  and  N_11 
REMARK    4  A    between atoms: C_16  and  C_14 
REMARK    5  A    between atoms: C_15  and  C_16 
ROOT
ATOM      1  S   UNL d   1      -0.741  -0.274   0.000  0.00  0.00     0.287 S 
ATOM      2  O   UNL d   1      -1.152  -1.026   0.000  0.00  0.00    -0.198 OA
ATOM      3  O   UNL d   1      -0.331   0.445   0.000  0.00  0.00    -0.198 OA
ENDROOT
BRANCH   1   4
ATOM      4  C   UNL d   1      -1.471   0.125   0.000  0.00  0.00     0.125 A 
ATOM      5  C   UNL d   1      -2.190  -0.308   0.000  0.00  0.00     0.121 A 
ATOM      6  N   UNL d   1      -2.349  -1.129   0.000  0.00  0.00    -0.190 NA
ATOM      7  C   UNL d   1      -2.905   0.103   0.000  0.00  0.00     0.110 A 
ATOM      8  S   UNL d   1      -3.170  -1.200   0.000  0.00  0.00     0.117 SA
ATOM      9  N   UNL d   1      -3.513  -0.445   0.000  0.00  0.00    -0.190 NA
ATOM     10  C   UNL d   1      -2.905   0.947   0.000  0.00  0.00     0.021 A 
ATOM     11  C   UNL d   1      -2.190   1.357   0.000  0.00  0.00     0.002 A 
ATOM     12  C   UNL d   1      -1.471   0.958   0.000  0.00  0.00     0.015 A 
ENDBRANCH   1   4
BRANCH   1  13
ATOM     13  N   UNL d   1      -0.009  -0.687   0.000  0.00  0.00    -0.157 NA
BRANCH  13  14
ATOM     14  C   UNL d   1       0.719  -0.274   0.000  0.00  0.00     0.112 C 
BRANCH  14  15
ATOM     15  C   UNL d   1       1.437  -0.684   0.000  0.00  0.00     0.021 C 
BRANCH  15  16
ATOM     16  C   UNL d   1       2.155  -0.239   0.000  0.00  0.00     0.002 A 
ATOM     17  C   UNL d   1       2.121   0.590   0.000  0.00  0.00     0.000 A 
ATOM     18  C   UNL d   1       2.817   1.015   0.000  0.00  0.00     0.000 A 
ATOM     19  C   UNL d   1       3.535   0.624   0.000  0.00  0.00     0.000 A 
ATOM     20  C   UNL d   1       3.570  -0.182   0.000  0.00  0.00     0.000 A 
ATOM     21  C   UNL d   1       2.874  -0.616   0.000  0.00  0.00     0.000 A 
ENDBRANCH  15  16
ENDBRANCH  14  15
ENDBRANCH  13  14
ENDBRANCH   1  13
TORSDOF 5
