REMARK  3 active torsions:
REMARK  status: ('A' for Active; 'I' for Inactive)
REMARK    1  A    between atoms: N_3  and  C_1 
REMARK       I    between atoms: C_2  and  N_3 
REMARK       I    between atoms: N_14  and  C_2 
REMARK    2  A    between atoms: C_16  and  N_14 
REMARK    3  A    between atoms: C_17  and  C_16 
ROOT
ATOM      1  C   UNL d   1      -1.014  -0.033   0.000  0.00  0.00     0.127 A 
ATOM      2  C   UNL d   1      -2.028  -0.523   0.000  0.00  0.00    -0.006 A 
ATOM      3  C   UNL d   1      -1.709   1.142   0.000  0.00  0.00     0.046 A 
ATOM      4  C   UNL d   1      -2.355  -0.033   0.000  0.00  0.00    -0.006 A 
ATOM      5  C   UNL d   1      -1.709  -0.436   0.000  0.00  0.00    -0.001 A 
ATOM      6  C   UNL d   1      -0.851  -0.720   0.000  0.00  0.00    -0.001 A 
ATOM      7  C   UNL d   1      -1.044   0.654   0.000  0.00  0.00     0.040 A 
ATOM      8  C   UNL d   1      -1.993   0.480   0.000  0.00  0.00    -0.022 A 
ATOM      9  C   UNL d   1      -2.355   0.742   0.000  0.00  0.00    -0.022 A 
ATOM     10  C   UNL d   1      -3.449  -0.862   0.000  0.00  0.00    -0.001 A 
ENDROOT
BRANCH   1  11
ATOM     11  N   UNL d   1      -0.275   0.532   0.000  0.00  0.00    -0.213 NA
ATOM     12  C   UNL d   1       0.556   0.172   0.000  0.00  0.00     0.365 C 
ATOM     13  O   UNL d   1       1.276   0.720   0.000  0.00  0.00    -0.243 OA
ATOM     14  N   UNL d   1       0.687  -0.785   0.000  0.00  0.00    -0.186 NA
BRANCH  14  15
ATOM     15  C   UNL d   1       1.538  -1.123   0.000  0.00  0.00     0.149 C 
BRANCH  15  16
ATOM     16  C   UNL d   1       2.257  -0.559   0.000  0.00  0.00     0.255 C 
ATOM     17  O   UNL d   1       3.141  -0.883   0.000  0.00  0.00    -0.281 OA
ENDBRANCH  15  16
ENDBRANCH  14  15
ENDBRANCH   1  11
TORSDOF 3
