REMARK  6 active torsions:
REMARK  status: ('A' for Active; 'I' for Inactive)
REMARK    1  A    between atoms: C_2  and  C_4 
REMARK    2  A    between atoms: C_5  and  C_3 
REMARK    3  A    between atoms: C_16  and  C_15 
REMARK    4  A    between atoms: C_17  and  C_16 
REMARK    5  A    between atoms: C_19  and  C_17 
REMARK    6  A    between atoms: C_18  and  C_19 
ROOT
ATOM      1  N   UNL d   1       0.829  -1.305   0.000  0.00  0.00    -0.244 NA
ATOM      2  C   UNL d   1       0.829  -0.464   0.000  0.00  0.00     0.081 A 
ATOM      3  C   UNL d   1       0.092  -0.050   0.000  0.00  0.00     0.019 A 
ATOM      4  C   UNL d   1       0.092  -1.750   0.000  0.00  0.00     0.099 A 
ATOM      5  C   UNL d   1      -0.610  -0.464   0.000  0.00  0.00     0.003 A 
ATOM      6  C   UNL d   1      -0.610  -1.305   0.000  0.00  0.00     0.019 A 
ENDROOT
BRANCH   2   7
ATOM      7  C   UNL d   1       1.519  -0.081   0.000  0.00  0.00     0.018 A 
ATOM      8  C   UNL d   1       2.214  -0.506   0.000  0.00  0.00     0.002 A 
ATOM      9  C   UNL d   1       2.947  -0.081   0.000  0.00  0.00     0.006 A 
ATOM     10  C   UNL d   1       2.951   0.737   0.000  0.00  0.00     0.064 A 
ATOM     11  C   UNL d   1       2.214   1.163   0.000  0.00  0.00     0.006 A 
ATOM     12  C   UNL d   1       1.519   0.737   0.000  0.00  0.00     0.002 A 
BRANCH  10  13
ATOM     13  C   UNL d   1       3.683   1.163   0.000  0.00  0.00     0.211 C 
ATOM     14  O   UNL d   1       3.730   1.999   0.000  0.00  0.00    -0.644 OA
ATOM     15  O   UNL d   1       4.420   0.737   0.000  0.00  0.00    -0.644 OA
ENDBRANCH  10  13
ENDBRANCH   2   7
BRANCH   6  16
ATOM     16  C   UNL d   1      -1.347  -1.754   0.000  0.00  0.00     0.002 C 
BRANCH  16  17
ATOM     17  C   UNL d   1      -2.045  -1.335   0.000  0.00  0.00     0.000 C 
BRANCH  17  18
ATOM     18  C   UNL d   1      -2.782  -1.754   0.000  0.00  0.00     0.000 C 
BRANCH  18  19
ATOM     19  C   UNL d   1      -3.484  -1.381   0.000  0.00  0.00     0.000 C 
ATOM     20  C   UNL d   1      -4.190  -1.796   0.000  0.00  0.00     0.000 C 
ENDBRANCH  18  19
ENDBRANCH  17  18
ENDBRANCH  16  17
ENDBRANCH   6  16
TORSDOF 6
