REMARK  5 active torsions:
REMARK  status: ('A' for Active; 'I' for Inactive)
REMARK    1  A    between atoms: C_2  and  C_1 
REMARK    2  A    between atoms: O_6  and  C_1 
REMARK    3  A    between atoms: C_11  and  O_6 
REMARK    4  A    between atoms: C_12  and  C_11 
REMARK    5  A    between atoms: C_13  and  C_12 
ROOT
ATOM      1  C   UNL d   1      -1.153   0.009   0.000  0.00  0.00     0.064 A 
ATOM      2  C   UNL d   1      -1.873   0.415   0.000  0.00  0.00     0.009 A 
ATOM      3  C   UNL d   1      -1.153  -0.817   0.000  0.00  0.00     0.009 A 
ATOM      4  C   UNL d   1      -2.591  -0.817   0.000  0.00  0.00     0.196 A 
ATOM      5  C   UNL d   1      -2.591   0.009   0.000  0.00  0.00     0.042 A 
ATOM      6  C   UNL d   1      -1.873  -1.220   0.000  0.00  0.00     0.042 A 
ATOM      7  O   UNL d   1      -3.303  -1.254   0.000  0.00  0.00    -0.287 OA
ENDROOT
BRANCH   1   8
ATOM      8  C   UNL d   1      -0.438   0.429   0.000  0.00  0.00     0.300 C 
ATOM      9  O   UNL d   1      -0.438   1.254   0.000  0.00  0.00    -0.259 OA
BRANCH   8  10
ATOM     10  O   UNL d   1       0.271   0.009   0.000  0.00  0.00    -0.271 OA
BRANCH  10  11
ATOM     11  C   UNL d   1       0.983   0.429   0.000  0.00  0.00     0.126 C 
BRANCH  11  12
ATOM     12  C   UNL d   1       1.695   0.009   0.000  0.00  0.00     0.027 C 
BRANCH  12  13
ATOM     13  C   UNL d   1       2.407   0.415   0.000  0.00  0.00     0.002 C 
ATOM     14  C   UNL d   1       3.119   0.000   0.000  0.00  0.00     0.000 C 
ENDBRANCH  12  13
ENDBRANCH  11  12
ENDBRANCH  10  11
ENDBRANCH   8  10
ENDBRANCH   1   8
TORSDOF 5
