REMARK  2 active torsions:
REMARK  status: ('A' for Active; 'I' for Inactive)
REMARK    1  A    between atoms: C_7  and  C_1 
REMARK    2  A    between atoms: C_5  and  C_3 
ROOT
ATOM      1  C   UNL d   1       1.729   0.521   0.000  0.00  0.00     0.067 A 
ATOM      2  N   UNL d   1       2.562  -0.904   0.000  0.00  0.00    -0.244 NA
ATOM      3  C   UNL d   1       2.975  -0.192   0.000  0.00  0.00     0.104 A 
ATOM      4  C   UNL d   1       2.562   0.521   0.000  0.00  0.00     0.027 A 
ATOM      5  C   UNL d   1       1.317  -0.192   0.000  0.00  0.00     0.024 A 
ATOM      6  C   UNL d   1       1.729  -0.904   0.000  0.00  0.00     0.082 A 
ATOM      7  C   UNL d   1       0.492  -0.192   0.000  0.00  0.00     0.002 A 
ATOM      8  C   UNL d   1       1.317  -1.625   0.000  0.00  0.00     0.019 A 
ATOM      9  C   UNL d   1       0.079  -0.904   0.000  0.00  0.00     0.000 A 
ATOM     10  C   UNL d   1       0.492  -1.625   0.000  0.00  0.00     0.002 A 
ENDROOT
BRANCH   3  11
ATOM     11  C   UNL d   1       3.804  -0.192   0.000  0.00  0.00     0.118 A 
ATOM     12  O   UNL d   1       4.317  -0.838   0.000  0.00  0.00    -0.304 OA
ATOM     13  C   UNL d   1       5.088  -0.542   0.000  0.00  0.00     0.123 A 
ATOM     14  C   UNL d   1       5.050   0.271   0.000  0.00  0.00     0.029 A 
ATOM     15  C   UNL d   1       4.254   0.487   0.000  0.00  0.00     0.028 A 
ENDBRANCH   3  11
BRANCH   1  16
ATOM     16  C   UNL d   1       1.312   1.246   0.000  0.00  0.00     0.211 C 
ATOM     17  O   UNL d   1       0.487   1.238   0.000  0.00  0.00    -0.644 OA
ATOM     18  O   UNL d   1       1.725   1.962   0.000  0.00  0.00    -0.644 OA
ENDBRANCH   1  16
TORSDOF 2
