REMARK  4 active torsions:
REMARK  status: ('A' for Active; 'I' for Inactive)
REMARK    1  A    between atoms: C_2  and  S_1 
REMARK    2  A    between atoms: N_5  and  S_1 
REMARK    3  A    between atoms: C_11  and  C_4 
REMARK    4  A    between atoms: C_9  and  N_5 
ROOT
ATOM      1  S   UNL d   1      -0.304   0.926   0.000  0.00  0.00     0.287 S 
ATOM      2  O   UNL d   1      -0.701   0.196   0.000  0.00  0.00    -0.198 OA
ATOM      3  O   UNL d   1       0.108   1.657   0.000  0.00  0.00    -0.198 OA
ENDROOT
BRANCH   1   4
ATOM      4  C   UNL d   1      -1.020   1.345   0.000  0.00  0.00     0.125 A 
ATOM      5  C   UNL d   1      -1.733   0.926   0.000  0.00  0.00     0.121 A 
ATOM      6  N   UNL d   1      -1.910   0.123   0.000  0.00  0.00    -0.190 NA
ATOM      7  C   UNL d   1      -2.452   1.345   0.000  0.00  0.00     0.110 A 
ATOM      8  S   UNL d   1      -2.722   0.036   0.000  0.00  0.00     0.117 SA
ATOM      9  N   UNL d   1      -3.056   0.791   0.000  0.00  0.00    -0.190 NA
ATOM     10  C   UNL d   1      -2.452   2.163   0.000  0.00  0.00     0.021 A 
ATOM     11  C   UNL d   1      -1.733   2.578   0.000  0.00  0.00     0.002 A 
ATOM     12  C   UNL d   1      -1.020   2.163   0.000  0.00  0.00     0.015 A 
ENDBRANCH   1   4
BRANCH   1  13
ATOM     13  N   UNL d   1       0.409   0.505   0.000  0.00  0.00    -0.158 NA
BRANCH  13  14
ATOM     14  C   UNL d   1       0.626  -0.036   0.000  0.00  0.00     0.100 A 
ATOM     15  C   UNL d   1       1.480  -0.220   0.000  0.00  0.00     0.083 A 
ATOM     16  C   UNL d   1       1.637  -1.023   0.000  0.00  0.00     0.014 A 
ATOM     17  C   UNL d   1       1.050  -1.624   0.000  0.00  0.00     0.035 A 
ATOM     18  C   UNL d   1       0.256  -1.408   0.000  0.00  0.00     0.008 A 
ATOM     19 BR   UNL d   1       1.276  -2.431   0.000  0.00  0.00    -0.049 Br
ATOM     20  C   UNL d   1       0.048  -0.578   0.000  0.00  0.00     0.021 A 
BRANCH  15  21
ATOM     21  C   UNL d   1       2.058   0.358   0.000  0.00  0.00     0.212 C 
ATOM     22  O   UNL d   1       1.841   1.179   0.000  0.00  0.00    -0.644 OA
ATOM     23  O   UNL d   1       2.852   0.141   0.000  0.00  0.00    -0.644 OA
ENDBRANCH  15  21
ENDBRANCH  13  14
ENDBRANCH   1  13
TORSDOF 4
