REMARK  1 active torsions:
REMARK  status: ('A' for Active; 'I' for Inactive)
REMARK    1  A    between atoms: C_8  and  C_3 
ROOT
ATOM      1  C   UNL d   1      -0.446  -0.665   0.000  0.00  0.00     0.199 A 
ATOM      2  C   UNL d   1      -0.446   0.679   0.000  0.00  0.00     0.199 A 
ATOM      3  C   UNL d   1       0.034   0.000   0.000  0.00  0.00     0.078 A 
ATOM      4  C   UNL d   1      -1.235  -0.429   0.000  0.00  0.00     0.042 A 
ATOM      5  C   UNL d   1      -1.235   0.404   0.000  0.00  0.00     0.042 A 
ATOM      6  O   UNL d   1      -0.177   1.487   0.000  0.00  0.00    -0.286 OA
ATOM      7  O   UNL d   1      -0.177  -1.473   0.000  0.00  0.00    -0.286 OA
ATOM      8  C   UNL d   1      -1.944   0.825   0.000  0.00  0.00     0.003 A 
ATOM      9  C   UNL d   1      -1.944  -0.835   0.000  0.00  0.00     0.003 A 
ATOM     10  C   UNL d   1      -2.661   0.404   0.000  0.00  0.00     0.000 A 
ATOM     11  C   UNL d   1      -2.661  -0.429   0.000  0.00  0.00     0.000 A 
ENDROOT
BRANCH   3  12
ATOM     12  C   UNL d   1       0.858  -0.025   0.000  0.00  0.00     0.009 A 
ATOM     13  C   UNL d   1       1.287   0.679   0.000  0.00  0.00     0.021 A 
ATOM     14  C   UNL d   1       2.104   0.654   0.000  0.00  0.00     0.099 A 
ATOM     15  N   UNL d   1       2.524  -0.046   0.000  0.00  0.00    -0.242 NA
ATOM     16  C   UNL d   1       2.070  -0.757   0.000  0.00  0.00     0.099 A 
ATOM     17  C   UNL d   1       1.245  -0.732   0.000  0.00  0.00     0.021 A 
ENDBRANCH   3  12
TORSDOF 1
