REMARK  6 active torsions:
REMARK  status: ('A' for Active; 'I' for Inactive)
REMARK    1  A    between atoms: C_6  and  C_1 
REMARK    2  A    between atoms: C_7  and  C_3 
REMARK    3  A    between atoms: O_11  and  C_6 
REMARK    4  A    between atoms: O_12  and  C_7 
REMARK    5  A    between atoms: C_14  and  O_11 
REMARK    6  A    between atoms: C_15  and  O_12 
ROOT
ATOM      1  C   UNL d   1      -2.033  -0.909   0.000  0.00  0.00     0.083 A 
ATOM      2  C   UNL d   1      -2.872  -0.909   0.000  0.00  0.00     0.030 A 
ATOM      3  C   UNL d   1      -3.107  -1.702   0.000  0.00  0.00     0.145 A 
ATOM      4  N   UNL d   1      -2.450  -2.182   0.000  0.00  0.00    -0.240 NA
ATOM      5  C   UNL d   1      -1.781  -1.686   0.000  0.00  0.00     0.087 A 
ATOM      6  C   UNL d   1      -3.343  -0.252   0.000  0.00  0.00     0.002 C 
ATOM      7  C   UNL d   1      -0.988  -1.921   0.000  0.00  0.00     0.021 C 
ENDROOT
BRANCH   1   8
ATOM      8  C   UNL d   1      -1.537  -0.252   0.000  0.00  0.00     0.302 C 
ATOM      9  O   UNL d   1      -0.744  -0.351   0.000  0.00  0.00    -0.259 OA
BRANCH   8  10
ATOM     10  O   UNL d   1      -1.880   0.516   0.000  0.00  0.00    -0.271 OA
BRANCH  10  11
ATOM     11  C   UNL d   1      -2.673   0.616   0.000  0.00  0.00     0.126 C 
ATOM     12  C   UNL d   1      -3.008   1.372   0.000  0.00  0.00     0.029 C 
ENDBRANCH  10  11
ENDBRANCH   8  10
ENDBRANCH   1   8
BRANCH   3  13
ATOM     13  C   UNL d   1      -3.901  -1.938   0.000  0.00  0.00     0.318 C 
ATOM     14  O   UNL d   1      -4.495  -1.405   0.000  0.00  0.00    -0.257 OA
BRANCH  13  15
ATOM     15  O   UNL d   1      -4.078  -2.731   0.000  0.00  0.00    -0.270 OA
BRANCH  15  16
ATOM     16  C   UNL d   1      -4.855  -2.992   0.000  0.00  0.00     0.126 C 
ATOM     17  C   UNL d   1      -5.029  -3.785   0.000  0.00  0.00     0.029 C 
ENDBRANCH  15  16
ENDBRANCH  13  15
ENDBRANCH   3  13
TORSDOF 6
