REMARK  9 active torsions:
REMARK  status: ('A' for Active; 'I' for Inactive)
REMARK    1  A    between atoms: C_3  and  C_1 
REMARK    2  A    between atoms: N_5  and  C_2 
REMARK    3  A    between atoms: N_4  and  C_3 
REMARK    4  A    between atoms: C_14  and  C_3 
REMARK    5  A    between atoms: C_12  and  N_4 
REMARK       I    between atoms: C_6  and  N_5 
REMARK    6  A    between atoms: C_9  and  C_6 
REMARK    7  A    between atoms: C_7  and  C_12 
REMARK       I    between atoms: N_16  and  C_7 
REMARK    8  A    between atoms: N_8  and  C_17 
REMARK    9  A    between atoms: C_17  and  C_9 
ROOT
ATOM      1  C   UNL d   1       0.451  -0.127   0.000  0.00  0.00     0.036 A 
ATOM      2  C   UNL d   1      -0.343  -0.351   0.000  0.00  0.00     0.086 A 
ATOM      3  C   UNL d   1       1.046  -0.722   0.000  0.00  0.00     0.010 A 
ATOM      4  C   UNL d   1      -0.567  -1.146   0.000  0.00  0.00     0.020 A 
ATOM      5  C   UNL d   1       0.822  -1.516   0.000  0.00  0.00     0.035 A 
ATOM      6  C   UNL d   1       0.027  -1.717   0.000  0.00  0.00     0.008 A 
ATOM      7 BR   UNL d   1       1.393  -2.087   0.000  0.00  0.00    -0.049 Br
ENDROOT
BRANCH   1   8
ATOM      8  C   UNL d   1       0.694   0.691   0.000  0.00  0.00     0.083 C 
BRANCH   8   9
ATOM      9  N   UNL d   1       0.097   1.262   0.000  0.00  0.00    -0.239 NA
BRANCH   9  10
ATOM     10  C   UNL d   1      -0.694   1.061   0.000  0.00  0.00     0.163 C 
BRANCH  10  11
ATOM     11  C   UNL d   1      -1.269   1.651   0.000  0.00  0.00     0.317 C 
ATOM     12  O   UNL d   1      -1.030   2.427   0.000  0.00  0.00    -0.262 OA
ATOM     13  N   UNL d   1      -2.068   1.447   0.000  0.00  0.00    -0.083 NA
ATOM     14  N   UNL d   1      -2.623   2.056   0.000  0.00  0.00    -0.019 N 
ENDBRANCH  10  11
ENDBRANCH   9  10
ENDBRANCH   8   9
BRANCH   8  15
ATOM     15  C   UNL d   1       1.470   0.891   0.000  0.00  0.00     0.018 A 
ATOM     16  C   UNL d   1       2.041   0.297   0.000  0.00  0.00     0.002 A 
ATOM     17  C   UNL d   1       2.839   0.505   0.000  0.00  0.00     0.000 A 
ATOM     18  C   UNL d   1       3.083   1.281   0.000  0.00  0.00     0.000 A 
ATOM     19  C   UNL d   1       2.504   1.894   0.000  0.00  0.00     0.000 A 
ATOM     20  C   UNL d   1       1.694   1.686   0.000  0.00  0.00     0.002 A 
ENDBRANCH   8  15
ENDBRANCH   1   8
BRANCH   2  21
ATOM     21  N   UNL d   1      -0.922   0.243   0.000  0.00  0.00    -0.208 NA
ATOM     22  C   UNL d   1      -1.713   0.019   0.000  0.00  0.00     0.281 C 
ATOM     23  O   UNL d   1      -2.288   0.613   0.000  0.00  0.00    -0.265 OA
BRANCH  22  24
ATOM     24  C   UNL d   1      -1.940  -0.775   0.000  0.00  0.00     0.082 C 
BRANCH  24  25
ATOM     25  C   UNL d   1      -2.728  -0.976   0.000  0.00  0.00     0.085 C 
BRANCH  25  26
ATOM     26  N   UNL d   1      -2.936  -1.759   0.000  0.00  0.00    -0.299 N 
ATOM     27  C   UNL d   1      -3.734  -1.971   0.000  0.00  0.00     0.107 A 
ATOM     28  C   UNL d   1      -3.954  -2.766   0.000  0.00  0.00     0.142 A 
ATOM     29  O   UNL d   1      -3.364  -3.349   0.000  0.00  0.00    -0.300 OA
ATOM     30  C   UNL d   1      -2.577  -3.136   0.000  0.00  0.00     0.142 A 
ATOM     31  C   UNL d   1      -2.361  -2.342   0.000  0.00  0.00     0.107 A 
ENDBRANCH  25  26
ENDBRANCH  24  25
ENDBRANCH  22  24
ENDBRANCH   2  21
TORSDOF 9
