REMARK  2 active torsions:
REMARK  status: ('A' for Active; 'I' for Inactive)
REMARK    1  A    between atoms: N_11  and  C_2 
REMARK    2  A    between atoms: C_16  and  N_11 
ROOT
ATOM      1  C   UNL d   1      -1.335   0.785   0.000  0.00  0.00     0.024 A 
ATOM      2  C   UNL d   1      -2.153   0.785   0.000  0.00  0.00     0.139 A 
ATOM      3  C   UNL d   1      -0.917   1.494   0.000  0.00  0.00     0.022 A 
ATOM      4  C   UNL d   1      -2.570   1.494   0.000  0.00  0.00     0.297 A 
ATOM      5  C   UNL d   1      -0.917   0.066   0.000  0.00  0.00     0.005 A 
ATOM      6  C   UNL d   1      -0.093   1.494   0.000  0.00  0.00     0.041 A 
ATOM      7  C   UNL d   1       0.330   0.785   0.000  0.00  0.00     0.196 A 
ATOM      8  N   UNL d   1      -2.153   2.202   0.000  0.00  0.00    -0.207 NA
ATOM      9  C   UNL d   1      -1.335   2.202   0.000  0.00  0.00     0.085 A 
ATOM     10  C   UNL d   1      -0.093   0.066   0.000  0.00  0.00     0.039 A 
ATOM     11  O   UNL d   1      -3.388   1.494   0.000  0.00  0.00    -0.264 OA
ATOM     12  O   UNL d   1       1.170   0.785   0.000  0.00  0.00    -0.287 OA
ATOM     13  C   UNL d   1       0.330   2.202   0.000  0.00  0.00     0.003 A 
ATOM     14  C   UNL d   1      -1.335  -0.642   0.000  0.00  0.00     0.000 A 
ATOM     15  C   UNL d   1      -0.917   2.916   0.000  0.00  0.00     0.019 A 
ATOM     16  C   UNL d   1       0.330  -0.642   0.000  0.00  0.00     0.003 A 
ATOM     17  C   UNL d   1      -0.093   2.916   0.000  0.00  0.00     0.002 A 
ATOM     18  C   UNL d   1      -0.917  -1.357   0.000  0.00  0.00     0.000 A 
ATOM     19  C   UNL d   1      -0.093  -1.357   0.000  0.00  0.00     0.000 A 
ENDROOT
BRANCH   2  20
ATOM     20  N   UNL d   1      -2.570   0.066   0.000  0.00  0.00    -0.241 NA
BRANCH  20  21
ATOM     21  C   UNL d   1      -3.388   0.066   0.000  0.00  0.00     0.082 A 
ATOM     22  C   UNL d   1      -3.784   0.791   0.000  0.00  0.00     0.019 A 
ATOM     23  C   UNL d   1      -4.613   0.818   0.000  0.00  0.00     0.002 A 
ATOM     24  C   UNL d   1      -5.052   0.093   0.000  0.00  0.00     0.000 A 
ATOM     25  C   UNL d   1      -4.657  -0.615   0.000  0.00  0.00     0.002 A 
ATOM     26  C   UNL d   1      -3.822  -0.642   0.000  0.00  0.00     0.019 A 
ENDBRANCH  20  21
ENDBRANCH   2  20
TORSDOF 2
