REMARK  3 active torsions:
REMARK  status: ('A' for Active; 'I' for Inactive)
REMARK    1  A    between atoms: C_6  and  N_1 
REMARK    2  A    between atoms: C_7  and  C_6 
REMARK    3  A    between atoms: C_8  and  C_7 
ROOT
ATOM      1  N   UNL d   1       2.039  -4.275   0.000  0.00  0.00    -0.305 N 
ATOM      2  C   UNL d   1       2.981  -3.885   0.000  0.00  0.00     0.064 A 
ATOM      3  C   UNL d   1       2.579  -3.169   0.000  0.00  0.00     0.018 A 
ATOM      4  C   UNL d   1       1.323  -3.869   0.000  0.00  0.00     0.064 A 
ATOM      5  C   UNL d   1       1.746  -3.169   0.000  0.00  0.00     0.018 A 
ATOM      6  C   UNL d   1       3.806  -3.885   0.000  0.00  0.00     0.018 A 
ATOM      7  C   UNL d   1       2.981  -2.462   0.000  0.00  0.00     0.002 A 
ATOM      8  C   UNL d   1       0.490  -3.869   0.000  0.00  0.00     0.018 A 
ATOM      9  C   UNL d   1       1.344  -2.449   0.000  0.00  0.00     0.002 A 
ATOM     10  C   UNL d   1       3.818  -2.462   0.000  0.00  0.00     0.000 A 
ATOM     11  C   UNL d   1       4.224  -3.169   0.000  0.00  0.00     0.002 A 
ATOM     12  C   UNL d   1       0.519  -2.428   0.000  0.00  0.00     0.000 A 
ATOM     13  C   UNL d   1       0.101  -3.132   0.000  0.00  0.00     0.002 A 
ENDROOT
BRANCH   1  14
ATOM     14  C   UNL d   1       2.026  -5.104   0.000  0.00  0.00     0.086 C 
BRANCH  14  15
ATOM     15  C   UNL d   1       2.751  -5.526   0.000  0.00  0.00     0.089 C 
BRANCH  15  16
ATOM     16  C   UNL d   1       3.466  -5.104   0.000  0.00  0.00     0.213 C 
ATOM     17  O   UNL d   1       4.174  -5.514   0.000  0.00  0.00    -0.644 OA
ATOM     18  O   UNL d   1       4.048  -4.509   0.000  0.00  0.00    -0.644 OA
ENDBRANCH  15  16
ENDBRANCH  14  15
ENDBRANCH   1  14
TORSDOF 3
