REMARK  6 active torsions:
REMARK  status: ('A' for Active; 'I' for Inactive)
REMARK    1  A    between atoms: C_3  and  C_4 
REMARK    2  A    between atoms: C_9  and  O_18 
REMARK    3  A    between atoms: O_17  and  C_10 
REMARK    4  A    between atoms: C_21  and  O_17 
REMARK    5  A    between atoms: O_18  and  C_20 
REMARK    6  A    between atoms: C_20  and  C_21 
ROOT
ATOM      1  N   UNL d   1       6.182  -1.154   0.000  0.00  0.00    -0.191 NA
ATOM      2  C   UNL d   1       5.377  -1.154   0.000  0.00  0.00     0.101 C 
ATOM      3  C   UNL d   1       4.556  -1.154   0.000  0.00  0.00     0.068 A 
ATOM      4  C   UNL d   1       2.909  -1.154   0.000  0.00  0.00     0.100 A 
ATOM      5  C   UNL d   1       4.145  -1.865   0.000  0.00  0.00     0.012 A 
ATOM      6  C   UNL d   1       4.145  -0.438   0.000  0.00  0.00     0.012 A 
ATOM      7  C   UNL d   1       3.320  -0.438   0.000  0.00  0.00     0.025 A 
ATOM      8  C   UNL d   1       3.320  -1.865   0.000  0.00  0.00     0.025 A 
ENDROOT
BRANCH   4   9
ATOM      9  O   UNL d   1       2.080  -1.154   0.000  0.00  0.00    -0.303 OA
BRANCH   9  10
ATOM     10  C   UNL d   1       1.670  -0.438   0.000  0.00  0.00     0.149 C 
BRANCH  10  11
ATOM     11  C   UNL d   1       0.845  -0.438   0.000  0.00  0.00     0.149 C 
BRANCH  11  12
ATOM     12  O   UNL d   1       0.426   0.278   0.000  0.00  0.00    -0.303 OA
BRANCH  12  13
ATOM     13  C   UNL d   1      -0.418   0.278   0.000  0.00  0.00     0.100 A 
ATOM     14  C   UNL d   1      -0.829  -0.438   0.000  0.00  0.00     0.025 A 
ATOM     15  C   UNL d   1      -1.654  -0.438   0.000  0.00  0.00     0.005 A 
ATOM     16  C   UNL d   1      -2.065   0.278   0.000  0.00  0.00     0.039 A 
ATOM     17  C   UNL d   1      -1.654   0.985   0.000  0.00  0.00     0.005 A 
ATOM     18  C   UNL d   1      -0.829   0.985   0.000  0.00  0.00     0.025 A 
BRANCH  16  19
ATOM     19  C   UNL d   1      -2.894   0.278   0.000  0.00  0.00     0.196 C 
ATOM     20  O   UNL d   1      -3.304   0.985   0.000  0.00  0.00    -0.287 OA
ATOM     21  C   UNL d   1      -3.304  -0.438   0.000  0.00  0.00     0.045 C 
ENDBRANCH  16  19
ENDBRANCH  12  13
ENDBRANCH  11  12
ENDBRANCH  10  11
ENDBRANCH   9  10
ENDBRANCH   4   9
TORSDOF 6
