REMARK  2 active torsions:
REMARK  status: ('A' for Active; 'I' for Inactive)
REMARK    1  A    between atoms: C_3  and  C_1 
REMARK       I    between atoms: N_6  and  C_3 
REMARK    2  A    between atoms: C_9  and  N_7 
ROOT
ATOM      1  C   UNL d   1      -0.980   2.105   0.000  0.00  0.00     0.270 C 
ATOM      2  N   UNL d   1      -0.271   1.705   0.000  0.00  0.00    -0.269 N 
ATOM      3  N   UNL d   1       1.179   0.866   0.000  0.00  0.00    -0.286 N 
ATOM      4  O   UNL d   1      -0.980   2.948   0.000  0.00  0.00    -0.266 OA
ATOM      5  C   UNL d   1      -0.271   0.866   0.000  0.00  0.00     0.102 A 
ATOM      6  C   UNL d   1       0.462   2.105   0.000  0.00  0.00     0.102 A 
ATOM      7  C   UNL d   1       0.462   0.458   0.000  0.00  0.00     0.101 A 
ATOM      8  C   UNL d   1       1.179   1.705   0.000  0.00  0.00     0.101 A 
ENDROOT
BRANCH   1   9
ATOM      9  C   UNL d   1      -1.712   1.690   0.000  0.00  0.00     0.120 A 
ATOM     10  C   UNL d   1      -1.712   0.843   0.000  0.00  0.00     0.305 A 
ATOM     11  O   UNL d   1      -2.426   0.442   0.000  0.00  0.00    -0.273 OA
ATOM     12  O   UNL d   1      -0.980   0.423   0.000  0.00  0.00    -0.259 OA
ATOM     13  C   UNL d   1      -3.143   0.843   0.000  0.00  0.00     0.103 A 
ATOM     14  C   UNL d   1      -3.143   1.690   0.000  0.00  0.00     0.023 A 
ATOM     15  C   UNL d   1      -3.864   0.442   0.000  0.00  0.00     0.025 A 
ATOM     16  C   UNL d   1      -2.426   2.090   0.000  0.00  0.00     0.012 A 
ATOM     17  C   UNL d   1      -3.864   2.090   0.000  0.00  0.00     0.002 A 
ATOM     18  C   UNL d   1      -4.573   1.690   0.000  0.00  0.00     0.000 A 
ATOM     19  C   UNL d   1      -4.573   0.843   0.000  0.00  0.00     0.002 A 
ENDBRANCH   1   9
BRANCH   3  20
ATOM     20  C   UNL d   1       1.892   0.458   0.000  0.00  0.00     0.148 A 
ATOM     21  N   UNL d   1       1.892  -0.381   0.000  0.00  0.00    -0.227 NA
ATOM     22  C   UNL d   1       2.609  -0.805   0.000  0.00  0.00     0.101 A 
ATOM     23  C   UNL d   1       3.322  -0.381   0.000  0.00  0.00     0.021 A 
ATOM     24  C   UNL d   1       3.322   0.458   0.000  0.00  0.00     0.005 A 
ATOM     25  C   UNL d   1       2.609   0.866   0.000  0.00  0.00     0.037 A 
ENDBRANCH   3  20
TORSDOF 2
