REMARK  2 active torsions:
REMARK  status: ('A' for Active; 'I' for Inactive)
REMARK    1  A    between atoms: C_3  and  C_1 
REMARK       I    between atoms: N_6  and  C_3 
REMARK    2  A    between atoms: C_11  and  N_6 
ROOT
ATOM      1  C   UNL d   1      -1.845   0.596   0.000  0.00  0.00     0.121 A 
ATOM      2  C   UNL d   1      -1.845  -0.244   0.000  0.00  0.00     0.305 A 
ATOM      3  C   UNL d   1      -2.563   1.004   0.000  0.00  0.00     0.012 A 
ATOM      4  O   UNL d   1      -2.563  -0.668   0.000  0.00  0.00    -0.273 OA
ATOM      5  C   UNL d   1      -3.273   0.581   0.000  0.00  0.00     0.023 A 
ATOM      6  C   UNL d   1      -3.273  -0.244   0.000  0.00  0.00     0.103 A 
ATOM      7  O   UNL d   1      -1.131  -0.703   0.000  0.00  0.00    -0.259 OA
ATOM      8  C   UNL d   1      -3.972   1.004   0.000  0.00  0.00     0.002 A 
ATOM      9  C   UNL d   1      -3.972  -0.668   0.000  0.00  0.00     0.025 A 
ATOM     10  C   UNL d   1      -4.686  -0.244   0.000  0.00  0.00     0.002 A 
ATOM     11  C   UNL d   1      -4.686   0.596   0.000  0.00  0.00     0.000 A 
ENDROOT
BRANCH   1  12
ATOM     12  C   UNL d   1      -1.131   1.039   0.000  0.00  0.00     0.284 C 
ATOM     13  N   UNL d   1      -1.146   1.864   0.000  0.00  0.00    -0.208 NA
ATOM     14  O   UNL d   1      -0.412   0.615   0.000  0.00  0.00    -0.265 OA
BRANCH  13  15
ATOM     15  C   UNL d   1      -0.432   2.288   0.000  0.00  0.00     0.085 A 
ATOM     16  C   UNL d   1      -0.432   3.113   0.000  0.00  0.00     0.019 A 
ATOM     17  C   UNL d   1       0.264   3.514   0.000  0.00  0.00     0.002 A 
ATOM     18  C   UNL d   1       0.264   4.335   0.000  0.00  0.00     0.000 C 
ATOM     19  C   UNL d   1       0.978   3.113   0.000  0.00  0.00     0.000 A 
ATOM     20  C   UNL d   1       0.978   2.265   0.000  0.00  0.00     0.002 A 
ATOM     21  C   UNL d   1       1.696   3.548   0.000  0.00  0.00     0.000 C 
ATOM     22  C   UNL d   1       0.264   1.864   0.000  0.00  0.00     0.019 A 
ENDBRANCH  13  15
ENDBRANCH   1  12
TORSDOF 2
