REMARK  4 active torsions:
REMARK  status: ('A' for Active; 'I' for Inactive)
REMARK    1  A    between atoms: C_2  and  S_1 
REMARK    2  A    between atoms: N_3  and  S_1 
REMARK    3  A    between atoms: C_10  and  N_3 
REMARK    4  A    between atoms: C_5  and  C_10 
ROOT
ATOM      1  S   UNL d   1      -0.107  -0.714   0.000  0.00  0.00     0.285 S 
ATOM      2  O   UNL d   1      -0.280  -1.516   0.000  0.00  0.00    -0.198 OA
ATOM      3  O   UNL d   1       0.075   0.112   0.000  0.00  0.00    -0.198 OA
ENDROOT
BRANCH   1   4
ATOM      4  C   UNL d   1       0.728  -0.895   0.000  0.00  0.00     0.105 A 
ATOM      5  C   UNL d   1       1.287  -0.284   0.000  0.00  0.00     0.013 A 
ATOM      6  C   UNL d   1       2.089  -0.466   0.000  0.00  0.00     0.001 A 
ATOM      7  C   UNL d   1       2.649   0.163   0.000  0.00  0.00     0.000 C 
ATOM      8  C   UNL d   1       2.336  -1.250   0.000  0.00  0.00     0.000 A 
ATOM      9  C   UNL d   1       1.777  -1.851   0.000  0.00  0.00     0.001 A 
ATOM     10  C   UNL d   1       3.167  -1.432   0.000  0.00  0.00     0.000 C 
ATOM     11  C   UNL d   1       0.970  -1.679   0.000  0.00  0.00     0.013 A 
ENDBRANCH   1   4
BRANCH   1  12
ATOM     12  N   UNL d   1      -0.933  -0.536   0.000  0.00  0.00    -0.155 NA
BRANCH  12  13
ATOM     13  C   UNL d   1      -1.581  -1.026   0.000  0.00  0.00     0.137 C 
BRANCH  13  14
ATOM     14  C   UNL d   1      -1.478  -1.847   0.000  0.00  0.00     0.120 A 
ATOM     15  O   UNL d   1      -2.085  -2.448   0.000  0.00  0.00    -0.304 OA
ATOM     16  C   UNL d   1      -1.693  -3.176   0.000  0.00  0.00     0.123 A 
ATOM     17  C   UNL d   1      -0.853  -3.022   0.000  0.00  0.00     0.029 A 
ATOM     18  C   UNL d   1      -0.765  -2.215   0.000  0.00  0.00     0.028 A 
ENDBRANCH  13  14
ENDBRANCH  12  13
ENDBRANCH   1  12
TORSDOF 4
