REMARK  4 active torsions:
REMARK  status: ('A' for Active; 'I' for Inactive)
REMARK    1  A    between atoms: P_2  and  C_1 
REMARK    2  A    between atoms: N_3  and  C_1 
REMARK    3  A    between atoms: C_5  and  C_1 
REMARK       I    between atoms: C_4  and  N_3 
REMARK    4  A    between atoms: C_6  and  C_4 
ROOT
ATOM      1  C   UNL d   1      -0.511  -0.795   0.000  0.00  0.00     0.196 C 
ENDROOT
BRANCH   1   2
ATOM      2  P   UNL d   1      -1.094  -0.187   0.000  0.00  0.00     0.317 P 
ATOM      3  O   UNL d   1      -1.701  -0.749   0.000  0.00  0.00    -0.635 OA
ATOM      4  O   UNL d   1      -1.656   0.441   0.000  0.00  0.00    -0.635 OA
ATOM      5  O   UNL d   1      -0.466   0.390   0.000  0.00  0.00    -0.635 OA
ENDBRANCH   1   2
BRANCH   1   6
ATOM      6  N   UNL d   1       0.309  -0.628   0.000  0.00  0.00    -0.201 NA
ATOM      7  C   UNL d   1       0.851  -1.236   0.000  0.00  0.00     0.255 C 
ATOM      8  O   UNL d   1       0.582  -2.010   0.000  0.00  0.00    -0.270 OA
BRANCH   7   9
ATOM      9  C   UNL d   1       1.646  -1.068   0.000  0.00  0.00     0.073 C 
ATOM     10  C   UNL d   1       2.193  -1.686   0.000  0.00  0.00     0.009 C 
ATOM     11  C   UNL d   1       1.904  -0.279   0.000  0.00  0.00     0.009 C 
ATOM     12  C   UNL d   1       2.537  -0.916   0.000  0.00  0.00     0.009 C 
ENDBRANCH   7   9
ENDBRANCH   1   6
BRANCH   1  13
ATOM     13  C   UNL d   1      -0.754  -1.580   0.000  0.00  0.00     0.142 C 
ATOM     14 CL   UNL d   1      -0.177  -2.101   0.000  0.00  0.00    -0.068 Cl
ATOM     15 CL   UNL d   1      -1.605  -1.767   0.000  0.00  0.00    -0.068 Cl
ENDBRANCH   1  13
TORSDOF 4
