REMARK  0 active torsions:
REMARK  status: ('A' for Active; 'I' for Inactive)
ROOT
ATOM      1  C   UNL d   1      -1.430  -0.745   0.000  0.00  0.00     0.286 A 
ATOM      2  N   UNL d   1      -0.975  -0.095   0.000  0.00  0.00    -0.170 NA
ATOM      3  C   UNL d   1      -2.216  -0.505   0.000  0.00  0.00     0.066 A 
ATOM      4  S   UNL d   1      -1.430   0.578   0.000  0.00  0.00     0.017 SA
ATOM      5  C   UNL d   1      -2.216   0.338   0.000  0.00  0.00     0.052 A 
ATOM      6  O   UNL d   1      -1.173  -1.521   0.000  0.00  0.00    -0.265 OA
ATOM      7  C   UNL d   1      -2.924  -0.920   0.000  0.00  0.00     0.005 A 
ATOM      8  C   UNL d   1      -2.924   0.753   0.000  0.00  0.00     0.008 A 
ATOM      9  C   UNL d   1      -3.641  -0.505   0.000  0.00  0.00     0.000 A 
ATOM     10  C   UNL d   1      -3.641   0.338   0.000  0.00  0.00     0.001 A 
ENDROOT
TORSDOF 0
