REMARK  8 active torsions:
REMARK  status: ('A' for Active; 'I' for Inactive)
REMARK    1  A    between atoms: C_2  and  S_1 
REMARK    2  A    between atoms: N_3  and  S_1 
REMARK    3  A    between atoms: C_17  and  N_3 
REMARK    4  A    between atoms: O_21  and  C_8 
REMARK    5  A    between atoms: O_22  and  C_16 
REMARK    6  A    between atoms: C_18  and  C_17 
REMARK    7  A    between atoms: C_23  and  O_21 
REMARK    8  A    between atoms: C_24  and  O_22 
ROOT
ATOM      1  S   UNL d   1      -2.456   0.011   0.000  0.00  0.00     0.287 S 
ATOM      2  O   UNL d   1      -3.162  -0.410   0.000  0.00  0.00    -0.198 OA
ATOM      3  O   UNL d   1      -2.035  -0.718   0.000  0.00  0.00    -0.198 OA
ENDROOT
BRANCH   1   4
ATOM      4  C   UNL d   1      -2.870   0.740   0.000  0.00  0.00     0.130 A 
ATOM      5  C   UNL d   1      -2.456   1.454   0.000  0.00  0.00     0.040 A 
ATOM      6  C   UNL d   1      -2.870   2.160   0.000  0.00  0.00     0.101 A 
ATOM      7  C   UNL d   1      -3.690   2.160   0.000  0.00  0.00     0.027 A 
ATOM      8  C   UNL d   1      -4.119   1.454   0.000  0.00  0.00     0.028 A 
ATOM      9  C   UNL d   1      -3.690   0.740   0.000  0.00  0.00     0.112 A 
BRANCH   6  10
ATOM     10  O   UNL d   1      -2.433   2.889   0.000  0.00  0.00    -0.305 OA
BRANCH  10  11
ATOM     11  C   UNL d   1      -1.595   2.889   0.000  0.00  0.00     0.123 C 
ATOM     12  C   UNL d   1      -1.196   3.607   0.000  0.00  0.00     0.029 C 
ENDBRANCH  10  11
ENDBRANCH   6  10
BRANCH   9  13
ATOM     13  O   UNL d   1      -4.130  -0.004   0.000  0.00  0.00    -0.304 OA
BRANCH  13  14
ATOM     14  C   UNL d   1      -3.709  -0.733   0.000  0.00  0.00     0.123 C 
ATOM     15  C   UNL d   1      -4.130  -1.446   0.000  0.00  0.00     0.029 C 
ENDBRANCH  13  14
ENDBRANCH   9  13
ENDBRANCH   1   4
BRANCH   1  16
ATOM     16  N   UNL d   1      -1.727   0.429   0.000  0.00  0.00    -0.157 NA
BRANCH  16  17
ATOM     17  C   UNL d   1      -0.998   0.011   0.000  0.00  0.00     0.112 C 
BRANCH  17  18
ATOM     18  C   UNL d   1      -0.270   0.452   0.000  0.00  0.00     0.022 A 
ATOM     19  C   UNL d   1       0.444   0.030   0.000  0.00  0.00     0.028 A 
ATOM     20  C   UNL d   1       1.154   0.452   0.000  0.00  0.00     0.119 A 
ATOM     21  O   UNL d   1       1.940   0.194   0.000  0.00  0.00    -0.300 OA
ATOM     22  C   UNL d   1       1.154   1.272   0.000  0.00  0.00     0.119 A 
ATOM     23  C   UNL d   1       2.414   0.866   0.000  0.00  0.00     0.304 A 
ATOM     24  O   UNL d   1       1.940   1.522   0.000  0.00  0.00    -0.300 OA
ATOM     25  C   UNL d   1       0.444   1.686   0.000  0.00  0.00     0.026 A 
ATOM     26  C   UNL d   1      -0.270   1.272   0.000  0.00  0.00     0.004 A 
ENDBRANCH  17  18
ENDBRANCH  16  17
ENDBRANCH   1  16
TORSDOF 8
