REMARK  6 active torsions:
REMARK  status: ('A' for Active; 'I' for Inactive)
REMARK    1  A    between atoms: N_2  and  S_1 
REMARK    2  A    between atoms: C_3  and  S_1 
REMARK    3  A    between atoms: O_13  and  C_8 
REMARK    4  A    between atoms: C_14  and  O_13 
REMARK    5  A    between atoms: C_15  and  C_14 
REMARK    6  A    between atoms: C_16  and  C_15 
ROOT
ATOM      1  C   UNL d   1      -3.284   1.136   0.000  0.00  0.00     0.104 A 
ATOM      2  C   UNL d   1      -3.947   1.629   0.000  0.00  0.00     0.015 A 
ATOM      3  C   UNL d   1      -3.356   0.349   0.000  0.00  0.00     0.015 A 
ATOM      4  C   UNL d   1      -4.790   0.493   0.000  0.00  0.00     0.100 A 
ATOM      5  C   UNL d   1      -4.687   1.311   0.000  0.00  0.00     0.025 A 
ATOM      6  C   UNL d   1      -4.127   0.000   0.000  0.00  0.00     0.025 A 
ENDROOT
BRANCH   1   7
ATOM      7  S   UNL d   1      -2.523   1.480   0.000  0.00  0.00     0.271 S 
ATOM      8  O   UNL d   1      -2.200   0.720   0.000  0.00  0.00    -0.200 OA
ATOM      9  O   UNL d   1      -2.863   2.246   0.000  0.00  0.00    -0.200 OA
BRANCH   7  10
ATOM     10  N   UNL d   1      -1.753   1.830   0.000  0.00  0.00    -0.229 N 
ATOM     11  C   UNL d   1      -1.167   1.234   0.000  0.00  0.00     0.092 A 
ATOM     12  C   UNL d   1      -0.349   1.336   0.000  0.00  0.00     0.020 A 
ATOM     13  C   UNL d   1       0.062   2.030   0.000  0.00  0.00     0.002 A 
ATOM     14  C   UNL d   1      -0.180   2.801   0.000  0.00  0.00     0.002 A 
ATOM     15  C   UNL d   1      -0.966   3.063   0.000  0.00  0.00     0.020 A 
ATOM     16  C   UNL d   1      -1.660   2.647   0.000  0.00  0.00     0.092 A 
ENDBRANCH   7  10
ENDBRANCH   1   7
BRANCH   4  17
ATOM     17  O   UNL d   1      -5.551   0.180   0.000  0.00  0.00    -0.305 OA
BRANCH  17  18
ATOM     18  C   UNL d   1      -5.654  -0.622   0.000  0.00  0.00     0.123 C 
BRANCH  18  19
ATOM     19  C   UNL d   1      -6.425  -0.946   0.000  0.00  0.00     0.027 C 
BRANCH  19  20
ATOM     20  C   UNL d   1      -6.538  -1.763   0.000  0.00  0.00     0.002 C 
ATOM     21  C   UNL d   1      -7.303  -2.097   0.000  0.00  0.00     0.000 C 
ENDBRANCH  19  20
ENDBRANCH  18  19
ENDBRANCH  17  18
ENDBRANCH   4  17
TORSDOF 6
