REMARK  2 active torsions:
REMARK  status: ('A' for Active; 'I' for Inactive)
REMARK    1  A    between atoms: C_7  and  C_1 
REMARK    2  A    between atoms: C_8  and  C_7 
ROOT
ATOM      1  C   UNL d   1      -1.015   0.761   0.000  0.00  0.00     0.118 A 
ATOM      2  N   UNL d   1       0.223   0.047   0.000  0.00  0.00    -0.178 NA
ATOM      3  N   UNL d   1       0.223   1.472   0.000  0.00  0.00    -0.178 NA
ATOM      4  C   UNL d   1      -0.605   0.047   0.000  0.00  0.00     0.286 A 
ATOM      5  C   UNL d   1      -0.605   1.472   0.000  0.00  0.00     0.286 A 
ATOM      6  C   UNL d   1       0.656   0.761   0.000  0.00  0.00     0.226 A 
ATOM      7  S   UNL d   1       1.479   0.761   0.000  0.00  0.00    -0.037 SA
ATOM      8  O   UNL d   1      -1.015  -0.683   0.000  0.00  0.00    -0.265 OA
ATOM      9  O   UNL d   1      -1.015   2.201   0.000  0.00  0.00    -0.265 OA
ENDROOT
BRANCH   1  10
ATOM     10  C   UNL d   1      -1.846   0.761   0.000  0.00  0.00     0.034 C 
BRANCH  10  11
ATOM     11  C   UNL d   1      -2.248   1.472   0.000  0.00  0.00     0.100 A 
ATOM     12  O   UNL d   1      -3.076   1.472   0.000  0.00  0.00    -0.307 OA
ATOM     13  C   UNL d   1      -3.322   2.260   0.000  0.00  0.00     0.100 A 
ATOM     14  C   UNL d   1      -4.106   2.525   0.000  0.00  0.00     0.027 C 
ATOM     15  C   UNL d   1      -2.666   2.728   0.000  0.00  0.00     0.027 A 
ATOM     16  C   UNL d   1      -1.987   2.260   0.000  0.00  0.00     0.027 A 
ENDBRANCH  10  11
ENDBRANCH   1  10
TORSDOF 2
