REMARK  2 active torsions:
REMARK  status: ('A' for Active; 'I' for Inactive)
REMARK    1  A    between atoms: C_13  and  C_6 
REMARK    2  A    between atoms: N_7  and  C_12 
ROOT
ATOM      1  C   UNL d   1      -0.692  -0.442   0.000  0.00  0.00     0.095 A 
ATOM      2  C   UNL d   1      -2.105  -0.442   0.000  0.00  0.00     0.095 A 
ATOM      3  C   UNL d   1      -0.692  -1.274   0.000  0.00  0.00     0.143 A 
ATOM      4  C   UNL d   1      -2.105  -1.274   0.000  0.00  0.00     0.143 A 
ATOM      5  S   UNL d   1      -1.402  -1.678   0.000  0.00  0.00    -0.044 SA
ATOM      6  C   UNL d   1      -1.402  -0.045   0.000  0.00  0.00     0.023 A 
ATOM      7  C   UNL d   1      -2.830  -0.026   0.000  0.00  0.00     0.103 C 
ATOM      8  C   UNL d   1       0.049  -0.026   0.000  0.00  0.00     0.103 C 
ATOM      9  N   UNL d   1       0.775   0.408   0.000  0.00  0.00    -0.191 NA
ATOM     10  N   UNL d   1      -3.556   0.408   0.000  0.00  0.00    -0.191 NA
ATOM     11  N   UNL d   1      -2.830  -1.693   0.000  0.00  0.00    -0.140 N 
ATOM     12  N   UNL d   1       0.049  -1.693   0.000  0.00  0.00    -0.140 N 
ENDROOT
BRANCH   6  13
ATOM     13  C   UNL d   1      -1.402   0.790   0.000  0.00  0.00     0.002 A 
ATOM     14  C   UNL d   1      -2.105   1.209   0.000  0.00  0.00     0.002 A 
ATOM     15  C   UNL d   1      -2.105   2.026   0.000  0.00  0.00     0.024 A 
ATOM     16  C   UNL d   1      -1.402   2.445   0.000  0.00  0.00     0.127 A 
ATOM     17  C   UNL d   1      -0.692   2.026   0.000  0.00  0.00     0.024 A 
ATOM     18  C   UNL d   1      -0.692   1.209   0.000  0.00  0.00     0.002 A 
BRANCH  16  19
ATOM     19  N   UNL d   1      -1.402   3.261   0.000  0.00  0.00    -0.114 N 
ATOM     20  O   UNL d   1      -0.692   3.666   0.000  0.00  0.00    -0.532 OA
ATOM     21  O   UNL d   1      -2.105   3.666   0.000  0.00  0.00    -0.532 OA
ENDBRANCH  16  19
ENDBRANCH   6  13
TORSDOF 2
