REMARK  2 active torsions:
REMARK  status: ('A' for Active; 'I' for Inactive)
REMARK    1  A    between atoms: N_3  and  C_1 
REMARK       I    between atoms: C_6  and  N_3 
REMARK    2  A    between atoms: C_8  and  C_6 
ROOT
ATOM      1  N   UNL d   1       1.268   1.998   0.000  0.00  0.00    -0.183 NA
ATOM      2  C   UNL d   1       1.689   1.264   0.000  0.00  0.00     0.281 C 
ATOM      3  O   UNL d   1       2.509   1.264   0.000  0.00  0.00    -0.265 OA
ENDROOT
BRANCH   1   4
ATOM      4  C   UNL d   1       0.451   1.998   0.000  0.00  0.00     0.197 A 
ATOM      5  N   UNL d   1      -0.030   1.339   0.000  0.00  0.00    -0.221 NA
ATOM      6  C   UNL d   1      -0.802   1.585   0.000  0.00  0.00     0.090 A 
ATOM      7  C   UNL d   1      -1.517   1.174   0.000  0.00  0.00     0.020 A 
ATOM      8  C   UNL d   1      -0.802   2.412   0.000  0.00  0.00     0.050 A 
ATOM      9  C   UNL d   1      -2.233   1.585   0.000  0.00  0.00     0.002 A 
ATOM     10  C   UNL d   1      -2.233   2.412   0.000  0.00  0.00     0.001 A 
ATOM     11  C   UNL d   1      -1.517   2.819   0.000  0.00  0.00     0.008 A 
ATOM     12  S   UNL d   1      -0.030   2.658   0.000  0.00  0.00    -0.047 SA
ENDBRANCH   1   4
BRANCH   2  13
ATOM     13  C   UNL d   1       1.279   0.567   0.000  0.00  0.00     0.058 A 
ATOM     14  C   UNL d   1       1.689  -0.149   0.000  0.00  0.00     0.005 A 
ATOM     15  C   UNL d   1       1.279  -0.865   0.000  0.00  0.00     0.000 A 
ATOM     16  C   UNL d   1       1.681  -1.570   0.000  0.00  0.00     0.000 C 
ATOM     17  C   UNL d   1       0.451  -0.865   0.000  0.00  0.00     0.000 A 
ATOM     18  C   UNL d   1       0.045  -0.134   0.000  0.00  0.00     0.000 A 
ATOM     19  C   UNL d   1       0.451   0.567   0.000  0.00  0.00     0.005 A 
ENDBRANCH   2  13
TORSDOF 2
