REMARK  4 active torsions:
REMARK  status: ('A' for Active; 'I' for Inactive)
REMARK    1  A    between atoms: C_7  and  C_1 
REMARK       I    between atoms: C_6  and  N_8 
REMARK    2  A    between atoms: C_14  and  C_6 
REMARK    3  A    between atoms: N_8  and  C_15 
REMARK    4  A    between atoms: C_20  and  C_14 
ROOT
ATOM      1  C   UNL d   1       0.079  -0.685   0.000  0.00  0.00     0.024 A 
ATOM      2  C   UNL d   1       0.685  -1.233   0.000  0.00  0.00     0.004 A 
ATOM      3  C   UNL d   1       0.237   0.133   0.000  0.00  0.00     0.004 A 
ATOM      4  C   UNL d   1       1.644  -0.166   0.000  0.00  0.00     0.085 A 
ATOM      5  C   UNL d   1       1.482  -0.975   0.000  0.00  0.00     0.019 A 
ATOM      6  C   UNL d   1       1.034   0.382   0.000  0.00  0.00     0.019 A 
ENDROOT
BRANCH   1   7
ATOM      7  C   UNL d   1      -0.693  -0.951   0.000  0.00  0.00     0.111 A 
ATOM      8  N   UNL d   1      -0.909  -1.731   0.000  0.00  0.00    -0.239 NA
ATOM      9  C   UNL d   1      -1.727  -1.793   0.000  0.00  0.00     0.088 A 
ATOM     10  C   UNL d   1      -2.241  -2.428   0.000  0.00  0.00     0.020 A 
ATOM     11  C   UNL d   1      -2.026  -1.013   0.000  0.00  0.00     0.049 A 
ATOM     12  C   UNL d   1      -3.038  -2.291   0.000  0.00  0.00     0.002 A 
ATOM     13  C   UNL d   1      -3.337  -1.511   0.000  0.00  0.00     0.001 A 
ATOM     14  C   UNL d   1      -2.839  -0.876   0.000  0.00  0.00     0.008 A 
ATOM     15  C   UNL d   1      -4.155  -1.395   0.000  0.00  0.00     0.000 C 
ATOM     16  S   UNL d   1      -1.390  -0.498   0.000  0.00  0.00    -0.066 SA
ENDBRANCH   1   7
BRANCH   4  17
ATOM     17  N   UNL d   1       2.407   0.095   0.000  0.00  0.00    -0.208 NA
ATOM     18  C   UNL d   1       2.988  -0.403   0.000  0.00  0.00     0.279 C 
ATOM     19  O   UNL d   1       3.814  -0.129   0.000  0.00  0.00    -0.265 OA
BRANCH  18  20
ATOM     20  C   UNL d   1       2.739  -1.183   0.000  0.00  0.00     0.062 C 
BRANCH  20  21
ATOM     21  C   UNL d   1       3.287  -1.781   0.000  0.00  0.00     0.005 A 
ATOM     22  C   UNL d   1       3.026  -2.557   0.000  0.00  0.00     0.000 A 
ATOM     23  C   UNL d   1       3.574  -3.188   0.000  0.00  0.00     0.000 A 
ATOM     24  C   UNL d   1       4.383  -3.018   0.000  0.00  0.00     0.000 A 
ATOM     25  C   UNL d   1       4.636  -2.229   0.000  0.00  0.00     0.000 A 
ATOM     26  C   UNL d   1       4.101  -1.611   0.000  0.00  0.00     0.000 A 
ENDBRANCH  20  21
ENDBRANCH  18  20
ENDBRANCH   4  17
TORSDOF 4
