REMARK  2 active torsions:
REMARK  status: ('A' for Active; 'I' for Inactive)
REMARK    1  A    between atoms: C_13  and  C_5 
REMARK    2  A    between atoms: C_16  and  C_13 
ROOT
ATOM      1  C   UNL d   1      -0.494  -1.889   0.000  0.00  0.00     0.111 A 
ATOM      2  C   UNL d   1      -1.920  -1.889   0.000  0.00  0.00     0.062 A 
ATOM      3  C   UNL d   1      -0.494  -2.704   0.000  0.00  0.00     0.213 A 
ATOM      4  C   UNL d   1      -1.920  -2.704   0.000  0.00  0.00     0.101 A 
ATOM      5  C   UNL d   1      -1.201  -1.483   0.000  0.00  0.00     0.018 A 
ATOM      6  O   UNL d   1      -1.201  -3.109   0.000  0.00  0.00    -0.288 OA
ATOM      7  C   UNL d   1      -2.627  -1.483   0.000  0.00  0.00     0.194 A 
ATOM      8  C   UNL d   1       0.267  -1.499   0.000  0.00  0.00     0.105 C 
ATOM      9  N   UNL d   1       1.008  -1.093   0.000  0.00  0.00    -0.191 NA
ATOM     10  C   UNL d   1      -2.627  -3.109   0.000  0.00  0.00     0.002 A 
ATOM     11  C   UNL d   1      -3.349  -2.704   0.000  0.00  0.00     0.042 A 
ATOM     12  C   UNL d   1      -3.349  -1.889   0.000  0.00  0.00     0.019 A 
ATOM     13  O   UNL d   1      -2.627  -0.649   0.000  0.00  0.00    -0.287 OA
ATOM     14  N   UNL d   1       0.267  -3.094   0.000  0.00  0.00    -0.120 N 
ATOM     15  C   UNL d   1      -4.133  -2.484   0.000  0.00  0.00     0.009 C 
ATOM     16  C   UNL d   1      -3.940  -3.260   0.000  0.00  0.00     0.009 C 
ENDROOT
BRANCH   5  17
ATOM     17  C   UNL d   1      -1.201  -0.649   0.000  0.00  0.00     0.001 C 
BRANCH  17  18
ATOM     18  C   UNL d   1      -0.494  -0.236   0.000  0.00  0.00     0.000 A 
ATOM     19  C   UNL d   1       0.232  -0.649   0.000  0.00  0.00     0.000 A 
ATOM     20  C   UNL d   1       0.954  -0.220   0.000  0.00  0.00     0.000 A 
ATOM     21  C   UNL d   1       0.954   0.576   0.000  0.00  0.00     0.000 A 
ATOM     22  C   UNL d   1       0.232   1.004   0.000  0.00  0.00     0.000 A 
ATOM     23  C   UNL d   1      -0.494   0.599   0.000  0.00  0.00     0.000 A 
ENDBRANCH  17  18
ENDBRANCH   5  17
TORSDOF 2
