REMARK  2 active torsions:
REMARK  status: ('A' for Active; 'I' for Inactive)
REMARK    1  A    between atoms: C_6  and  C_3 
REMARK    2  A    between atoms: C_9  and  C_6 
ROOT
ATOM      1  N   UNL d   1      -0.825   0.929   0.000  0.00  0.00    -0.225 NA
ATOM      2  N   UNL d   1      -0.825  -0.410   0.000  0.00  0.00    -0.225 NA
ATOM      3  C   UNL d   1      -0.347   0.259   0.000  0.00  0.00     0.163 A 
ATOM      4  C   UNL d   1      -1.590   0.681   0.000  0.00  0.00     0.101 A 
ATOM      5  C   UNL d   1      -1.590  -0.160   0.000  0.00  0.00     0.101 A 
ATOM      6  C   UNL d   1      -2.296   1.084   0.000  0.00  0.00     0.021 A 
ATOM      7  C   UNL d   1      -2.296  -0.562   0.000  0.00  0.00     0.021 A 
ATOM      8  C   UNL d   1      -3.025   0.681   0.000  0.00  0.00     0.002 A 
ATOM      9  C   UNL d   1      -3.025  -0.160   0.000  0.00  0.00     0.002 A 
ENDROOT
BRANCH   3  10
ATOM     10  C   UNL d   1       0.478   0.259   0.000  0.00  0.00     0.039 C 
BRANCH  10  11
ATOM     11  C   UNL d   1       0.897  -0.446   0.000  0.00  0.00     0.003 C 
ATOM     12  C   UNL d   1       1.722  -0.446   0.000  0.00  0.00     0.000 C 
ENDBRANCH  10  11
ENDBRANCH   3  10
TORSDOF 2
