REMARK  3 active torsions:
REMARK  status: ('A' for Active; 'I' for Inactive)
REMARK    1  A    between atoms: N_2  and  S_1 
REMARK    2  A    between atoms: C_3  and  S_1 
REMARK    3  A    between atoms: C_11  and  C_6 
ROOT
ATOM      1  C   UNL d   1      -0.070   0.000   0.000  0.00  0.00     0.104 A 
ATOM      2  C   UNL d   1      -1.730   0.000   0.000  0.00  0.00     0.000 A 
ATOM      3  C   UNL d   1      -0.485  -0.712   0.000  0.00  0.00     0.013 A 
ATOM      4  C   UNL d   1      -0.485   0.712   0.000  0.00  0.00     0.013 A 
ATOM      5  C   UNL d   1      -1.312   0.712   0.000  0.00  0.00     0.001 A 
ATOM      6  C   UNL d   1      -1.312  -0.712   0.000  0.00  0.00     0.001 A 
ENDROOT
BRANCH   1   7
ATOM      7  S   UNL d   1       0.753   0.000   0.000  0.00  0.00     0.271 S 
ATOM      8  O   UNL d   1       0.753  -0.822   0.000  0.00  0.00    -0.200 OA
ATOM      9  O   UNL d   1       0.753   0.833   0.000  0.00  0.00    -0.200 OA
BRANCH   7  10
ATOM     10  N   UNL d   1       1.578   0.000   0.000  0.00  0.00    -0.229 N 
ATOM     11  C   UNL d   1       1.982   0.701   0.000  0.00  0.00     0.092 A 
ATOM     12  C   UNL d   1       2.825   0.701   0.000  0.00  0.00     0.020 A 
ATOM     13  C   UNL d   1       3.235   0.000   0.000  0.00  0.00     0.003 A 
ATOM     14  C   UNL d   1       2.815  -0.714   0.000  0.00  0.00     0.020 A 
ATOM     15  C   UNL d   1       2.011  -0.714   0.000  0.00  0.00     0.092 A 
ENDBRANCH   7  10
ENDBRANCH   1   7
BRANCH   2  16
ATOM     16  C   UNL d   1      -2.550   0.000   0.000  0.00  0.00     0.000 C 
ATOM     17  C   UNL d   1      -2.959  -0.712   0.000  0.00  0.00     0.000 C 
ATOM     18  C   UNL d   1      -2.967   0.712   0.000  0.00  0.00     0.000 C 
ENDBRANCH   2  16
TORSDOF 3
