REMARK  5 active torsions:
REMARK  status: ('A' for Active; 'I' for Inactive)
REMARK    1  A    between atoms: N_4  and  C_1 
REMARK    2  A    between atoms: C_10  and  C_3 
REMARK       I    between atoms: C_7  and  N_4 
REMARK    3  A    between atoms: C_8  and  C_7 
REMARK    4  A    between atoms: C_9  and  C_8 
REMARK    5  A    between atoms: C_12  and  C_9 
ROOT
ATOM      1  C   UNL d   1      -2.418  -1.044   0.000  0.00  0.00     0.197 A 
ATOM      2  N   UNL d   1      -2.631  -1.837   0.000  0.00  0.00    -0.221 NA
ATOM      3  C   UNL d   1      -3.445  -1.890   0.000  0.00  0.00     0.090 A 
ATOM      4  S   UNL d   1      -3.095  -0.596   0.000  0.00  0.00    -0.046 SA
ATOM      5  C   UNL d   1      -3.735  -1.116   0.000  0.00  0.00     0.058 A 
ENDROOT
BRANCH   1   6
ATOM      6  N   UNL d   1      -1.628  -0.753   0.000  0.00  0.00    -0.183 NA
ATOM      7  C   UNL d   1      -1.495   0.060   0.000  0.00  0.00     0.281 C 
ATOM      8  O   UNL d   1      -2.111   0.580   0.000  0.00  0.00    -0.265 OA
BRANCH   7   9
ATOM      9  C   UNL d   1      -0.721   0.351   0.000  0.00  0.00     0.063 C 
BRANCH   9  10
ATOM     10  C   UNL d   1      -0.580   1.160   0.000  0.00  0.00     0.005 C 
BRANCH  10  11
ATOM     11  C   UNL d   1       0.193   1.451   0.000  0.00  0.00     0.000 A 
ATOM     12  C   UNL d   1       0.810   0.931   0.000  0.00  0.00     0.000 A 
ATOM     13  C   UNL d   1       1.563   1.205   0.000  0.00  0.00     0.000 A 
ATOM     14  C   UNL d   1       1.721   2.031   0.000  0.00  0.00     0.000 A 
ATOM     15  C   UNL d   1       1.100   2.559   0.000  0.00  0.00     0.000 A 
ATOM     16  C   UNL d   1       0.326   2.268   0.000  0.00  0.00     0.000 A 
ENDBRANCH  10  11
ENDBRANCH   9  10
ENDBRANCH   7   9
ENDBRANCH   1   6
BRANCH   3  17
ATOM     17  C   UNL d   1      -3.852  -2.611   0.000  0.00  0.00     0.018 A 
ATOM     18  C   UNL d   1      -3.445  -3.304   0.000  0.00  0.00     0.002 A 
ATOM     19  C   UNL d   1      -3.868  -4.017   0.000  0.00  0.00     0.000 A 
ATOM     20  C   UNL d   1      -4.686  -4.017   0.000  0.00  0.00     0.000 A 
ATOM     21  C   UNL d   1      -5.097  -3.304   0.000  0.00  0.00     0.000 A 
ATOM     22  C   UNL d   1      -4.686  -2.611   0.000  0.00  0.00     0.002 A 
ENDBRANCH   3  17
TORSDOF 5
