REMARK  7 active torsions:
REMARK  status: ('A' for Active; 'I' for Inactive)
REMARK    1  A    between atoms: N_6  and  C_1 
REMARK    2  A    between atoms: N_8  and  C_2 
REMARK    3  A    between atoms: N_10  and  C_7 
REMARK    4  A    between atoms: C_13  and  N_8 
REMARK    5  A    between atoms: C_14  and  N_10 
REMARK    6  A    between atoms: C_15  and  C_13 
REMARK    7  A    between atoms: C_16  and  C_14 
ROOT
ATOM      1  C   UNL d   1      -0.281  -0.516   0.000  0.00  0.00     0.201 A 
ATOM      2  C   UNL d   1      -0.997  -0.098   0.000  0.00  0.00     0.206 A 
ATOM      3  N   UNL d   1      -1.709  -0.516   0.000  0.00  0.00    -0.038 NA
ATOM      4  N   UNL d   1      -0.997  -1.752   0.000  0.00  0.00    -0.036 NA
ATOM      5  C   UNL d   1      -0.281  -1.341   0.000  0.00  0.00     0.227 A 
ATOM      6  C   UNL d   1      -1.709  -1.341   0.000  0.00  0.00     0.753 A 
ATOM      7  N   UNL d   1       0.450  -1.752   0.000  0.00  0.00    -0.125 N 
ENDROOT
BRANCH   2   8
ATOM      8  N   UNL d   1      -0.997   0.747   0.000  0.00  0.00    -0.223 NA
BRANCH   8   9
ATOM      9  C   UNL d   1      -1.709   1.157   0.000  0.00  0.00     0.101 C 
BRANCH   9  10
ATOM     10  C   UNL d   1      -1.709   1.982   0.000  0.00  0.00     0.019 A 
ATOM     11  C   UNL d   1      -2.424   2.393   0.000  0.00  0.00     0.002 A 
ATOM     12  C   UNL d   1      -2.424   3.222   0.000  0.00  0.00     0.000 A 
ATOM     13  C   UNL d   1      -1.709   3.633   0.000  0.00  0.00     0.000 A 
ATOM     14  C   UNL d   1      -0.997   3.222   0.000  0.00  0.00     0.000 A 
ATOM     15  C   UNL d   1      -0.997   2.393   0.000  0.00  0.00     0.002 A 
ENDBRANCH   9  10
ENDBRANCH   8   9
ENDBRANCH   2   8
BRANCH   1  16
ATOM     16  N   UNL d   1       0.450  -0.082   0.000  0.00  0.00    -0.107 N 
ATOM     17  O   UNL d   1       1.161  -0.497   0.000  0.00  0.00    -0.531 OA
ATOM     18  O   UNL d   1       0.450   0.747   0.000  0.00  0.00    -0.531 OA
ENDBRANCH   1  16
BRANCH   6  19
ATOM     19  N   UNL d   1      -2.424  -1.752   0.000  0.00  0.00    -0.058 NA
BRANCH  19  20
ATOM     20  C   UNL d   1      -2.424  -2.581   0.000  0.00  0.00     0.118 C 
BRANCH  20  21
ATOM     21  C   UNL d   1      -3.140  -2.991   0.000  0.00  0.00     0.020 A 
ATOM     22  C   UNL d   1      -3.848  -2.581   0.000  0.00  0.00     0.002 A 
ATOM     23  C   UNL d   1      -4.563  -2.991   0.000  0.00  0.00     0.000 A 
ATOM     24  C   UNL d   1      -4.563  -3.816   0.000  0.00  0.00     0.000 A 
ATOM     25  C   UNL d   1      -3.848  -4.227   0.000  0.00  0.00     0.000 A 
ATOM     26  C   UNL d   1      -3.140  -3.816   0.000  0.00  0.00     0.002 A 
ENDBRANCH  20  21
ENDBRANCH  19  20
ENDBRANCH   6  19
TORSDOF 7
