REMARK  5 active torsions:
REMARK  status: ('A' for Active; 'I' for Inactive)
REMARK    1  A    between atoms: N_5  and  C_1 
REMARK    2  A    between atoms: N_6  and  C_1 
REMARK       I    between atoms: C_2  and  N_3 
REMARK    3  A    between atoms: C_4  and  C_2 
REMARK    4  A    between atoms: N_3  and  N_5 
REMARK    5  A    between atoms: C_10  and  N_6 
ROOT
ATOM      1  C   UNL d   1      -1.645  -1.709   0.000  0.00  0.00     0.272 C 
ATOM      2  N   UNL d   1      -2.358  -1.304   0.000  0.00  0.00    -0.264 N 
ATOM      3  O   UNL d   1      -1.628  -2.526   0.000  0.00  0.00    -0.266 OA
ATOM      4  H   UNL d   1      -2.358  -0.469   0.000  0.00  0.00     0.190 HD
ENDROOT
BRANCH   2   5
ATOM      5  N   UNL d   1      -3.059  -1.709   0.000  0.00  0.00    -0.274 N 
ATOM      6  H   UNL d   1      -3.059  -2.543   0.000  0.00  0.00     0.189 HD
BRANCH   5   7
ATOM      7  C   UNL d   1      -3.772  -1.292   0.000  0.00  0.00     0.187 C 
ATOM      8  S   UNL d   1      -3.772  -0.469   0.000  0.00  0.00    -0.040 SA
BRANCH   7   9
ATOM      9  N   UNL d   1      -4.478  -1.709   0.000  0.00  0.00    -0.354 N 
ATOM     10  H   UNL d   1      -4.467  -2.526   0.000  0.00  0.00     0.162 HD
BRANCH   9  11
ATOM     11  C   UNL d   1      -5.191  -1.292   0.000  0.00  0.00     0.063 C 
ATOM     12  C   UNL d   1      -5.909  -0.886   0.000  0.00  0.00     0.022 C 
ATOM     13  C   UNL d   1      -4.791  -0.579   0.000  0.00  0.00     0.022 C 
ATOM     14  C   UNL d   1      -5.608  -2.016   0.000  0.00  0.00     0.022 C 
ENDBRANCH   9  11
ENDBRANCH   7   9
ENDBRANCH   5   7
ENDBRANCH   2   5
BRANCH   1  15
ATOM     15  C   UNL d   1      -0.933  -1.292   0.000  0.00  0.00     0.058 A 
ATOM     16  C   UNL d   1      -0.209  -1.709   0.000  0.00  0.00     0.011 A 
ATOM     17  C   UNL d   1       0.487  -1.292   0.000  0.00  0.00     0.035 A 
ATOM     18 BR   UNL d   1       1.188  -1.692   0.000  0.00  0.00    -0.049 Br
ATOM     19  C   UNL d   1       0.487  -0.469   0.000  0.00  0.00     0.007 A 
ATOM     20  C   UNL d   1      -0.226  -0.041   0.000  0.00  0.00     0.001 A 
ATOM     21  C   UNL d   1      -0.933  -0.469   0.000  0.00  0.00     0.005 A 
ENDBRANCH   1  15
TORSDOF 5
