REMARK  6 active torsions:
REMARK  status: ('A' for Active; 'I' for Inactive)
REMARK    1  A    between atoms: C_6  and  N_1 
REMARK    2  A    between atoms: S_7  and  C_2 
REMARK    3  A    between atoms: C_12  and  S_7 
REMARK    4  A    between atoms: C_8  and  O_9 
REMARK    5  A    between atoms: O_9  and  C_13 
REMARK    6  A    between atoms: C_13  and  C_12 
ROOT
ATOM      1  N   UNL d   1      -1.529   0.872   0.000  0.00  0.00    -0.186 N 
ATOM      2  C   UNL d   1      -0.824   1.274   0.000  0.00  0.00     0.219 A 
ATOM      3  N   UNL d   1      -1.000   2.099   0.000  0.00  0.00    -0.101 NA
ATOM      4  N   UNL d   1      -1.800   2.194   0.000  0.00  0.00    -0.022 NA
ATOM      5  N   UNL d   1      -2.147   1.446   0.000  0.00  0.00    -0.038 NA
ENDROOT
BRANCH   2   6
ATOM      6  S   UNL d   1      -0.044   0.928   0.000  0.00  0.00    -0.044 SA
BRANCH   6   7
ATOM      7  C   UNL d   1       0.036   0.107   0.000  0.00  0.00     0.065 C 
BRANCH   7   8
ATOM      8  C   UNL d   1       0.800  -0.239   0.000  0.00  0.00     0.130 C 
BRANCH   8   9
ATOM      9  O   UNL d   1       0.876  -1.055   0.000  0.00  0.00    -0.305 OA
BRANCH   9  10
ATOM     10  C   UNL d   1       1.625  -1.422   0.000  0.00  0.00     0.100 A 
ATOM     11  C   UNL d   1       2.310  -0.944   0.000  0.00  0.00     0.025 A 
ATOM     12  C   UNL d   1       3.059  -1.290   0.000  0.00  0.00     0.002 A 
ATOM     13  C   UNL d   1       3.134  -2.107   0.000  0.00  0.00     0.000 A 
ATOM     14  C   UNL d   1       2.465  -2.585   0.000  0.00  0.00     0.002 A 
ATOM     15  C   UNL d   1       1.701  -2.246   0.000  0.00  0.00     0.025 A 
ENDBRANCH   9  10
ENDBRANCH   8   9
ENDBRANCH   7   8
ENDBRANCH   6   7
ENDBRANCH   2   6
BRANCH   1  16
ATOM     16  C   UNL d   1      -1.529   0.032   0.000  0.00  0.00     0.087 A 
ATOM     17  C   UNL d   1      -2.278  -0.386   0.000  0.00  0.00     0.019 A 
ATOM     18  C   UNL d   1      -2.258  -1.211   0.000  0.00  0.00     0.002 A 
ATOM     19  C   UNL d   1      -1.529  -1.629   0.000  0.00  0.00     0.000 A 
ATOM     20  C   UNL d   1      -0.824  -1.211   0.000  0.00  0.00     0.002 A 
ATOM     21  C   UNL d   1      -0.824  -0.386   0.000  0.00  0.00     0.019 A 
ENDBRANCH   1  16
TORSDOF 6
