REMARK  6 active torsions:
REMARK  status: ('A' for Active; 'I' for Inactive)
REMARK    1  A    between atoms: C_7  and  C_1 
REMARK    2  A    between atoms: N_6  and  C_3 
REMARK    3  A    between atoms: N_8  and  N_6 
REMARK    4  A    between atoms: O_12  and  C_7 
REMARK    5  A    between atoms: C_9  and  N_8 
REMARK    6  A    between atoms: C_18  and  O_12 
ROOT
ATOM      1  C   UNL d   1       1.074   1.003   0.000  0.00  0.00     0.084 A 
ATOM      2  N   UNL d   1       0.707  -0.236   0.000  0.00  0.00    -0.225 NA
ATOM      3  C   UNL d   1       0.022   0.214   0.000  0.00  0.00     0.184 A 
ATOM      4  C   UNL d   1       1.364   0.263   0.000  0.00  0.00     0.088 A 
ATOM      5  C   UNL d   1       0.263   1.003   0.000  0.00  0.00     0.044 A 
ATOM      6  C   UNL d   1       2.175   0.082   0.000  0.00  0.00     0.021 C 
ATOM      7  C   UNL d   1      -0.241   1.660   0.000  0.00  0.00     0.003 C 
ENDROOT
BRANCH   3   8
ATOM      8  N   UNL d   1      -0.767   0.027   0.000  0.00  0.00    -0.129 NA
BRANCH   8   9
ATOM      9  N   UNL d   1      -1.030  -0.762   0.000  0.00  0.00    -0.147 NA
BRANCH   9  10
ATOM     10  C   UNL d   1      -1.841  -0.970   0.000  0.00  0.00     0.103 A 
ATOM     11  C   UNL d   1      -2.427  -0.395   0.000  0.00  0.00     0.019 A 
ATOM     12  C   UNL d   1      -2.213   0.455   0.000  0.00  0.00     0.002 C 
ATOM     13  C   UNL d   1      -3.216  -0.597   0.000  0.00  0.00     0.002 A 
ATOM     14  C   UNL d   1      -3.419  -1.386   0.000  0.00  0.00     0.000 A 
ATOM     15  C   UNL d   1      -2.871  -1.972   0.000  0.00  0.00     0.002 A 
ATOM     16  C   UNL d   1      -2.082  -1.759   0.000  0.00  0.00     0.021 A 
ENDBRANCH   9  10
ENDBRANCH   8   9
ENDBRANCH   3   8
BRANCH   1  17
ATOM     17  C   UNL d   1       1.578   1.688   0.000  0.00  0.00     0.302 C 
ATOM     18  O   UNL d   1       1.206   2.449   0.000  0.00  0.00    -0.259 OA
BRANCH  17  19
ATOM     19  O   UNL d   1       2.389   1.605   0.000  0.00  0.00    -0.271 OA
BRANCH  19  20
ATOM     20  C   UNL d   1       2.866   2.296   0.000  0.00  0.00     0.126 C 
ATOM     21  C   UNL d   1       3.704   2.213   0.000  0.00  0.00     0.029 C 
ENDBRANCH  19  20
ENDBRANCH  17  19
ENDBRANCH   1  17
TORSDOF 6
