REMARK  2 active torsions:
REMARK  status: ('A' for Active; 'I' for Inactive)
REMARK    1  A    between atoms: C_4  and  C_1 
REMARK    2  A    between atoms: C_8  and  C_2 
REMARK       I    between atoms: N_7  and  C_4 
ROOT
ATOM      1  C   UNL d   1       2.397   0.234   0.000  0.00  0.00     0.081 A 
ATOM      2  C   UNL d   1       2.885  -0.414   0.000  0.00  0.00     0.104 A 
ATOM      3  C   UNL d   1       1.613  -0.005   0.000  0.00  0.00     0.033 A 
ATOM      4  O   UNL d   1       2.397  -1.096   0.000  0.00  0.00    -0.307 OA
ATOM      5  C   UNL d   1       1.613  -0.838   0.000  0.00  0.00     0.100 A 
ATOM      6  C   UNL d   1       0.897   0.404   0.000  0.00  0.00     0.044 A 
ATOM      7  C   UNL d   1       0.897  -1.248   0.000  0.00  0.00     0.028 A 
ATOM      8  C   UNL d   1       0.175  -0.005   0.000  0.00  0.00     0.196 A 
ATOM      9  C   UNL d   1       0.175  -0.838   0.000  0.00  0.00     0.044 A 
ATOM     10  O   UNL d   1      -0.526   0.404   0.000  0.00  0.00    -0.287 OA
ENDROOT
BRANCH   1  11
ATOM     11  C   UNL d   1       2.651   1.033   0.000  0.00  0.00     0.267 C 
ATOM     12  N   UNL d   1       2.105   1.637   0.000  0.00  0.00    -0.268 N 
ATOM     13  C   UNL d   1       2.358   2.436   0.000  0.00  0.00     0.110 A 
ATOM     14  C   UNL d   1       1.286   1.476   0.000  0.00  0.00     0.110 A 
ATOM     15  C   UNL d   1       1.798   3.041   0.000  0.00  0.00     0.142 A 
ATOM     16  O   UNL d   1       0.994   2.880   0.000  0.00  0.00    -0.300 OA
ATOM     17  C   UNL d   1       0.736   2.086   0.000  0.00  0.00     0.142 A 
ATOM     18  O   UNL d   1       3.455   1.194   0.000  0.00  0.00    -0.267 OA
ENDBRANCH   1  11
BRANCH   2  19
ATOM     19  C   UNL d   1       3.718  -0.414   0.000  0.00  0.00     0.023 A 
ATOM     20  C   UNL d   1       4.113   0.292   0.000  0.00  0.00     0.002 A 
ATOM     21  C   UNL d   1       4.946   0.292   0.000  0.00  0.00     0.000 A 
ATOM     22  C   UNL d   1       5.365  -0.414   0.000  0.00  0.00     0.000 A 
ATOM     23  C   UNL d   1       4.956  -1.131   0.000  0.00  0.00     0.000 A 
ATOM     24  C   UNL d   1       4.127  -1.131   0.000  0.00  0.00     0.002 A 
ENDBRANCH   2  19
TORSDOF 2
