REMARK  4 active torsions:
REMARK  status: ('A' for Active; 'I' for Inactive)
REMARK    1  A    between atoms: S_6  and  C_1 
REMARK    2  A    between atoms: C_14  and  N_2 
REMARK    3  A    between atoms: C_7  and  S_6 
REMARK    4  A    between atoms: O_18  and  C_16 
ROOT
ATOM      1  C   UNL d   1      -0.748   0.764   0.000  0.00  0.00     0.114 A 
ATOM      2  N   UNL d   1      -1.458   0.344   0.000  0.00  0.00    -0.239 NA
ATOM      3  C   UNL d   1      -2.162   0.764   0.000  0.00  0.00     0.084 A 
ATOM      4  C   UNL d   1      -2.162   1.573   0.000  0.00  0.00     0.018 A 
ATOM      5  C   UNL d   1      -1.458   1.993   0.000  0.00  0.00     0.004 A 
ATOM      6  C   UNL d   1      -2.877   0.344   0.000  0.00  0.00     0.043 A 
ATOM      7  C   UNL d   1      -0.748   1.573   0.000  0.00  0.00     0.026 A 
ATOM      8  C   UNL d   1      -2.877   1.993   0.000  0.00  0.00     0.004 A 
ATOM      9  C   UNL d   1      -3.582   0.764   0.000  0.00  0.00     0.096 A 
ATOM     10  C   UNL d   1      -3.582   1.573   0.000  0.00  0.00     0.024 A 
ATOM     11  C   UNL d   1      -1.458   2.812   0.000  0.00  0.00     0.000 C 
ENDROOT
BRANCH   1  12
ATOM     12  S   UNL d   1       0.038   0.437   0.000  0.00  0.00    -0.028 SA
BRANCH  12  13
ATOM     13  C   UNL d   1       0.393   1.239   0.000  0.00  0.00     0.220 A 
ATOM     14  N   UNL d   1       1.218   1.436   0.000  0.00  0.00    -0.186 N 
ATOM     15  N   UNL d   1       1.267   2.255   0.000  0.00  0.00    -0.038 NA
ATOM     16  N   UNL d   1       0.480   2.583   0.000  0.00  0.00    -0.022 NA
ATOM     17  N   UNL d   1      -0.044   1.944   0.000  0.00  0.00    -0.101 NA
BRANCH  14  18
ATOM     18  C   UNL d   1       1.857   0.895   0.000  0.00  0.00     0.087 A 
ATOM     19  C   UNL d   1       2.643   1.207   0.000  0.00  0.00     0.019 A 
ATOM     20  C   UNL d   1       3.325   0.672   0.000  0.00  0.00     0.002 A 
ATOM     21  C   UNL d   1       3.183  -0.153   0.000  0.00  0.00     0.000 A 
ATOM     22  C   UNL d   1       2.381  -0.480   0.000  0.00  0.00     0.002 A 
ATOM     23  C   UNL d   1       1.742   0.082   0.000  0.00  0.00     0.019 A 
ENDBRANCH  14  18
ENDBRANCH  12  13
ENDBRANCH   1  12
BRANCH   9  24
ATOM     24  O   UNL d   1      -4.286   0.344   0.000  0.00  0.00    -0.328 OA
ATOM     25  C   UNL d   1      -4.996   0.737   0.000  0.00  0.00     0.181 C 
ENDBRANCH   9  24
TORSDOF 4
