REMARK  4 active torsions:
REMARK  status: ('A' for Active; 'I' for Inactive)
REMARK    1  A    between atoms: C_2  and  S_1 
REMARK    2  A    between atoms: N_4  and  S_1 
REMARK    3  A    between atoms: C_16  and  N_4 
REMARK    4  A    between atoms: C_17  and  C_16 
ROOT
ATOM      1  S   UNL d   1      -1.060   0.620   0.000  0.00  0.00     0.287 S 
ATOM      2  O   UNL d   1      -1.270   1.418   0.000  0.00  0.00    -0.198 OA
ATOM      3  O   UNL d   1      -0.842  -0.177   0.000  0.00  0.00    -0.198 OA
ENDROOT
BRANCH   1   4
ATOM      4  C   UNL d   1      -1.858   0.410   0.000  0.00  0.00     0.123 A 
ATOM      5  C   UNL d   1      -2.083  -0.388   0.000  0.00  0.00     0.094 A 
ATOM      6  N   UNL d   1      -1.503  -0.975   0.000  0.00  0.00    -0.243 NA
ATOM      7  C   UNL d   1      -2.866  -0.602   0.000  0.00  0.00     0.018 A 
ATOM      8  C   UNL d   1      -1.714  -1.754   0.000  0.00  0.00     0.099 A 
ATOM      9  C   UNL d   1      -2.511  -1.965   0.000  0.00  0.00     0.021 A 
ATOM     10  C   UNL d   1      -3.098  -1.400   0.000  0.00  0.00     0.003 A 
ATOM     11  C   UNL d   1      -3.453  -0.015   0.000  0.00  0.00     0.002 A 
ATOM     12  C   UNL d   1      -3.235   0.764   0.000  0.00  0.00     0.001 A 
ATOM     13  C   UNL d   1      -2.437   0.975   0.000  0.00  0.00     0.015 A 
ENDBRANCH   1   4
BRANCH   1  14
ATOM     14  N   UNL d   1      -0.262   0.838   0.000  0.00  0.00    -0.157 NA
BRANCH  14  15
ATOM     15  C   UNL d   1       0.325   0.251   0.000  0.00  0.00     0.112 C 
BRANCH  15  16
ATOM     16  C   UNL d   1       1.112   0.454   0.000  0.00  0.00     0.022 A 
ATOM     17  C   UNL d   1       1.355   1.252   0.000  0.00  0.00     0.028 A 
ATOM     18  C   UNL d   1       2.142   1.437   0.000  0.00  0.00     0.119 A 
ATOM     19  O   UNL d   1       2.530   2.146   0.000  0.00  0.00    -0.300 OA
ATOM     20  C   UNL d   1       2.718   0.827   0.000  0.00  0.00     0.119 A 
ATOM     21  C   UNL d   1       3.350   1.994   0.000  0.00  0.00     0.304 A 
ATOM     22  O   UNL d   1       3.446   1.182   0.000  0.00  0.00    -0.300 OA
ATOM     23  C   UNL d   1       2.482   0.063   0.000  0.00  0.00     0.026 A 
ATOM     24  C   UNL d   1       1.666  -0.133   0.000  0.00  0.00     0.004 A 
ENDBRANCH  15  16
ENDBRANCH  14  15
ENDBRANCH   1  14
TORSDOF 4
