REMARK  5 active torsions:
REMARK  status: ('A' for Active; 'I' for Inactive)
REMARK    1  A    between atoms: S_10  and  C_6 
REMARK    2  A    between atoms: C_14  and  S_10 
REMARK    3  A    between atoms: C_12  and  C_14 
REMARK    4  A    between atoms: O_16  and  C_12 
REMARK    5  A    between atoms: C_18  and  O_16 
ROOT
ATOM      1  C   UNL d   1      -2.689   0.125   0.000  0.00  0.00     0.117 A 
ATOM      2  C   UNL d   1      -3.092   0.833   0.000  0.00  0.00     0.082 A 
ATOM      3  N   UNL d   1      -1.847   0.125   0.000  0.00  0.00    -0.214 NA
ATOM      4  C   UNL d   1      -2.689   1.551   0.000  0.00  0.00     0.283 A 
ATOM      5  N   UNL d   1      -1.847   1.551   0.000  0.00  0.00    -0.183 NA
ATOM      6  C   UNL d   1      -1.444   0.833   0.000  0.00  0.00     0.198 A 
ATOM      7  S   UNL d   1      -3.245  -0.518   0.000  0.00  0.00    -0.068 SA
ATOM      8  C   UNL d   1      -3.889   0.662   0.000  0.00  0.00     0.013 A 
ATOM      9  C   UNL d   1      -4.000  -0.185   0.000  0.00  0.00     0.031 A 
ATOM     10  O   UNL d   1      -3.111   2.278   0.000  0.00  0.00    -0.265 OA
ATOM     11  C   UNL d   1      -4.555   1.148   0.000  0.00  0.00     0.001 A 
ATOM     12  C   UNL d   1      -4.759  -0.518   0.000  0.00  0.00     0.006 A 
ATOM     13  C   UNL d   1      -5.314   0.815   0.000  0.00  0.00     0.000 A 
ATOM     14  C   UNL d   1      -5.402  -0.032   0.000  0.00  0.00     0.001 A 
ENDROOT
BRANCH   6  15
ATOM     15  S   UNL d   1      -0.606   0.833   0.000  0.00  0.00    -0.042 SA
BRANCH  15  16
ATOM     16  C   UNL d   1      -0.204   0.125   0.000  0.00  0.00     0.107 C 
BRANCH  16  17
ATOM     17  C   UNL d   1       0.643   0.125   0.000  0.00  0.00     0.307 C 
ATOM     18  O   UNL d   1       1.060   0.833   0.000  0.00  0.00    -0.258 OA
BRANCH  17  19
ATOM     19  O   UNL d   1       1.060  -0.611   0.000  0.00  0.00    -0.271 OA
BRANCH  19  20
ATOM     20  C   UNL d   1       1.889  -0.611   0.000  0.00  0.00     0.126 C 
ATOM     21  C   UNL d   1       2.310  -1.319   0.000  0.00  0.00     0.029 C 
ENDBRANCH  19  20
ENDBRANCH  17  19
ENDBRANCH  16  17
ENDBRANCH  15  16
ENDBRANCH   6  15
TORSDOF 5
