REMARK  0 active torsions:
REMARK  status: ('A' for Active; 'I' for Inactive)
ROOT
ATOM      1  C   UNL d   1       1.832   0.765   0.000  0.00  0.00     0.191 A 
ATOM      2  S   UNL d   1       3.150   1.357   0.000  0.00  0.00     0.289 S 
ATOM      3  N   UNL d   1       2.318   1.435   0.000  0.00  0.00    -0.134 NA
ATOM      4  N   UNL d   1       2.183   0.017   0.000  0.00  0.00    -0.284 N 
ATOM      5  S   UNL d   1       1.028   0.664   0.000  0.00  0.00    -0.048 SA
ATOM      6  C   UNL d   1       0.871  -0.140   0.000  0.00  0.00     0.048 A 
ATOM      7  C   UNL d   1       1.592  -0.542   0.000  0.00  0.00     0.072 A 
ATOM      8  C   UNL d   1       3.490   0.603   0.000  0.00  0.00     0.137 A 
ATOM      9  C   UNL d   1       0.173  -0.575   0.000  0.00  0.00     0.007 A 
ATOM     10  C   UNL d   1       3.016  -0.067   0.000  0.00  0.00     0.096 A 
ATOM     11  O   UNL d   1       2.988   2.161   0.000  0.00  0.00    -0.198 OA
ATOM     12  O   UNL d   1       3.926   1.569   0.000  0.00  0.00    -0.198 OA
ATOM     13  C   UNL d   1       1.592  -1.407   0.000  0.00  0.00     0.018 A 
ATOM     14  C   UNL d   1       0.173  -1.407   0.000  0.00  0.00     0.001 A 
ATOM     15  C   UNL d   1       0.871  -1.809   0.000  0.00  0.00     0.002 A 
ATOM     16  C   UNL d   1      -0.553  -0.140   0.000  0.00  0.00     0.001 A 
ATOM     17  C   UNL d   1      -0.553  -1.809   0.000  0.00  0.00     0.000 A 
ATOM     18  C   UNL d   1      -1.273  -0.542   0.000  0.00  0.00     0.000 A 
ATOM     19  C   UNL d   1      -1.273  -1.407   0.000  0.00  0.00     0.000 A 
ENDROOT
TORSDOF 0
