REMARK  5 active torsions:
REMARK  status: ('A' for Active; 'I' for Inactive)
REMARK       I    between atoms: C_2  and  N_1 
REMARK    1  A    between atoms: C_3  and  N_1 
REMARK    2  A    between atoms: C_9  and  C_2 
REMARK    3  A    between atoms: N_6  and  C_3 
REMARK    4  A    between atoms: C_4  and  C_13 
REMARK    5  A    between atoms: C_13  and  N_6 
ROOT
ATOM      1  N   UNL d   1      -1.079  -1.935   0.000  0.00  0.00    -0.299 N 
ATOM      2  C   UNL d   1      -1.791  -1.522   0.000  0.00  0.00     0.259 C 
ATOM      3  O   UNL d   1      -1.791  -0.695   0.000  0.00  0.00    -0.267 OA
ATOM      4  H   UNL d   1      -1.079  -2.762   0.000  0.00  0.00     0.171 HD
ENDROOT
BRANCH   1   5
ATOM      5  C   UNL d   1      -0.373  -1.539   0.000  0.00  0.00     0.179 C 
ATOM      6  S   UNL d   1      -0.373  -0.712   0.000  0.00  0.00    -0.040 SA
BRANCH   5   7
ATOM      7  N   UNL d   1       0.316  -1.952   0.000  0.00  0.00    -0.329 N 
ATOM      8  H   UNL d   1       0.299  -2.762   0.000  0.00  0.00     0.168 HD
BRANCH   7   9
ATOM      9  C   UNL d   1       1.016  -1.556   0.000  0.00  0.00     0.099 C 
BRANCH   9  10
ATOM     10  C   UNL d   1       1.728  -1.981   0.000  0.00  0.00     0.117 A 
ATOM     11  O   UNL d   1       2.434  -1.567   0.000  0.00  0.00    -0.304 OA
ATOM     12  C   UNL d   1       3.037  -2.119   0.000  0.00  0.00     0.123 A 
ATOM     13  C   UNL d   1       2.693  -2.865   0.000  0.00  0.00     0.029 A 
ATOM     14  C   UNL d   1       1.883  -2.762   0.000  0.00  0.00     0.028 A 
ENDBRANCH   9  10
ENDBRANCH   7   9
ENDBRANCH   5   7
ENDBRANCH   1   5
BRANCH   2  15
ATOM     15  C   UNL d   1      -2.509  -1.935   0.000  0.00  0.00     0.056 A 
ATOM     16  C   UNL d   1      -2.509  -2.762   0.000  0.00  0.00     0.005 A 
ATOM     17  C   UNL d   1      -3.232  -3.175   0.000  0.00  0.00     0.000 A 
ATOM     18  C   UNL d   1      -3.944  -2.762   0.000  0.00  0.00     0.000 A 
ATOM     19  C   UNL d   1      -3.944  -1.935   0.000  0.00  0.00     0.000 A 
ATOM     20  C   UNL d   1      -3.232  -1.522   0.000  0.00  0.00     0.005 A 
ENDBRANCH   2  15
TORSDOF 5
