REMARK  6 active torsions:
REMARK  status: ('A' for Active; 'I' for Inactive)
REMARK       I    between atoms: C_2  and  N_1 
REMARK    1  A    between atoms: C_3  and  N_1 
REMARK    2  A    between atoms: C_6  and  C_2 
REMARK    3  A    between atoms: N_7  and  C_3 
REMARK    4  A    between atoms: C_8  and  N_7 
REMARK    5  A    between atoms: C_12  and  C_8 
REMARK    6  A    between atoms: C_9  and  C_12 
ROOT
ATOM      1  C   UNL d   1       4.511  -2.802   0.000  0.00  0.00     0.179 C 
ATOM      2  S   UNL d   1       4.511  -1.985   0.000  0.00  0.00    -0.040 SA
ENDROOT
BRANCH   1   3
ATOM      3  N   UNL d   1       3.803  -3.216   0.000  0.00  0.00    -0.299 N 
ATOM      4  C   UNL d   1       3.107  -2.802   0.000  0.00  0.00     0.259 C 
ATOM      5  O   UNL d   1       3.107  -1.985   0.000  0.00  0.00    -0.267 OA
ATOM      6  H   UNL d   1       3.803  -4.027   0.000  0.00  0.00     0.171 HD
BRANCH   4   7
ATOM      7  C   UNL d   1       2.388  -3.216   0.000  0.00  0.00     0.056 A 
ATOM      8  C   UNL d   1       2.388  -4.027   0.000  0.00  0.00     0.005 A 
ATOM      9  C   UNL d   1       1.680  -4.442   0.000  0.00  0.00     0.000 A 
ATOM     10  C   UNL d   1       0.972  -4.027   0.000  0.00  0.00     0.000 A 
ATOM     11  C   UNL d   1       0.972  -3.216   0.000  0.00  0.00     0.000 A 
ATOM     12  C   UNL d   1       1.680  -2.802   0.000  0.00  0.00     0.005 A 
ENDBRANCH   4   7
ENDBRANCH   1   3
BRANCH   1  13
ATOM     13  N   UNL d   1       5.218  -3.216   0.000  0.00  0.00    -0.330 N 
ATOM     14  H   UNL d   1       5.218  -4.027   0.000  0.00  0.00     0.168 HD
BRANCH  13  15
ATOM     15  C   UNL d   1       5.920  -2.802   0.000  0.00  0.00     0.074 C 
BRANCH  15  16
ATOM     16  C   UNL d   1       6.634  -3.216   0.000  0.00  0.00     0.018 C 
BRANCH  16  17
ATOM     17  C   UNL d   1       7.359  -2.802   0.000  0.00  0.00     0.002 A 
ATOM     18  C   UNL d   1       8.078  -3.216   0.000  0.00  0.00     0.000 A 
ATOM     19  C   UNL d   1       8.791  -2.802   0.000  0.00  0.00     0.000 A 
ATOM     20  C   UNL d   1       8.791  -1.973   0.000  0.00  0.00     0.000 A 
ATOM     21  C   UNL d   1       8.078  -1.559   0.000  0.00  0.00     0.000 A 
ATOM     22  C   UNL d   1       7.359  -1.973   0.000  0.00  0.00     0.000 A 
ENDBRANCH  16  17
ENDBRANCH  15  16
ENDBRANCH  13  15
ENDBRANCH   1  13
TORSDOF 6
