REMARK  4 active torsions:
REMARK  status: ('A' for Active; 'I' for Inactive)
REMARK    1  A    between atoms: C_2  and  C_1 
REMARK    2  A    between atoms: C_16  and  C_4 
REMARK    3  A    between atoms: C_28  and  C_15 
REMARK    4  A    between atoms: N_17  and  C_16 
ROOT
ATOM      1  C   UNL d   1       2.666   0.901   0.000  0.00  0.00     0.098 A 
ATOM      2  C   UNL d   1       0.526   2.159   0.000  0.00  0.00     0.079 A 
ATOM      3  C   UNL d   1       1.228   0.916   0.000  0.00  0.00     0.062 A 
ATOM      4  C   UNL d   1       1.935   0.492   0.000  0.00  0.00     0.202 A 
ATOM      5  C   UNL d   1       1.228   1.749   0.000  0.00  0.00     0.108 A 
ATOM      6  C   UNL d   1       2.666   1.735   0.000  0.00  0.00     0.129 A 
ATOM      7  O   UNL d   1       1.949   2.163   0.000  0.00  0.00    -0.305 OA
ATOM      8  C   UNL d   1      -0.190   1.754   0.000  0.00  0.00     0.199 A 
ATOM      9  C   UNL d   1       0.512   0.507   0.000  0.00  0.00     0.008 A 
ATOM     10  C   UNL d   1      -0.190   0.931   0.000  0.00  0.00     0.039 A 
ATOM     11  O   UNL d   1       1.930  -0.327   0.000  0.00  0.00    -0.286 OA
ATOM     12  O   UNL d   1      -0.901   2.163   0.000  0.00  0.00    -0.286 OA
ENDROOT
BRANCH   1  13
ATOM     13  C   UNL d   1       3.377   0.482   0.000  0.00  0.00     0.153 A 
ATOM     14  N   UNL d   1       4.137   0.814   0.000  0.00  0.00    -0.227 NA
ATOM     15  C   UNL d   1       4.683   0.190   0.000  0.00  0.00     0.099 A 
ATOM     16  C   UNL d   1       5.501   0.190   0.000  0.00  0.00     0.021 A 
ATOM     17  C   UNL d   1       4.269  -0.512   0.000  0.00  0.00     0.083 A 
ATOM     18  C   UNL d   1       5.911  -0.526   0.000  0.00  0.00     0.002 A 
ATOM     19  C   UNL d   1       5.497  -1.233   0.000  0.00  0.00     0.002 A 
ATOM     20  C   UNL d   1       4.663  -1.228   0.000  0.00  0.00     0.019 A 
ATOM     21  N   UNL d   1       3.450  -0.336   0.000  0.00  0.00    -0.288 N 
ATOM     22  C   UNL d   1       2.826  -0.877   0.000  0.00  0.00     0.101 C 
ENDBRANCH   1  13
BRANCH  10  23
ATOM     23  C   UNL d   1      -0.916   0.521   0.000  0.00  0.00     0.003 C 
ATOM     24  C   UNL d   1      -1.632   0.936   0.000  0.00  0.00     0.000 C 
ENDBRANCH  10  23
BRANCH   2  25
ATOM     25  C   UNL d   1       0.526   2.982   0.000  0.00  0.00     0.086 C 
BRANCH  25  26
ATOM     26  N   UNL d   1       1.233   3.392   0.000  0.00  0.00    -0.300 N 
ATOM     27  C   UNL d   1       1.233   4.225   0.000  0.00  0.00     0.100 A 
ATOM     28  C   UNL d   1       1.964   4.634   0.000  0.00  0.00     0.100 A 
ATOM     29  N   UNL d   1       2.675   4.220   0.000  0.00  0.00    -0.299 N 
ATOM     30  C   UNL d   1       2.666   3.387   0.000  0.00  0.00     0.100 A 
ATOM     31  C   UNL d   1       3.396   4.629   0.000  0.00  0.00     0.100 C 
ATOM     32  C   UNL d   1       1.949   2.977   0.000  0.00  0.00     0.100 A 
ENDBRANCH  25  26
ENDBRANCH   2  25
TORSDOF 4
