REMARK  5 active torsions:
REMARK  status: ('A' for Active; 'I' for Inactive)
REMARK    1  A    between atoms: C_6  and  C_1 
REMARK    2  A    between atoms: C_7  and  C_2 
REMARK    3  A    between atoms: O_12  and  C_6 
REMARK    4  A    between atoms: O_14  and  C_11 
REMARK    5  A    between atoms: C_17  and  O_12 
ROOT
ATOM      1  C   UNL d   1       1.547   0.641   0.000  0.00  0.00     0.088 A 
ATOM      2  C   UNL d   1       2.041  -0.020   0.000  0.00  0.00     0.105 A 
ATOM      3  C   UNL d   1       0.764   0.392   0.000  0.00  0.00     0.032 A 
ATOM      4  O   UNL d   1       1.547  -0.690   0.000  0.00  0.00    -0.307 OA
ATOM      5  C   UNL d   1       0.764  -0.431   0.000  0.00  0.00     0.100 A 
ATOM      6  C   UNL d   1       0.059   0.803   0.000  0.00  0.00     0.026 A 
ATOM      7  C   UNL d   1       0.044  -0.842   0.000  0.00  0.00     0.027 A 
ATOM      8  C   UNL d   1      -0.661   0.392   0.000  0.00  0.00     0.094 A 
ATOM      9  C   UNL d   1      -0.661  -0.431   0.000  0.00  0.00     0.026 A 
ENDROOT
BRANCH   2  10
ATOM     10  C   UNL d   1       2.863  -0.034   0.000  0.00  0.00     0.023 A 
ATOM     11  C   UNL d   1       3.275  -0.764   0.000  0.00  0.00     0.002 A 
ATOM     12  C   UNL d   1       4.111  -0.764   0.000  0.00  0.00     0.000 A 
ATOM     13  C   UNL d   1       4.527  -0.034   0.000  0.00  0.00     0.000 A 
ATOM     14  C   UNL d   1       4.111   0.670   0.000  0.00  0.00     0.000 A 
ATOM     15  C   UNL d   1       3.289   0.670   0.000  0.00  0.00     0.002 A 
ENDBRANCH   2  10
BRANCH   1  16
ATOM     16  C   UNL d   1       2.134   1.228   0.000  0.00  0.00     0.302 C 
ATOM     17  O   UNL d   1       1.924   2.021   0.000  0.00  0.00    -0.259 OA
BRANCH  16  18
ATOM     18  O   UNL d   1       2.937   1.023   0.000  0.00  0.00    -0.271 OA
BRANCH  18  19
ATOM     19  C   UNL d   1       3.529   1.610   0.000  0.00  0.00     0.126 C 
ATOM     20  C   UNL d   1       4.332   1.390   0.000  0.00  0.00     0.029 C 
ENDBRANCH  18  19
ENDBRANCH  16  18
ENDBRANCH   1  16
BRANCH   8  21
ATOM     21  O   UNL d   1      -1.375   0.817   0.000  0.00  0.00    -0.328 OA
ATOM     22  C   UNL d   1      -2.110   0.406   0.000  0.00  0.00     0.181 C 
ENDBRANCH   8  21
TORSDOF 5
