REMARK  4 active torsions:
REMARK  status: ('A' for Active; 'I' for Inactive)
REMARK    1  A    between atoms: N_7  and  C_2 
REMARK    2  A    between atoms: C_6  and  C_3 
REMARK    3  A    between atoms: C_16  and  N_7 
REMARK    4  A    between atoms: C_10  and  C_16 
ROOT
ATOM      1  N   UNL d   1      -2.697  -7.395   0.000  0.00  0.00    -0.222 NA
ATOM      2  C   UNL d   1      -3.488  -7.168   0.000  0.00  0.00     0.172 A 
ATOM      3  C   UNL d   1      -2.232  -6.703   0.000  0.00  0.00     0.090 A 
ATOM      4  S   UNL d   1      -3.517  -6.354   0.000  0.00  0.00    -0.048 SA
ATOM      5  C   UNL d   1      -2.750  -6.069   0.000  0.00  0.00     0.057 A 
ENDROOT
BRANCH   3   6
ATOM      6  C   UNL d   1      -1.395  -6.703   0.000  0.00  0.00     0.018 A 
ATOM      7  C   UNL d   1      -0.994  -7.418   0.000  0.00  0.00     0.002 A 
ATOM      8  C   UNL d   1      -0.157  -7.418   0.000  0.00  0.00     0.011 A 
ATOM      9  C   UNL d   1       0.233  -6.703   0.000  0.00  0.00     0.058 A 
ATOM     10  C   UNL d   1      -0.169  -5.982   0.000  0.00  0.00     0.011 A 
ATOM     11 CL   UNL d   1       1.052  -6.703   0.000  0.00  0.00    -0.082 Cl
ATOM     12  C   UNL d   1      -0.994  -5.982   0.000  0.00  0.00     0.002 A 
ENDBRANCH   3   6
BRANCH   2  13
ATOM     13  N   UNL d   1      -4.145  -7.656   0.000  0.00  0.00    -0.332 N 
ATOM     14  H   UNL d   1      -4.046  -8.482   0.000  0.00  0.00     0.168 HD
BRANCH  13  15
ATOM     15  C   UNL d   1      -4.912  -7.331   0.000  0.00  0.00     0.074 C 
BRANCH  15  16
ATOM     16  C   UNL d   1      -5.023  -6.529   0.000  0.00  0.00     0.018 C 
ATOM     17  C   UNL d   1      -5.802  -6.197   0.000  0.00  0.00     0.002 C 
ENDBRANCH  15  16
ENDBRANCH  13  15
ENDBRANCH   2  13
TORSDOF 4
