REMARK  3 active torsions:
REMARK  status: ('A' for Active; 'I' for Inactive)
REMARK    1  A    between atoms: C_2  and  C_1 
REMARK    2  A    between atoms: C_14  and  O_17 
REMARK    3  A    between atoms: O_17  and  C_16 
ROOT
ATOM      1  C   UNL d   1       6.607   0.073   0.000  0.00  0.00     0.087 A 
ATOM      2  C   UNL d   1       5.881  -0.327   0.000  0.00  0.00     0.201 A 
ATOM      3  C   UNL d   1       5.165   0.083   0.000  0.00  0.00     0.062 A 
ATOM      4  C   UNL d   1       6.607   0.901   0.000  0.00  0.00     0.128 A 
ATOM      5  C   UNL d   1       5.165   0.916   0.000  0.00  0.00     0.105 A 
ATOM      6  O   UNL d   1       5.881   1.325   0.000  0.00  0.00    -0.305 OA
ATOM      7  C   UNL d   1       4.449   1.325   0.000  0.00  0.00     0.050 A 
ATOM      8  C   UNL d   1       4.444  -0.312   0.000  0.00  0.00     0.007 A 
ATOM      9  O   UNL d   1       5.867  -1.155   0.000  0.00  0.00    -0.286 OA
ATOM     10  C   UNL d   1       3.742   0.916   0.000  0.00  0.00     0.105 A 
ATOM     11  C   UNL d   1       3.742   0.083   0.000  0.00  0.00     0.025 A 
ENDROOT
BRANCH   1  12
ATOM     12  C   UNL d   1       7.314  -0.336   0.000  0.00  0.00     0.116 A 
ATOM     13  N   UNL d   1       8.069   0.000   0.000  0.00  0.00    -0.238 NA
ATOM     14  C   UNL d   1       8.615  -0.619   0.000  0.00  0.00     0.088 A 
ATOM     15  C   UNL d   1       9.434  -0.619   0.000  0.00  0.00     0.020 A 
ATOM     16  C   UNL d   1       8.206  -1.330   0.000  0.00  0.00     0.049 A 
ATOM     17  C   UNL d   1       9.858  -1.330   0.000  0.00  0.00     0.002 A 
ATOM     18  C   UNL d   1       9.434  -2.047   0.000  0.00  0.00     0.001 A 
ATOM     19  C   UNL d   1       8.615  -2.047   0.000  0.00  0.00     0.008 A 
ATOM     20  S   UNL d   1       7.387  -1.169   0.000  0.00  0.00    -0.066 SA
ENDBRANCH   1  12
BRANCH  10  21
ATOM     21  O   UNL d   1       3.026   1.340   0.000  0.00  0.00    -0.273 OA
BRANCH  21  22
ATOM     22  C   UNL d   1       3.026   2.163   0.000  0.00  0.00     0.300 C 
ATOM     23  O   UNL d   1       2.315   2.583   0.000  0.00  0.00    -0.259 OA
ATOM     24  C   UNL d   1       3.747   2.583   0.000  0.00  0.00     0.074 C 
ENDBRANCH  21  22
ENDBRANCH  10  21
TORSDOF 3
