REMARK  3 active torsions:
REMARK  status: ('A' for Active; 'I' for Inactive)
REMARK    1  A    between atoms: C_4  and  C_1 
REMARK       I    between atoms: N_8  and  C_1 
REMARK    2  A    between atoms: S_14  and  C_2 
REMARK    3  A    between atoms: C_10  and  N_8 
ROOT
ATOM      1  C   UNL d   1      -2.703   0.326   0.000  0.00  0.00     0.136 A 
ATOM      2  N   UNL d   1      -2.643  -0.496   0.000  0.00  0.00    -0.232 NA
ATOM      3  S   UNL d   1      -1.981   0.676   0.000  0.00  0.00    -0.060 SA
ATOM      4  C   UNL d   1      -1.429   0.055   0.000  0.00  0.00     0.051 A 
ATOM      5  C   UNL d   1      -1.843  -0.666   0.000  0.00  0.00     0.089 A 
ATOM      6  C   UNL d   1      -0.607   0.055   0.000  0.00  0.00     0.027 A 
ATOM      7  C   UNL d   1      -0.188  -0.666   0.000  0.00  0.00     0.085 A 
ATOM      8  C   UNL d   1      -1.429  -1.379   0.000  0.00  0.00     0.021 A 
ATOM      9  C   UNL d   1      -0.607  -1.379   0.000  0.00  0.00     0.021 A 
ENDROOT
BRANCH   7  10
ATOM     10  N   UNL d   1       0.648  -0.666   0.000  0.00  0.00    -0.208 NA
ATOM     11  C   UNL d   1       1.048   0.055   0.000  0.00  0.00     0.283 C 
ATOM     12  O   UNL d   1       0.648   0.767   0.000  0.00  0.00    -0.265 OA
BRANCH  11  13
ATOM     13  C   UNL d   1       1.880   0.055   0.000  0.00  0.00     0.113 A 
ATOM     14  C   UNL d   1       2.280  -0.666   0.000  0.00  0.00     0.147 A 
ATOM     15  F   UNL d   1       1.861  -1.397   0.000  0.00  0.00    -0.204 F 
ATOM     16  C   UNL d   1       3.121  -0.666   0.000  0.00  0.00     0.030 A 
ATOM     17  C   UNL d   1       3.516   0.055   0.000  0.00  0.00     0.005 A 
ATOM     18  C   UNL d   1       3.121   0.767   0.000  0.00  0.00     0.030 A 
ATOM     19  C   UNL d   1       2.280   0.767   0.000  0.00  0.00     0.147 A 
ATOM     20  F   UNL d   1       1.861   1.489   0.000  0.00  0.00    -0.204 F 
ENDBRANCH  11  13
ENDBRANCH   7  10
BRANCH   1  21
ATOM     21  S   UNL d   1      -3.415   0.731   0.000  0.00  0.00    -0.087 SA
ATOM     22  C   UNL d   1      -3.415   1.544   0.000  0.00  0.00     0.076 C 
ENDBRANCH   1  21
TORSDOF 3
