REMARK  4 active torsions:
REMARK  status: ('A' for Active; 'I' for Inactive)
REMARK    1  A    between atoms: C_2  and  C_1 
REMARK    2  A    between atoms: C_3  and  C_1 
REMARK       I    between atoms: N_6  and  C_2 
REMARK    3  A    between atoms: C_13  and  C_3 
REMARK    4  A    between atoms: C_8  and  N_6 
ROOT
ATOM      1  C   UNL d   1      -0.966   0.606   0.000  0.00  0.00     0.282 C 
ATOM      2  N   UNL d   1      -0.940  -0.251   0.000  0.00  0.00    -0.208 NA
ATOM      3  O   UNL d   1      -1.692   1.002   0.000  0.00  0.00    -0.265 OA
ENDROOT
BRANCH   1   4
ATOM      4  C   UNL d   1      -0.266   1.028   0.000  0.00  0.00     0.104 C 
BRANCH   4   5
ATOM      5  C   UNL d   1      -0.292   1.859   0.000  0.00  0.00     0.200 C 
ATOM      6  O   UNL d   1      -1.018   2.255   0.000  0.00  0.00    -0.286 OA
BRANCH   5   7
ATOM      7  C   UNL d   1       0.412   2.281   0.000  0.00  0.00     0.039 A 
ATOM      8  C   UNL d   1       1.133   1.879   0.000  0.00  0.00     0.003 A 
ATOM      9  C   UNL d   1       1.838   2.313   0.000  0.00  0.00     0.000 A 
ATOM     10  C   UNL d   1       1.817   3.132   0.000  0.00  0.00     0.000 A 
ATOM     11  C   UNL d   1       1.086   3.534   0.000  0.00  0.00     0.000 A 
ATOM     12  C   UNL d   1       0.381   3.111   0.000  0.00  0.00     0.003 A 
ENDBRANCH   5   7
ENDBRANCH   4   5
ENDBRANCH   1   4
BRANCH   2  13
ATOM     13  C   UNL d   1      -1.671  -0.673   0.000  0.00  0.00     0.087 A 
ATOM     14  C   UNL d   1      -2.375  -0.272   0.000  0.00  0.00     0.046 A 
ATOM     15  C   UNL d   1      -3.070  -0.673   0.000  0.00  0.00     0.124 A 
ATOM     16  O   UNL d   1      -3.801  -0.272   0.000  0.00  0.00    -0.301 OA
ATOM     17  C   UNL d   1      -3.070  -1.504   0.000  0.00  0.00     0.123 A 
ATOM     18  C   UNL d   1      -4.505  -0.673   0.000  0.00  0.00     0.149 A 
ATOM     19  C   UNL d   1      -4.505  -1.504   0.000  0.00  0.00     0.149 A 
ATOM     20  O   UNL d   1      -3.801  -1.926   0.000  0.00  0.00    -0.301 OA
ATOM     21  C   UNL d   1      -2.375  -1.926   0.000  0.00  0.00     0.028 A 
ATOM     22  C   UNL d   1      -1.671  -1.504   0.000  0.00  0.00     0.021 A 
ENDBRANCH   2  13
TORSDOF 4
