REMARK  2 active torsions:
REMARK  status: ('A' for Active; 'I' for Inactive)
REMARK    1  A    between atoms: C_6  and  C_1 
REMARK    2  A    between atoms: C_11  and  C_6 
ROOT
ATOM      1  C   UNL d   1       1.058   0.722   0.000  0.00  0.00     0.059 A 
ATOM      2  C   UNL d   1       1.295  -0.066   0.000  0.00  0.00     0.085 A 
ATOM      3  N   UNL d   1       0.634  -0.568   0.000  0.00  0.00    -0.245 NA
ATOM      4  C   UNL d   1       0.221   0.722   0.000  0.00  0.00     0.022 A 
ATOM      5  C   UNL d   1      -0.044  -0.066   0.000  0.00  0.00     0.082 A 
ATOM      6  C   UNL d   1       2.089  -0.270   0.000  0.00  0.00     0.021 C 
ATOM      7  C   UNL d   1      -0.325   1.339   0.000  0.00  0.00     0.002 A 
ATOM      8  C   UNL d   1      -0.854  -0.237   0.000  0.00  0.00     0.019 A 
ATOM      9  C   UNL d   1      -1.141   1.152   0.000  0.00  0.00     0.000 A 
ATOM     10  C   UNL d   1      -1.389   0.391   0.000  0.00  0.00     0.002 A 
ENDROOT
BRANCH   1  11
ATOM     11  C   UNL d   1       1.560   1.383   0.000  0.00  0.00     0.208 C 
ATOM     12  O   UNL d   1       1.257   2.144   0.000  0.00  0.00    -0.286 OA
BRANCH  11  13
ATOM     13  C   UNL d   1       2.364   1.273   0.000  0.00  0.00     0.110 C 
ATOM     14 CL   UNL d   1       2.849   1.918   0.000  0.00  0.00    -0.078 Cl
ENDBRANCH  11  13
ENDBRANCH   1  11
TORSDOF 2
