REMARK  3 active torsions:
REMARK  status: ('A' for Active; 'I' for Inactive)
REMARK    1  A    between atoms: N_2  and  C_1 
REMARK    2  A    between atoms: C_6  and  C_5 
REMARK       I    between atoms: N_13  and  C_6 
REMARK    3  A    between atoms: C_17  and  N_13 
ROOT
ATOM      1  C   UNL d   1      -0.292  -1.467   0.000  0.00  0.00     0.285 C 
ATOM      2  N   UNL d   1      -0.664  -0.693   0.000  0.00  0.00    -0.208 NA
ATOM      3  O   UNL d   1      -0.705  -2.154   0.000  0.00  0.00    -0.265 OA
ENDROOT
BRANCH   2   4
ATOM      4  C   UNL d   1      -1.530  -0.693   0.000  0.00  0.00     0.086 A 
ATOM      5  C   UNL d   1      -1.942  -1.415   0.000  0.00  0.00     0.039 A 
ATOM      6  C   UNL d   1      -2.767  -1.415   0.000  0.00  0.00     0.089 A 
ATOM      7  N   UNL d   1      -3.317  -2.017   0.000  0.00  0.00    -0.238 NA
ATOM      8  C   UNL d   1      -3.180  -0.693   0.000  0.00  0.00     0.049 A 
ATOM      9  C   UNL d   1      -4.056  -1.690   0.000  0.00  0.00     0.111 A 
ATOM     10  C   UNL d   1      -4.772  -2.103   0.000  0.00  0.00     0.028 C 
ATOM     11  S   UNL d   1      -3.982  -0.894   0.000  0.00  0.00    -0.066 SA
ATOM     12  C   UNL d   1      -2.767   0.017   0.000  0.00  0.00     0.010 A 
ATOM     13  C   UNL d   1      -1.942   0.017   0.000  0.00  0.00     0.020 A 
ENDBRANCH   2   4
BRANCH   1  14
ATOM     14  C   UNL d   1       0.521  -1.553   0.000  0.00  0.00     0.089 A 
ATOM     15  S   UNL d   1       0.899  -2.269   0.000  0.00  0.00    -0.059 SA
ATOM     16  C   UNL d   1       1.724  -2.086   0.000  0.00  0.00     0.156 A 
ATOM     17  C   UNL d   1       1.828  -1.306   0.000  0.00  0.00     0.031 A 
ATOM     18  C   UNL d   1       1.083  -0.945   0.000  0.00  0.00     0.014 A 
BRANCH  16  19
ATOM     19  N   UNL d   1       2.343  -2.612   0.000  0.00  0.00    -0.107 N 
ATOM     20  O   UNL d   1       2.292  -3.443   0.000  0.00  0.00    -0.531 OA
ATOM     21  O   UNL d   1       3.134  -2.389   0.000  0.00  0.00    -0.531 OA
ENDBRANCH  16  19
ENDBRANCH   1  14
TORSDOF 3
