REMARK  4 active torsions:
REMARK  status: ('A' for Active; 'I' for Inactive)
REMARK    1  A    between atoms: N_8  and  C_2 
REMARK    2  A    between atoms: C_9  and  C_3 
REMARK       I    between atoms: C_6  and  N_7 
REMARK    3  A    between atoms: C_11  and  C_6 
REMARK    4  A    between atoms: N_7  and  N_8 
ROOT
ATOM      1  N   UNL d   1      -0.348  -3.413   0.000  0.00  0.00    -0.221 NA
ATOM      2  C   UNL d   1      -1.004  -2.931   0.000  0.00  0.00     0.186 A 
ATOM      3  C   UNL d   1       0.302  -2.931   0.000  0.00  0.00     0.090 A 
ATOM      4  S   UNL d   1      -0.760  -2.159   0.000  0.00  0.00    -0.047 SA
ATOM      5  C   UNL d   1       0.052  -2.159   0.000  0.00  0.00     0.058 A 
ENDROOT
BRANCH   2   6
ATOM      6  N   UNL d   1      -1.805  -3.187   0.000  0.00  0.00    -0.275 N 
ATOM      7  H   UNL d   1      -1.968  -3.994   0.000  0.00  0.00     0.189 HD
BRANCH   6   8
ATOM      8  N   UNL d   1      -2.415  -2.630   0.000  0.00  0.00    -0.264 N 
ATOM      9  C   UNL d   1      -3.198  -2.897   0.000  0.00  0.00     0.271 C 
ATOM     10  O   UNL d   1      -3.808  -2.339   0.000  0.00  0.00    -0.266 OA
ATOM     11  H   UNL d   1      -2.229  -1.834   0.000  0.00  0.00     0.190 HD
BRANCH   9  12
ATOM     12  C   UNL d   1      -3.372  -3.692   0.000  0.00  0.00     0.057 A 
ATOM     13  C   UNL d   1      -4.173  -3.906   0.000  0.00  0.00     0.005 A 
ATOM     14  C   UNL d   1      -4.382  -4.707   0.000  0.00  0.00     0.000 A 
ATOM     15  C   UNL d   1      -3.808  -5.294   0.000  0.00  0.00     0.000 A 
ATOM     16  C   UNL d   1      -2.995  -5.067   0.000  0.00  0.00     0.000 A 
ATOM     17  C   UNL d   1      -2.786  -4.272   0.000  0.00  0.00     0.005 A 
ENDBRANCH   9  12
ENDBRANCH   6   8
ENDBRANCH   2   6
BRANCH   3  18
ATOM     18  C   UNL d   1       1.085  -3.187   0.000  0.00  0.00     0.018 A 
ATOM     19  C   UNL d   1       1.695  -2.630   0.000  0.00  0.00     0.002 A 
ATOM     20  C   UNL d   1       2.479  -2.879   0.000  0.00  0.00     0.000 A 
ATOM     21  C   UNL d   1       2.653  -3.692   0.000  0.00  0.00     0.000 A 
ATOM     22  C   UNL d   1       2.043  -4.249   0.000  0.00  0.00     0.000 A 
ATOM     23  C   UNL d   1       3.436  -3.953   0.000  0.00  0.00     0.000 C 
ATOM     24  C   UNL d   1       1.254  -3.994   0.000  0.00  0.00     0.002 A 
ENDBRANCH   3  18
TORSDOF 4
