REMARK  3 active torsions:
REMARK  status: ('A' for Active; 'I' for Inactive)
REMARK    1  A    between atoms: C_6  and  C_1 
REMARK    2  A    between atoms: C_7  and  C_2 
REMARK    3  A    between atoms: O_14  and  C_12 
ROOT
ATOM      1  C   UNL d   1      -2.501   1.827   0.000  0.00  0.00     0.084 A 
ATOM      2  C   UNL d   1      -2.017   1.159   0.000  0.00  0.00     0.105 A 
ATOM      3  C   UNL d   1      -3.282   1.571   0.000  0.00  0.00     0.031 A 
ATOM      4  O   UNL d   1      -2.501   0.490   0.000  0.00  0.00    -0.307 OA
ATOM      5  C   UNL d   1      -3.282   0.751   0.000  0.00  0.00     0.100 A 
ATOM      6  C   UNL d   1      -3.994   1.978   0.000  0.00  0.00     0.026 A 
ATOM      7  C   UNL d   1      -3.994   0.330   0.000  0.00  0.00     0.027 A 
ATOM      8  C   UNL d   1      -4.712   1.571   0.000  0.00  0.00     0.094 A 
ATOM      9  C   UNL d   1      -4.712   0.737   0.000  0.00  0.00     0.026 A 
ENDROOT
BRANCH   2  10
ATOM     10  C   UNL d   1      -1.188   1.163   0.000  0.00  0.00     0.023 A 
ATOM     11  C   UNL d   1      -0.780   0.446   0.000  0.00  0.00     0.002 A 
ATOM     12  C   UNL d   1       0.034   0.446   0.000  0.00  0.00     0.000 A 
ATOM     13  C   UNL d   1       0.441   1.163   0.000  0.00  0.00     0.000 A 
ATOM     14  C   UNL d   1       0.019   1.876   0.000  0.00  0.00     0.000 A 
ATOM     15  C   UNL d   1      -0.780   1.876   0.000  0.00  0.00     0.002 A 
ENDBRANCH   2  10
BRANCH   1  16
ATOM     16  C   UNL d   1      -2.249   2.613   0.000  0.00  0.00     0.299 C 
ATOM     17  O   UNL d   1      -1.449   2.787   0.000  0.00  0.00    -0.264 OA
ATOM     18  N   UNL d   1      -2.792   3.224   0.000  0.00  0.00    -0.102 N 
ENDBRANCH   1  16
BRANCH   8  19
ATOM     19  O   UNL d   1      -5.425   1.978   0.000  0.00  0.00    -0.328 OA
ATOM     20  C   UNL d   1      -5.425   2.807   0.000  0.00  0.00     0.181 C 
ENDBRANCH   8  19
TORSDOF 3
