REMARK  6 active torsions:
REMARK  status: ('A' for Active; 'I' for Inactive)
REMARK       I    between atoms: C_2  and  N_1 
REMARK    1  A    between atoms: C_3  and  N_1 
REMARK    2  A    between atoms: C_8  and  C_2 
REMARK    3  A    between atoms: C_4  and  C_9 
REMARK    4  A    between atoms: O_10  and  C_4 
REMARK    5  A    between atoms: O_11  and  C_5 
REMARK    6  A    between atoms: C_9  and  C_8 
ROOT
ATOM      1  N   UNL d   1       5.139   1.323   0.000  0.00  0.00    -0.320 N 
ATOM      2  C   UNL d   1       5.981   1.323   0.000  0.00  0.00     0.258 C 
ATOM      3  O   UNL d   1       6.394   0.613   0.000  0.00  0.00    -0.267 OA
ATOM      4  H   UNL d   1       4.727   0.613   0.000  0.00  0.00     0.169 HD
ENDROOT
BRANCH   1   5
ATOM      5  C   UNL d   1       4.727   2.057   0.000  0.00  0.00     0.082 A 
ATOM      6  C   UNL d   1       3.890   2.057   0.000  0.00  0.00     0.110 A 
ATOM      7  C   UNL d   1       3.478   2.779   0.000  0.00  0.00     0.026 A 
ATOM      8  C   UNL d   1       3.890   3.483   0.000  0.00  0.00     0.002 A 
ATOM      9  C   UNL d   1       4.715   3.483   0.000  0.00  0.00     0.002 A 
ATOM     10  C   UNL d   1       5.128   2.779   0.000  0.00  0.00     0.019 A 
BRANCH   6  11
ATOM     11  O   UNL d   1       3.478   1.335   0.000  0.00  0.00    -0.327 OA
ATOM     12  C   UNL d   1       2.653   1.335   0.000  0.00  0.00     0.181 C 
ENDBRANCH   6  11
ENDBRANCH   1   5
BRANCH   2  13
ATOM     13  C   UNL d   1       6.394   2.039   0.000  0.00  0.00     0.067 C 
BRANCH  13  14
ATOM     14  C   UNL d   1       7.219   2.039   0.000  0.00  0.00     0.072 C 
BRANCH  14  15
ATOM     15  C   UNL d   1       7.631   2.750   0.000  0.00  0.00     0.178 C 
ATOM     16  O   UNL d   1       8.456   2.750   0.000  0.00  0.00    -0.646 OA
BRANCH  15  17
ATOM     17  O   UNL d   1       7.224   3.466   0.000  0.00  0.00    -0.773 OA
ATOM     18  H   UNL d   1       6.399   3.466   0.000  0.00  0.00     0.167 HD
ENDBRANCH  15  17
ENDBRANCH  14  15
ENDBRANCH  13  14
ENDBRANCH   2  13
TORSDOF 6
