REMARK  2 active torsions:
REMARK  status: ('A' for Active; 'I' for Inactive)
REMARK    1  A    between atoms: C_2  and  P_1 
REMARK    2  A    between atoms: C_7  and  C_2 
ROOT
ATOM      1  C   UNL d   1      -0.666   0.011   0.000  0.00  0.00     0.194 C 
ATOM      2  N   UNL d   1      -0.087   0.608   0.000  0.00  0.00    -0.138 N 
ENDROOT
BRANCH   1   3
ATOM      3  P   UNL d   1      -1.470   0.236   0.000  0.00  0.00     0.317 P 
ATOM      4  O   UNL d   1      -2.256   0.448   0.000  0.00  0.00    -0.635 OA
ATOM      5  O   UNL d   1      -1.677  -0.582   0.000  0.00  0.00    -0.635 OA
ATOM      6  O   UNL d   1      -1.262   1.044   0.000  0.00  0.00    -0.635 OA
ENDBRANCH   1   3
BRANCH   1   7
ATOM      7  C   UNL d   1      -0.448  -0.786   0.000  0.00  0.00     0.029 C 
ATOM      8  C   UNL d   1      -1.022  -1.368   0.000  0.00  0.00     0.002 C 
ATOM      9  C   UNL d   1       0.353  -0.986   0.000  0.00  0.00     0.002 C 
ENDBRANCH   1   7
TORSDOF 2
