REMARK  5 active torsions:
REMARK  status: ('A' for Active; 'I' for Inactive)
REMARK       I    between atoms: C_2  and  N_1 
REMARK    1  A    between atoms: C_3  and  N_1 
REMARK    2  A    between atoms: C_7  and  C_2 
REMARK    3  A    between atoms: N_5  and  C_3 
REMARK    4  A    between atoms: C_8  and  N_5 
REMARK    5  A    between atoms: C_9  and  C_8 
ROOT
ATOM      1  C   UNL d   1      -0.953  -5.881   0.000  0.00  0.00     0.179 C 
ATOM      2  S   UNL d   1      -0.535  -5.160   0.000  0.00  0.00    -0.040 SA
ENDROOT
BRANCH   1   3
ATOM      3  N   UNL d   1      -1.772  -5.881   0.000  0.00  0.00    -0.299 N 
ATOM      4  C   UNL d   1      -2.191  -5.160   0.000  0.00  0.00     0.259 C 
ATOM      5  O   UNL d   1      -1.772  -4.446   0.000  0.00  0.00    -0.267 OA
ATOM      6  H   UNL d   1      -2.179  -6.596   0.000  0.00  0.00     0.171 HD
BRANCH   4   7
ATOM      7  C   UNL d   1      -3.016  -5.166   0.000  0.00  0.00     0.056 A 
ATOM      8  C   UNL d   1      -3.417  -5.881   0.000  0.00  0.00     0.005 A 
ATOM      9  C   UNL d   1      -4.248  -5.881   0.000  0.00  0.00     0.000 A 
ATOM     10  C   UNL d   1      -4.667  -5.166   0.000  0.00  0.00     0.000 A 
ATOM     11  C   UNL d   1      -4.254  -4.446   0.000  0.00  0.00     0.000 A 
ATOM     12  C   UNL d   1      -3.417  -4.446   0.000  0.00  0.00     0.005 A 
ENDBRANCH   4   7
ENDBRANCH   1   3
BRANCH   1  13
ATOM     13  N   UNL d   1      -0.535  -6.596   0.000  0.00  0.00    -0.330 N 
ATOM     14  H   UNL d   1      -0.953  -7.305   0.000  0.00  0.00     0.168 HD
BRANCH  13  15
ATOM     15  C   UNL d   1       0.279  -6.596   0.000  0.00  0.00     0.074 C 
BRANCH  15  16
ATOM     16  C   UNL d   1       0.697  -5.864   0.000  0.00  0.00     0.017 A 
ATOM     17  C   UNL d   1       1.517  -5.864   0.000  0.00  0.00     0.002 A 
ATOM     18  C   UNL d   1       1.924  -5.160   0.000  0.00  0.00     0.000 A 
ATOM     19  C   UNL d   1       1.517  -4.446   0.000  0.00  0.00     0.000 A 
ATOM     20  C   UNL d   1       0.680  -4.446   0.000  0.00  0.00     0.000 A 
ATOM     21  C   UNL d   1       0.279  -5.160   0.000  0.00  0.00     0.002 A 
ENDBRANCH  15  16
ENDBRANCH  13  15
ENDBRANCH   1  13
TORSDOF 5
