REMARK  5 active torsions:
REMARK  status: ('A' for Active; 'I' for Inactive)
REMARK    1  A    between atoms: C_6  and  C_1 
REMARK    2  A    between atoms: C_3  and  C_5 
REMARK    3  A    between atoms: C_5  and  C_6 
REMARK    4  A    between atoms: C_17  and  C_13 
REMARK    5  A    between atoms: C_20  and  C_17 
ROOT
ATOM      1  C   UNL d   1       5.881  -0.327   0.000  0.00  0.00     0.201 C 
ATOM      2  O   UNL d   1       5.867  -1.155   0.000  0.00  0.00    -0.286 OA
ENDROOT
BRANCH   1   3
ATOM      3  C   UNL d   1       5.165   0.083   0.000  0.00  0.00     0.078 A 
ATOM      4  C   UNL d   1       5.165   0.916   0.000  0.00  0.00     0.202 A 
ATOM      5  C   UNL d   1       4.449   1.325   0.000  0.00  0.00     0.084 A 
ATOM      6  O   UNL d   1       5.881   1.325   0.000  0.00  0.00    -0.286 OA
ATOM      7  C   UNL d   1       3.742   0.916   0.000  0.00  0.00     0.199 A 
ATOM      8  C   UNL d   1       3.742   0.083   0.000  0.00  0.00     0.039 A 
ATOM      9  O   UNL d   1       3.026   1.340   0.000  0.00  0.00    -0.286 OA
ATOM     10  C   UNL d   1       4.444  -0.312   0.000  0.00  0.00     0.010 A 
BRANCH   8  11
ATOM     11  C   UNL d   1       3.016  -0.312   0.000  0.00  0.00     0.003 C 
BRANCH  11  12
ATOM     12  C   UNL d   1       2.300   0.097   0.000  0.00  0.00     0.000 C 
ATOM     13  C   UNL d   1       1.579  -0.297   0.000  0.00  0.00     0.000 C 
ENDBRANCH  11  12
ENDBRANCH   8  11
ENDBRANCH   1   3
BRANCH   1  14
ATOM     14  C   UNL d   1       6.607   0.073   0.000  0.00  0.00     0.068 C 
BRANCH  14  15
ATOM     15  C   UNL d   1       7.314  -0.336   0.000  0.00  0.00     0.114 A 
ATOM     16  N   UNL d   1       8.069   0.000   0.000  0.00  0.00    -0.238 NA
ATOM     17  C   UNL d   1       8.615  -0.619   0.000  0.00  0.00     0.088 A 
ATOM     18  C   UNL d   1       9.434  -0.619   0.000  0.00  0.00     0.020 A 
ATOM     19  C   UNL d   1       8.206  -1.330   0.000  0.00  0.00     0.049 A 
ATOM     20  C   UNL d   1       9.858  -1.330   0.000  0.00  0.00     0.002 A 
ATOM     21  C   UNL d   1       9.434  -2.047   0.000  0.00  0.00     0.001 A 
ATOM     22  C   UNL d   1       8.615  -2.047   0.000  0.00  0.00     0.008 A 
ATOM     23  S   UNL d   1       7.387  -1.169   0.000  0.00  0.00    -0.066 SA
ENDBRANCH  14  15
ENDBRANCH   1  14
TORSDOF 5
