REMARK  6 active torsions:
REMARK  status: ('A' for Active; 'I' for Inactive)
REMARK    1  A    between atoms: C_7  and  C_1 
REMARK    2  A    between atoms: C_10  and  C_2 
REMARK    3  A    between atoms: C_9  and  C_5 
REMARK    4  A    between atoms: O_15  and  C_7 
REMARK    5  A    between atoms: N_14  and  C_9 
REMARK    6  A    between atoms: C_21  and  O_15 
ROOT
ATOM      1  C   UNL d   1       2.852  -0.788   0.000  0.00  0.00     0.088 A 
ATOM      2  C   UNL d   1       3.337  -1.455   0.000  0.00  0.00     0.105 A 
ATOM      3  C   UNL d   1       2.081  -1.045   0.000  0.00  0.00     0.034 A 
ATOM      4  O   UNL d   1       2.840  -2.106   0.000  0.00  0.00    -0.307 OA
ATOM      5  C   UNL d   1       1.360  -0.634   0.000  0.00  0.00     0.059 A 
ATOM      6  C   UNL d   1       2.056  -1.857   0.000  0.00  0.00     0.100 A 
ATOM      7  C   UNL d   1       0.651  -1.024   0.000  0.00  0.00     0.197 A 
ATOM      8  C   UNL d   1       1.355  -2.268   0.000  0.00  0.00     0.028 A 
ATOM      9  C   UNL d   1       0.638  -1.857   0.000  0.00  0.00     0.044 A 
ATOM     10  O   UNL d   1      -0.070  -0.609   0.000  0.00  0.00    -0.286 OA
ENDROOT
BRANCH   2  11
ATOM     11  C   UNL d   1       4.158  -1.455   0.000  0.00  0.00     0.023 A 
ATOM     12  C   UNL d   1       4.568  -2.180   0.000  0.00  0.00     0.002 A 
ATOM     13  C   UNL d   1       5.402  -2.193   0.000  0.00  0.00     0.000 A 
ATOM     14  C   UNL d   1       5.808  -1.472   0.000  0.00  0.00     0.000 A 
ATOM     15  C   UNL d   1       5.402  -0.759   0.000  0.00  0.00     0.000 A 
ATOM     16  C   UNL d   1       4.581  -0.750   0.000  0.00  0.00     0.002 A 
ENDBRANCH   2  11
BRANCH   1  17
ATOM     17  C   UNL d   1       3.437  -0.203   0.000  0.00  0.00     0.302 C 
ATOM     18  O   UNL d   1       3.221   0.593   0.000  0.00  0.00    -0.259 OA
BRANCH  17  19
ATOM     19  O   UNL d   1       4.232  -0.402   0.000  0.00  0.00    -0.271 OA
BRANCH  19  20
ATOM     20  C   UNL d   1       4.817   0.174   0.000  0.00  0.00     0.126 C 
ATOM     21  C   UNL d   1       5.621  -0.029   0.000  0.00  0.00     0.029 C 
ENDBRANCH  19  20
ENDBRANCH  17  19
ENDBRANCH   1  17
BRANCH   5  22
ATOM     22  C   UNL d   1       1.360   0.195   0.000  0.00  0.00     0.084 C 
BRANCH  22  23
ATOM     23  N   UNL d   1       0.651   0.618   0.000  0.00  0.00    -0.300 N 
ATOM     24  C   UNL d   1      -0.058   0.207   0.000  0.00  0.00     0.100 C 
ATOM     25  C   UNL d   1       0.651   1.430   0.000  0.00  0.00     0.100 C 
ENDBRANCH  22  23
ENDBRANCH   5  22
TORSDOF 6
