REMARK  1 active torsions:
REMARK  status: ('A' for Active; 'I' for Inactive)
REMARK    1  A    between atoms: N_4  and  C_1 
ROOT
ATOM      1  C   UNL d   1       0.447   0.857   0.000  0.00  0.00     0.735 A 
ATOM      2  N   UNL d   1      -0.064   0.192   0.000  0.00  0.00    -0.059 NA
ATOM      3  N   UNL d   1      -0.064   1.528   0.000  0.00  0.00    -0.059 NA
ATOM      4  C   UNL d   1      -0.831   0.447   0.000  0.00  0.00     0.118 A 
ATOM      5  C   UNL d   1      -0.831   1.273   0.000  0.00  0.00     0.118 A 
ATOM      6  C   UNL d   1      -1.550   0.016   0.000  0.00  0.00     0.021 A 
ATOM      7  C   UNL d   1      -1.550   1.677   0.000  0.00  0.00     0.021 A 
ATOM      8  C   UNL d   1      -2.263   0.447   0.000  0.00  0.00     0.002 A 
ATOM      9  C   UNL d   1      -2.263   1.273   0.000  0.00  0.00     0.002 A 
ENDROOT
BRANCH   1  10
ATOM     10  N   UNL d   1       1.262   0.809   0.000  0.00  0.00    -0.133 N 
ATOM     11  C   UNL d   1       1.853   1.342   0.000  0.00  0.00     0.125 A 
ATOM     12  C   UNL d   1       2.641   1.113   0.000  0.00  0.00     0.142 A 
ATOM     13  O   UNL d   1       2.849   0.320   0.000  0.00  0.00    -0.300 OA
ATOM     14  C   UNL d   1       2.210  -0.261   0.000  0.00  0.00     0.142 A 
ATOM     15  C   UNL d   1       1.443  -0.005   0.000  0.00  0.00     0.125 A 
ENDBRANCH   1  10
TORSDOF 1
