REMARK  4 active torsions:
REMARK  status: ('A' for Active; 'I' for Inactive)
REMARK    1  A    between atoms: C_6  and  C_1 
REMARK    2  A    between atoms: C_3  and  C_5 
REMARK    3  A    between atoms: C_5  and  C_6 
REMARK    4  A    between atoms: C_17  and  C_13 
ROOT
ATOM      1  C   UNL d   1      -2.140   1.038   0.000  0.00  0.00     0.202 C 
ATOM      2  O   UNL d   1      -2.155   0.201   0.000  0.00  0.00    -0.286 OA
ENDROOT
BRANCH   1   3
ATOM      3  C   UNL d   1      -2.875   1.450   0.000  0.00  0.00     0.078 A 
ATOM      4  C   UNL d   1      -2.860   2.302   0.000  0.00  0.00     0.202 A 
ATOM      5  C   UNL d   1      -3.580   2.704   0.000  0.00  0.00     0.084 A 
ATOM      6  O   UNL d   1      -2.140   2.704   0.000  0.00  0.00    -0.286 OA
ATOM      7  C   UNL d   1      -4.291   2.302   0.000  0.00  0.00     0.199 A 
ATOM      8  C   UNL d   1      -4.305   1.464   0.000  0.00  0.00     0.039 A 
ATOM      9  O   UNL d   1      -5.021   2.704   0.000  0.00  0.00    -0.286 OA
ATOM     10  C   UNL d   1      -3.585   1.038   0.000  0.00  0.00     0.010 A 
BRANCH   8  11
ATOM     11  C   UNL d   1      -5.021   1.053   0.000  0.00  0.00     0.003 C 
ATOM     12  C   UNL d   1      -5.755   1.469   0.000  0.00  0.00     0.000 C 
ENDBRANCH   8  11
ENDBRANCH   1   3
BRANCH   1  13
ATOM     13  C   UNL d   1      -1.425   1.450   0.000  0.00  0.00     0.081 C 
BRANCH  13  14
ATOM     14  C   UNL d   1      -0.705   1.024   0.000  0.00  0.00     0.166 A 
ATOM     15  N   UNL d   1       0.044   1.352   0.000  0.00  0.00    -0.225 NA
ATOM     16  C   UNL d   1       0.593   0.730   0.000  0.00  0.00     0.101 A 
ATOM     17  C   UNL d   1       1.416   0.730   0.000  0.00  0.00     0.021 A 
ATOM     18  C   UNL d   1       0.176   0.025   0.000  0.00  0.00     0.101 A 
ATOM     19  C   UNL d   1       1.842   0.025   0.000  0.00  0.00     0.002 A 
ATOM     20  C   UNL d   1       1.416  -0.691   0.000  0.00  0.00     0.002 A 
ATOM     21  C   UNL d   1       0.588  -0.691   0.000  0.00  0.00     0.021 A 
ATOM     22  N   UNL d   1      -0.627   0.191   0.000  0.00  0.00    -0.225 NA
ENDBRANCH  13  14
ENDBRANCH   1  13
TORSDOF 4
