REMARK  8 active torsions:
REMARK  status: ('A' for Active; 'I' for Inactive)
REMARK    1  A    between atoms: C_2  and  P_1 
REMARK    2  A    between atoms: O_5  and  P_1 
REMARK    3  A    between atoms: O_6  and  P_1 
REMARK    4  A    between atoms: N_3  and  C_2 
REMARK       I    between atoms: C_4  and  N_3 
REMARK    5  A    between atoms: C_9  and  C_4 
REMARK    6  A    between atoms: C_12  and  O_5 
REMARK    7  A    between atoms: C_11  and  O_6 
REMARK    8  A    between atoms: C_10  and  C_9 
ROOT
ATOM      1  C   UNL d   1       1.454  -1.204   0.000  0.00  0.00     0.165 C 
ATOM      2  C   UNL d   1       0.642  -1.350   0.000  0.00  0.00     0.029 C 
ENDROOT
BRANCH   1   3
ATOM      3  P   UNL d   1       1.742  -0.429   0.000  0.00  0.00     0.392 P 
ATOM      4  O   UNL d   1       0.942  -0.142   0.000  0.00  0.00    -0.251 OA
BRANCH   3   5
ATOM      5  O   UNL d   1       2.026   0.371   0.000  0.00  0.00    -0.265 OA
BRANCH   5   6
ATOM      6  C   UNL d   1       1.492   1.000   0.000  0.00  0.00     0.103 C 
ATOM      7  C   UNL d   1       1.767   1.771   0.000  0.00  0.00     0.027 C 
ATOM      8  C   UNL d   1       0.679   0.871   0.000  0.00  0.00     0.027 C 
ENDBRANCH   5   6
ENDBRANCH   3   5
BRANCH   3   9
ATOM      9  O   UNL d   1       2.517  -0.717   0.000  0.00  0.00    -0.265 OA
BRANCH   9  10
ATOM     10  C   UNL d   1       3.151  -0.192   0.000  0.00  0.00     0.103 C 
ATOM     11  C   UNL d   1       3.913  -0.475   0.000  0.00  0.00     0.027 C 
ATOM     12  C   UNL d   1       3.017   0.600   0.000  0.00  0.00     0.027 C 
ENDBRANCH   9  10
ENDBRANCH   3   9
ENDBRANCH   1   3
BRANCH   1  13
ATOM     13  N   UNL d   1       1.980  -1.838   0.000  0.00  0.00    -0.200 NA
ATOM     14  C   UNL d   1       2.801  -1.692   0.000  0.00  0.00     0.280 C 
ATOM     15  O   UNL d   1       3.088  -0.917   0.000  0.00  0.00    -0.265 OA
BRANCH  14  16
ATOM     16  C   UNL d   1       3.330  -2.351   0.000  0.00  0.00     0.062 C 
BRANCH  16  17
ATOM     17  C   UNL d   1       4.168  -2.188   0.000  0.00  0.00     0.005 A 
ATOM     18  C   UNL d   1       4.418  -1.392   0.000  0.00  0.00     0.000 A 
ATOM     19  C   UNL d   1       5.230  -1.204   0.000  0.00  0.00     0.000 A 
ATOM     20  C   UNL d   1       5.781  -1.817   0.000  0.00  0.00     0.000 A 
ATOM     21  C   UNL d   1       5.518  -2.617   0.000  0.00  0.00     0.000 A 
ATOM     22  C   UNL d   1       4.718  -2.801   0.000  0.00  0.00     0.000 A 
ENDBRANCH  16  17
ENDBRANCH  14  16
ENDBRANCH   1  13
TORSDOF 8
