REMARK  4 active torsions:
REMARK  status: ('A' for Active; 'I' for Inactive)
REMARK    1  A    between atoms: N_2  and  S_1 
REMARK    2  A    between atoms: C_3  and  S_1 
REMARK    3  A    between atoms: C_18  and  N_6 
REMARK    4  A    between atoms: C_19  and  C_18 
ROOT
ATOM      1  N   UNL d   1       2.226   0.381   0.000  0.00  0.00    -0.226 N 
ATOM      2  N   UNL d   1       0.564   0.381   0.000  0.00  0.00    -0.300 N 
ATOM      3  C   UNL d   1       1.808   1.107   0.000  0.00  0.00     0.111 A 
ATOM      4  C   UNL d   1       1.808  -0.315   0.000  0.00  0.00     0.111 A 
ATOM      5  C   UNL d   1       0.974  -0.315   0.000  0.00  0.00     0.100 A 
ATOM      6  C   UNL d   1       0.974   1.107   0.000  0.00  0.00     0.100 A 
ENDROOT
BRANCH   1   7
ATOM      7  S   UNL d   1       3.051   0.381   0.000  0.00  0.00     0.272 S 
ATOM      8  O   UNL d   1       3.051  -0.448   0.000  0.00  0.00    -0.200 OA
ATOM      9  O   UNL d   1       3.051   1.215   0.000  0.00  0.00    -0.200 OA
BRANCH   7  10
ATOM     10  C   UNL d   1       3.880   0.381   0.000  0.00  0.00     0.106 A 
ATOM     11  C   UNL d   1       4.295  -0.315   0.000  0.00  0.00     0.040 A 
ATOM     12  C   UNL d   1       5.103  -0.315   0.000  0.00  0.00     0.123 A 
ATOM     13  O   UNL d   1       5.514  -1.045   0.000  0.00  0.00    -0.301 OA
ATOM     14  C   UNL d   1       5.514   0.381   0.000  0.00  0.00     0.123 A 
ATOM     15  C   UNL d   1       6.343  -1.045   0.000  0.00  0.00     0.149 A 
ATOM     16  C   UNL d   1       6.757  -0.315   0.000  0.00  0.00     0.149 A 
ATOM     17  O   UNL d   1       6.343   0.381   0.000  0.00  0.00    -0.301 OA
ATOM     18  C   UNL d   1       5.128   1.090   0.000  0.00  0.00     0.028 A 
ATOM     19  C   UNL d   1       4.295   1.107   0.000  0.00  0.00     0.015 A 
ENDBRANCH   7  10
ENDBRANCH   1   7
BRANCH   2  20
ATOM     20  C   UNL d   1      -0.269   0.381   0.000  0.00  0.00     0.080 C 
BRANCH  20  21
ATOM     21  C   UNL d   1      -0.680  -0.315   0.000  0.00  0.00     0.018 A 
ATOM     22  C   UNL d   1      -0.269  -1.045   0.000  0.00  0.00     0.002 A 
ATOM     23  C   UNL d   1      -0.680  -1.741   0.000  0.00  0.00     0.000 A 
ATOM     24  C   UNL d   1      -1.505  -1.741   0.000  0.00  0.00     0.000 A 
ATOM     25  C   UNL d   1      -1.923  -1.045   0.000  0.00  0.00     0.000 A 
ATOM     26  C   UNL d   1      -1.505  -0.315   0.000  0.00  0.00     0.002 A 
ENDBRANCH  20  21
ENDBRANCH   2  20
TORSDOF 4
