REMARK  3 active torsions:
REMARK  status: ('A' for Active; 'I' for Inactive)
REMARK    1  A    between atoms: C_12  and  C_4 
REMARK    2  A    between atoms: S_8  and  C_12 
REMARK    3  A    between atoms: C_11  and  S_8 
ROOT
ATOM      1  N   UNL d   1      -1.635   0.068   0.000  0.00  0.00    -0.289 N 
ATOM      2  C   UNL d   1      -1.635   0.914   0.000  0.00  0.00     0.148 A 
ATOM      3  N   UNL d   1      -0.833   1.171   0.000  0.00  0.00    -0.226 NA
ATOM      4  C   UNL d   1      -0.378   0.486   0.000  0.00  0.00     0.107 A 
ATOM      5  C   UNL d   1      -0.833  -0.162   0.000  0.00  0.00     0.101 A 
ATOM      6  C   UNL d   1      -2.346  -0.324   0.000  0.00  0.00     0.066 A 
ATOM      7  C   UNL d   1      -2.346   1.333   0.000  0.00  0.00     0.037 A 
ATOM      8  C   UNL d   1      -3.062   0.914   0.000  0.00  0.00     0.005 A 
ATOM      9  C   UNL d   1      -3.062   0.103   0.000  0.00  0.00     0.018 A 
ATOM     10  C   UNL d   1      -2.346  -1.166   0.000  0.00  0.00     0.019 C 
ENDROOT
BRANCH   4  11
ATOM     11  C   UNL d   1       0.464   0.522   0.000  0.00  0.00     0.056 C 
BRANCH  11  12
ATOM     12  S   UNL d   1       0.869  -0.194   0.000  0.00  0.00    -0.083 SA
BRANCH  12  13
ATOM     13  C   UNL d   1       1.716  -0.194   0.000  0.00  0.00     0.049 A 
ATOM     14  C   UNL d   1       2.126  -0.905   0.000  0.00  0.00     0.109 A 
ATOM     15  N   UNL d   1       1.693  -1.653   0.000  0.00  0.00    -0.148 N 
ATOM     16  C   UNL d   1       2.950  -0.905   0.000  0.00  0.00     0.021 A 
ATOM     17  C   UNL d   1       3.355  -0.194   0.000  0.00  0.00     0.002 A 
ATOM     18  C   UNL d   1       2.972   0.486   0.000  0.00  0.00     0.001 A 
ATOM     19  C   UNL d   1       2.126   0.522   0.000  0.00  0.00     0.008 A 
ENDBRANCH  12  13
ENDBRANCH  11  12
ENDBRANCH   4  11
TORSDOF 3
