REMARK  4 active torsions:
REMARK  status: ('A' for Active; 'I' for Inactive)
REMARK    1  A    between atoms: C_3  and  C_1 
REMARK    2  A    between atoms: C_2  and  C_3 
REMARK    3  A    between atoms: C_6  and  C_2 
REMARK    4  A    between atoms: C_16  and  C_6 
ROOT
ATOM      1  C   UNL d   1      -1.185   1.587   0.000  0.00  0.00     0.119 A 
ATOM      2  C   UNL d   1      -1.896   1.176   0.000  0.00  0.00     0.119 A 
ATOM      3  O   UNL d   1      -1.363   2.391   0.000  0.00  0.00    -0.300 OA
ATOM      4  O   UNL d   1      -2.513   1.721   0.000  0.00  0.00    -0.300 OA
ATOM      5  C   UNL d   1      -2.175   2.478   0.000  0.00  0.00     0.304 A 
ATOM      6  C   UNL d   1      -0.469   1.176   0.000  0.00  0.00     0.026 A 
ATOM      7  C   UNL d   1      -0.469   0.338   0.000  0.00  0.00     0.002 A 
ATOM      8  C   UNL d   1      -1.896   0.338   0.000  0.00  0.00     0.026 A 
ATOM      9  C   UNL d   1      -1.185  -0.082   0.000  0.00  0.00     0.002 A 
ENDROOT
BRANCH   7  10
ATOM     10  C   UNL d   1       0.256  -0.096   0.000  0.00  0.00     0.003 C 
BRANCH  10  11
ATOM     11  C   UNL d   1       0.970   0.323   0.000  0.00  0.00     0.043 C 
BRANCH  11  12
ATOM     12  C   UNL d   1       1.680  -0.096   0.000  0.00  0.00     0.202 C 
ATOM     13  O   UNL d   1       2.396   0.311   0.000  0.00  0.00    -0.286 OA
BRANCH  12  14
ATOM     14  C   UNL d   1       1.680  -0.920   0.000  0.00  0.00     0.068 A 
ATOM     15  S   UNL d   1       2.297  -1.479   0.000  0.00  0.00    -0.083 SA
ATOM     16  C   UNL d   1       1.960  -2.222   0.000  0.00  0.00     0.035 A 
ATOM     17  C   UNL d   1       1.153  -2.134   0.000  0.00  0.00     0.008 A 
ATOM     18  C   UNL d   1       0.970  -1.339   0.000  0.00  0.00     0.010 A 
ENDBRANCH  12  14
ENDBRANCH  11  12
ENDBRANCH  10  11
ENDBRANCH   7  10
TORSDOF 4
