REMARK  4 active torsions:
REMARK  status: ('A' for Active; 'I' for Inactive)
REMARK    1  A    between atoms: C_9  and  N_2 
REMARK    2  A    between atoms: C_6  and  C_3 
REMARK    3  A    between atoms: C_8  and  C_4 
REMARK    4  A    between atoms: O_18  and  C_15 
ROOT
ATOM      1  N   UNL d   1      -1.924  -0.988   0.000  0.00  0.00    -0.165 NA
ATOM      2  N   UNL d   1      -1.298  -1.566   0.000  0.00  0.00    -0.230 N 
ATOM      3  C   UNL d   1      -1.585  -0.239   0.000  0.00  0.00     0.109 A 
ATOM      4  C   UNL d   1      -0.582  -1.122   0.000  0.00  0.00     0.084 A 
ATOM      5  C   UNL d   1      -0.761  -0.317   0.000  0.00  0.00     0.041 A 
ENDROOT
BRANCH   4   6
ATOM      6  C   UNL d   1       0.179  -1.432   0.000  0.00  0.00     0.018 A 
ATOM      7  C   UNL d   1       0.805  -0.895   0.000  0.00  0.00     0.004 A 
ATOM      8  C   UNL d   1       1.570  -1.178   0.000  0.00  0.00     0.024 A 
ATOM      9  C   UNL d   1       1.715  -1.984   0.000  0.00  0.00     0.094 A 
ATOM     10  C   UNL d   1       1.089  -2.521   0.000  0.00  0.00     0.024 A 
ATOM     11  C   UNL d   1       0.317  -2.237   0.000  0.00  0.00     0.004 A 
BRANCH   9  12
ATOM     12  O   UNL d   1       2.506  -2.308   0.000  0.00  0.00    -0.328 OA
ATOM     13  C   UNL d   1       3.177  -1.771   0.000  0.00  0.00     0.181 C 
ENDBRANCH   9  12
ENDBRANCH   4   6
BRANCH   2  14
ATOM     14  C   UNL d   1      -1.283  -2.386   0.000  0.00  0.00     0.083 A 
ATOM     15  C   UNL d   1      -0.567  -2.819   0.000  0.00  0.00     0.019 A 
ATOM     16  C   UNL d   1      -0.582  -3.650   0.000  0.00  0.00     0.002 A 
ATOM     17  C   UNL d   1      -1.283  -4.053   0.000  0.00  0.00     0.000 A 
ATOM     18  C   UNL d   1      -1.998  -3.624   0.000  0.00  0.00     0.002 A 
ATOM     19  C   UNL d   1      -1.998  -2.789   0.000  0.00  0.00     0.019 A 
ENDBRANCH   2  14
BRANCH   3  20
ATOM     20  C   UNL d   1      -2.267   0.235   0.000  0.00  0.00     0.049 A 
ATOM     21  S   UNL d   1      -3.087   0.235   0.000  0.00  0.00    -0.085 SA
ATOM     22  C   UNL d   1      -3.341   1.014   0.000  0.00  0.00     0.035 A 
ATOM     23  C   UNL d   1      -2.696   1.495   0.000  0.00  0.00     0.007 A 
ATOM     24  C   UNL d   1      -2.013   1.040   0.000  0.00  0.00     0.009 A 
ENDBRANCH   3  20
TORSDOF 4
