REMARK  3 active torsions:
REMARK  status: ('A' for Active; 'I' for Inactive)
REMARK    1  A    between atoms: C_5  and  C_2 
REMARK    2  A    between atoms: C_10  and  C_4 
REMARK    3  A    between atoms: O_19  and  C_16 
ROOT
ATOM      1  N   UNL d   1      -1.147   0.000   0.000  0.00  0.00    -0.245 NA
ATOM      2  C   UNL d   1      -0.357   0.198   0.000  0.00  0.00     0.088 A 
ATOM      3  S   UNL d   1      -1.147   1.860   0.000  0.00  0.00    -0.085 SA
ATOM      4  C   UNL d   1      -0.357   1.706   0.000  0.00  0.00     0.031 A 
ATOM      5  C   UNL d   1       0.005   0.949   0.000  0.00  0.00     0.026 A 
ATOM      6  C   UNL d   1      -1.778   0.521   0.000  0.00  0.00     0.087 A 
ATOM      7  C   UNL d   1      -1.778   1.344   0.000  0.00  0.00     0.047 A 
ATOM      8  C   UNL d   1      -2.497   0.126   0.000  0.00  0.00     0.020 A 
ATOM      9  C   UNL d   1      -2.497   1.778   0.000  0.00  0.00     0.008 A 
ATOM     10  C   UNL d   1      -3.205   0.521   0.000  0.00  0.00     0.002 A 
ATOM     11  C   UNL d   1      -3.205   1.344   0.000  0.00  0.00     0.001 A 
ENDROOT
BRANCH   4  12
ATOM     12  C   UNL d   1       0.198   2.299   0.000  0.00  0.00     0.006 A 
ATOM     13  C   UNL d   1       1.010   2.102   0.000  0.00  0.00     0.003 A 
ATOM     14  C   UNL d   1       1.564   2.694   0.000  0.00  0.00     0.024 A 
ATOM     15  C   UNL d   1       1.323   3.484   0.000  0.00  0.00     0.094 A 
ATOM     16  C   UNL d   1       0.532   3.682   0.000  0.00  0.00     0.024 A 
ATOM     17  C   UNL d   1      -0.044   3.089   0.000  0.00  0.00     0.003 A 
BRANCH  15  18
ATOM     18  O   UNL d   1       1.882   4.110   0.000  0.00  0.00    -0.328 OA
ATOM     19  C   UNL d   1       2.700   3.951   0.000  0.00  0.00     0.181 C 
ENDBRANCH  15  18
ENDBRANCH   4  12
BRANCH   2  20
ATOM     20  C   UNL d   1       0.461  -0.038   0.000  0.00  0.00     0.047 A 
ATOM     21  S   UNL d   1       0.664  -0.829   0.000  0.00  0.00    -0.085 SA
ATOM     22  C   UNL d   1       1.487  -0.862   0.000  0.00  0.00     0.035 A 
ATOM     23  C   UNL d   1       1.800  -0.115   0.000  0.00  0.00     0.007 A 
ATOM     24  C   UNL d   1       1.169   0.395   0.000  0.00  0.00     0.009 A 
ENDBRANCH   2  20
TORSDOF 3
