REMARK  3 active torsions:
REMARK  status: ('A' for Active; 'I' for Inactive)
REMARK    1  A    between atoms: C_4  and  S_13 
REMARK    2  A    between atoms: C_16  and  C_6 
REMARK    3  A    between atoms: S_13  and  C_16 
ROOT
ATOM      1  C   UNL d   1      -1.665   0.235   0.000  0.00  0.00     0.059 C 
ENDROOT
BRANCH   1   2
ATOM      2  S   UNL d   1      -1.448  -0.545   0.000  0.00  0.00    -0.046 SA
BRANCH   2   3
ATOM      3  C   UNL d   1      -0.646  -0.737   0.000  0.00  0.00     0.194 A 
ATOM      4  N   UNL d   1       0.043  -0.285   0.000  0.00  0.00    -0.220 NA
ATOM      5  C   UNL d   1       0.683  -0.794   0.000  0.00  0.00     0.101 A 
ATOM      6  C   UNL d   1       1.488  -0.650   0.000  0.00  0.00     0.021 A 
ATOM      7  C   UNL d   1       0.405  -1.542   0.000  0.00  0.00     0.101 A 
ATOM      8  C   UNL d   1       2.026  -1.260   0.000  0.00  0.00     0.002 A 
ATOM      9  C   UNL d   1       1.759  -2.051   0.000  0.00  0.00     0.002 A 
ATOM     10  C   UNL d   1       0.924  -2.192   0.000  0.00  0.00     0.021 A 
ATOM     11  N   UNL d   1      -0.430  -1.542   0.000  0.00  0.00    -0.220 NA
ENDBRANCH   2   3
ENDBRANCH   1   2
BRANCH   1  12
ATOM     12  C   UNL d   1      -2.456   0.433   0.000  0.00  0.00     0.107 A 
ATOM     13  C   UNL d   1      -3.088  -0.080   0.000  0.00  0.00     0.101 A 
ATOM     14  N   UNL d   1      -3.799   0.332   0.000  0.00  0.00    -0.289 N 
ATOM     15  C   UNL d   1      -3.604   1.138   0.000  0.00  0.00     0.148 A 
ATOM     16  C   UNL d   1      -4.604   0.105   0.000  0.00  0.00     0.066 A 
ATOM     17  N   UNL d   1      -2.774   1.210   0.000  0.00  0.00    -0.226 NA
ATOM     18  C   UNL d   1      -4.200   1.708   0.000  0.00  0.00     0.037 A 
ATOM     19  C   UNL d   1      -5.002   1.473   0.000  0.00  0.00     0.005 A 
ATOM     20  C   UNL d   1      -5.197   0.668   0.000  0.00  0.00     0.018 A 
ATOM     21  C   UNL d   1      -4.796  -0.708   0.000  0.00  0.00     0.019 C 
ENDBRANCH   1  12
TORSDOF 3
