REMARK  4 active torsions:
REMARK  status: ('A' for Active; 'I' for Inactive)
REMARK    1  A    between atoms: C_3  and  C_1 
REMARK    2  A    between atoms: N_5  and  C_3 
REMARK    3  A    between atoms: C_10  and  C_3 
REMARK    4  A    between atoms: C_7  and  N_5 
ROOT
ATOM      1  C   UNL d   1      -3.025  -0.220   0.000  0.00  0.00     0.086 C 
ENDROOT
BRANCH   1   2
ATOM      2  C   UNL d   1      -2.305   0.215   0.000  0.00  0.00     0.058 A 
ATOM      3  C   UNL d   1      -1.595  -0.220   0.000  0.00  0.00     0.214 A 
ATOM      4  C   UNL d   1      -0.894   0.215   0.000  0.00  0.00     0.120 A 
ATOM      5  O   UNL d   1      -1.595  -1.045   0.000  0.00  0.00    -0.285 OA
ATOM      6  N   UNL d   1      -0.165  -0.220   0.000  0.00  0.00    -0.241 NA
ATOM      7  C   UNL d   1      -0.894   1.040   0.000  0.00  0.00     0.021 A 
ATOM      8  C   UNL d   1       0.536   0.215   0.000  0.00  0.00     0.099 A 
ATOM      9  C   UNL d   1       0.536   1.040   0.000  0.00  0.00     0.021 A 
ATOM     10  C   UNL d   1      -0.165   1.430   0.000  0.00  0.00     0.003 A 
ATOM     11  C   UNL d   1      -1.595   1.430   0.000  0.00  0.00     0.002 A 
ATOM     12  C   UNL d   1      -2.305   1.040   0.000  0.00  0.00     0.005 A 
ENDBRANCH   1   2
BRANCH   1  13
ATOM     13  N   UNL d   1      -3.754   0.179   0.000  0.00  0.00    -0.227 NA
BRANCH  13  14
ATOM     14  C   UNL d   1      -4.455  -0.220   0.000  0.00  0.00     0.162 A 
ATOM     15  N   UNL d   1      -4.455  -1.045   0.000  0.00  0.00    -0.225 NA
ATOM     16  C   UNL d   1      -5.165  -1.471   0.000  0.00  0.00     0.101 A 
ATOM     17  C   UNL d   1      -5.867  -1.045   0.000  0.00  0.00     0.021 A 
ATOM     18  C   UNL d   1      -5.867  -0.220   0.000  0.00  0.00     0.005 A 
ATOM     19  C   UNL d   1      -5.165   0.179   0.000  0.00  0.00     0.039 A 
ENDBRANCH  13  14
ENDBRANCH   1  13
BRANCH   1  20
ATOM     20  C   UNL d   1      -3.025  -1.031   0.000  0.00  0.00     0.018 A 
ATOM     21  C   UNL d   1      -2.324  -1.435   0.000  0.00  0.00     0.002 A 
ATOM     22  C   UNL d   1      -2.324  -2.260   0.000  0.00  0.00     0.000 A 
ATOM     23  C   UNL d   1      -3.025  -2.681   0.000  0.00  0.00     0.000 A 
ATOM     24  C   UNL d   1      -3.735  -2.260   0.000  0.00  0.00     0.000 A 
ATOM     25  C   UNL d   1      -3.735  -1.435   0.000  0.00  0.00     0.002 A 
ENDBRANCH   1  20
TORSDOF 4
