REMARK  3 active torsions:
REMARK  status: ('A' for Active; 'I' for Inactive)
REMARK    1  A    between atoms: C_5  and  C_1 
REMARK    2  A    between atoms: C_2  and  C_5 
REMARK    3  A    between atoms: C_12  and  C_5 
ROOT
ATOM      1  C   UNL d   1      -0.149   0.141   0.000  0.00  0.00     0.021 C 
ENDROOT
BRANCH   1   2
ATOM      2  C   UNL d   1       0.660   0.303   0.000  0.00  0.00     0.021 A 
ATOM      3  C   UNL d   1       1.079   1.029   0.000  0.00  0.00     0.082 A 
ATOM      4  N   UNL d   1       1.881   0.839   0.000  0.00  0.00    -0.246 NA
ATOM      5  C   UNL d   1       0.761   1.795   0.000  0.00  0.00     0.021 C 
ATOM      6  C   UNL d   1       1.964   0.020   0.000  0.00  0.00     0.081 A 
ATOM      7  C   UNL d   1       1.206  -0.303   0.000  0.00  0.00     0.019 A 
ATOM      8  C   UNL d   1       2.619  -0.488   0.000  0.00  0.00     0.019 A 
ATOM      9  C   UNL d   1       1.102  -1.122   0.000  0.00  0.00     0.002 A 
ATOM     10  C   UNL d   1       1.752  -1.630   0.000  0.00  0.00     0.000 A 
ATOM     11  C   UNL d   1       2.490  -1.307   0.000  0.00  0.00     0.002 A 
ENDBRANCH   1   2
BRANCH   1  12
ATOM     12  C   UNL d   1      -0.422  -0.647   0.000  0.00  0.00     0.021 A 
ATOM     13  C   UNL d   1       0.063  -1.307   0.000  0.00  0.00     0.082 A 
ATOM     14  N   UNL d   1      -0.422  -1.974   0.000  0.00  0.00    -0.246 NA
ATOM     15  C   UNL d   1       0.910  -1.307   0.000  0.00  0.00     0.021 C 
ATOM     16  C   UNL d   1      -1.203  -1.721   0.000  0.00  0.00     0.081 A 
ATOM     17  C   UNL d   1      -1.203  -0.902   0.000  0.00  0.00     0.019 A 
ATOM     18  C   UNL d   1      -1.919  -2.133   0.000  0.00  0.00     0.019 A 
ATOM     19  C   UNL d   1      -1.919  -0.488   0.000  0.00  0.00     0.002 A 
ATOM     20  C   UNL d   1      -2.636  -0.902   0.000  0.00  0.00     0.000 A 
ATOM     21  C   UNL d   1      -2.636  -1.721   0.000  0.00  0.00     0.002 A 
ENDBRANCH   1  12
BRANCH   1  22
ATOM     22  C   UNL d   1      -0.695   0.748   0.000  0.00  0.00     0.082 A 
ATOM     23  N   UNL d   1      -1.494   0.584   0.000  0.00  0.00    -0.244 NA
ATOM     24  C   UNL d   1      -2.045   1.190   0.000  0.00  0.00     0.099 A 
ATOM     25  C   UNL d   1      -1.767   1.984   0.000  0.00  0.00     0.021 A 
ATOM     26  C   UNL d   1      -0.991   2.136   0.000  0.00  0.00     0.003 A 
ATOM     27  C   UNL d   1      -0.437   1.537   0.000  0.00  0.00     0.019 A 
ENDBRANCH   1  22
TORSDOF 3
