REMARK  3 active torsions:
REMARK  status: ('A' for Active; 'I' for Inactive)
REMARK    1  A    between atoms: C_14  and  C_4 
REMARK    2  A    between atoms: C_5  and  S_10 
REMARK    3  A    between atoms: S_10  and  C_14 
ROOT
ATOM      1  N   UNL d   1       2.582  -1.210   0.000  0.00  0.00    -0.226 NA
ATOM      2  N   UNL d   1       1.782  -2.313   0.000  0.00  0.00    -0.288 N 
ATOM      3  C   UNL d   1       1.782  -1.488   0.000  0.00  0.00     0.148 A 
ATOM      4  C   UNL d   1       3.044  -1.898   0.000  0.00  0.00     0.107 A 
ATOM      5  C   UNL d   1       2.582  -2.565   0.000  0.00  0.00     0.101 A 
ATOM      6  C   UNL d   1       1.064  -2.719   0.000  0.00  0.00     0.082 A 
ATOM      7  C   UNL d   1       1.064  -1.056   0.000  0.00  0.00     0.037 A 
ATOM      8  C   UNL d   1       0.346  -2.287   0.000  0.00  0.00     0.019 A 
ATOM      9  C   UNL d   1       0.346  -1.488   0.000  0.00  0.00     0.005 A 
ENDROOT
BRANCH   4  10
ATOM     10  C   UNL d   1       3.864  -1.898   0.000  0.00  0.00     0.058 C 
BRANCH  10  11
ATOM     11  S   UNL d   1       4.275  -2.595   0.000  0.00  0.00    -0.059 SA
BRANCH  11  12
ATOM     12  C   UNL d   1       5.130  -2.595   0.000  0.00  0.00     0.141 A 
ATOM     13  N   UNL d   1       5.681  -1.979   0.000  0.00  0.00    -0.230 NA
ATOM     14  C   UNL d   1       6.416  -2.360   0.000  0.00  0.00     0.107 A 
ATOM     15  C   UNL d   1       6.327  -3.146   0.000  0.00  0.00     0.058 A 
ATOM     16  S   UNL d   1       5.540  -3.300   0.000  0.00  0.00    -0.059 SA
ENDBRANCH  11  12
ENDBRANCH  10  11
ENDBRANCH   4  10
TORSDOF 3
