REMARK  1 active torsions:
REMARK  status: ('A' for Active; 'I' for Inactive)
REMARK    1  A    between atoms: C_6  and  C_1 
ROOT
ATOM      1  C   UNL d   1       0.244  -0.188   0.000  0.00  0.00     0.148 A 
ATOM      2  N   UNL d   1      -0.544   0.061   0.000  0.00  0.00    -0.289 N 
ATOM      3  N   UNL d   1       0.732   0.468   0.000  0.00  0.00    -0.225 NA
ATOM      4  C   UNL d   1      -0.544   0.870   0.000  0.00  0.00     0.085 A 
ATOM      5  C   UNL d   1       0.244   1.124   0.000  0.00  0.00     0.118 A 
ATOM      6  C   UNL d   1      -1.246  -0.371   0.000  0.00  0.00     0.082 A 
ATOM      7  C   UNL d   1      -1.246   1.307   0.000  0.00  0.00     0.019 A 
ATOM      8  C   UNL d   1      -1.978   0.061   0.000  0.00  0.00     0.019 A 
ATOM      9  C   UNL d   1      -1.978   0.870   0.000  0.00  0.00     0.003 A 
ENDROOT
BRANCH   1  10
ATOM     10  C   UNL d   1       0.412  -0.997   0.000  0.00  0.00     0.035 A 
ATOM     11  C   UNL d   1      -0.198  -1.587   0.000  0.00  0.00     0.004 A 
ATOM     12  C   UNL d   1      -0.025  -2.385   0.000  0.00  0.00     0.011 A 
ATOM     13  C   UNL d   1       0.753  -2.609   0.000  0.00  0.00     0.058 A 
ATOM     14  C   UNL d   1       1.363  -2.059   0.000  0.00  0.00     0.011 A 
ATOM     15 CL   UNL d   1       0.920  -3.453   0.000  0.00  0.00    -0.082 Cl
ATOM     16  C   UNL d   1       1.195  -1.256   0.000  0.00  0.00     0.004 A 
ENDBRANCH   1  10
TORSDOF 1
