REMARK  6 active torsions:
REMARK  status: ('A' for Active; 'I' for Inactive)
REMARK    1  A    between atoms: N_6  and  S_1 
REMARK    2  A    between atoms: C_12  and  S_1 
REMARK    3  A    between atoms: C_2  and  N_5 
REMARK    4  A    between atoms: C_4  and  C_7 
REMARK       I    between atoms: N_5  and  C_4 
REMARK    5  A    between atoms: C_10  and  N_6 
REMARK    6  A    between atoms: C_15  and  C_8 
ROOT
ATOM      1  C   UNL d   1       2.455  -1.083   0.000  0.00  0.00     0.076 A 
ATOM      2  C   UNL d   1       2.866  -0.375   0.000  0.00  0.00     0.098 A 
ATOM      3  C   UNL d   1       2.866  -1.798   0.000  0.00  0.00     0.006 A 
ATOM      4  C   UNL d   1       3.695  -0.375   0.000  0.00  0.00     0.020 A 
ATOM      5  C   UNL d   1       3.695  -1.798   0.000  0.00  0.00     0.000 A 
ATOM      6  C   UNL d   1       4.109  -1.083   0.000  0.00  0.00     0.002 A 
ENDROOT
BRANCH   1   7
ATOM      7  C   UNL d   1       1.630  -1.083   0.000  0.00  0.00     0.282 C 
ATOM      8  N   UNL d   1       1.220  -0.375   0.000  0.00  0.00    -0.183 NA
ATOM      9  O   UNL d   1       1.220  -1.798   0.000  0.00  0.00    -0.265 OA
BRANCH   8  10
ATOM     10  C   UNL d   1       0.391  -0.375   0.000  0.00  0.00     0.197 A 
ATOM     11  N   UNL d   1      -0.078  -1.032   0.000  0.00  0.00    -0.221 NA
ATOM     12  C   UNL d   1      -0.864  -0.786   0.000  0.00  0.00     0.090 A 
ATOM     13  C   UNL d   1      -0.864   0.043   0.000  0.00  0.00     0.058 A 
ATOM     14  S   UNL d   1      -0.078   0.301   0.000  0.00  0.00    -0.046 SA
BRANCH  12  15
ATOM     15  C   UNL d   1      -1.579  -1.200   0.000  0.00  0.00     0.018 A 
ATOM     16  C   UNL d   1      -1.579  -2.033   0.000  0.00  0.00     0.004 A 
ATOM     17  C   UNL d   1      -2.295  -2.444   0.000  0.00  0.00     0.030 A 
ATOM     18  C   UNL d   1      -3.003  -2.021   0.000  0.00  0.00     0.140 A 
ATOM     19  C   UNL d   1      -3.003  -1.200   0.000  0.00  0.00     0.030 A 
ATOM     20  F   UNL d   1      -3.718  -2.428   0.000  0.00  0.00    -0.204 F 
ATOM     21  C   UNL d   1      -2.295  -0.786   0.000  0.00  0.00     0.004 A 
ENDBRANCH  12  15
ENDBRANCH   8  10
ENDBRANCH   1   7
BRANCH   2  22
ATOM     22  N   UNL d   1       2.455   0.340   0.000  0.00  0.00    -0.158 NA
BRANCH  22  23
ATOM     23  S   UNL d   1       2.878   1.075   0.000  0.00  0.00     0.285 S 
ATOM     24  O   UNL d   1       2.158   1.474   0.000  0.00  0.00    -0.198 OA
ATOM     25  O   UNL d   1       3.593   0.641   0.000  0.00  0.00    -0.198 OA
BRANCH  23  26
ATOM     26  C   UNL d   1       3.284   1.779   0.000  0.00  0.00     0.105 A 
ATOM     27  C   UNL d   1       2.862   2.487   0.000  0.00  0.00     0.013 A 
ATOM     28  C   UNL d   1       3.284   3.222   0.000  0.00  0.00     0.001 A 
ATOM     29  C   UNL d   1       4.098   3.222   0.000  0.00  0.00     0.000 A 
ATOM     30  C   UNL d   1       4.520   2.498   0.000  0.00  0.00     0.001 A 
ATOM     31  C   UNL d   1       4.492   3.941   0.000  0.00  0.00     0.000 C 
ATOM     32  C   UNL d   1       4.109   1.779   0.000  0.00  0.00     0.013 A 
ENDBRANCH  23  26
ENDBRANCH  22  23
ENDBRANCH   2  22
TORSDOF 6
