REMARK  4 active torsions:
REMARK  status: ('A' for Active; 'I' for Inactive)
REMARK    1  A    between atoms: N_3  and  C_1 
REMARK       I    between atoms: C_7  and  N_3 
REMARK    2  A    between atoms: S_10  and  C_5 
REMARK    3  A    between atoms: C_9  and  C_7 
REMARK    4  A    between atoms: C_13  and  S_10 
ROOT
ATOM      1  N   UNL d   1       1.092  -0.364   0.000  0.00  0.00    -0.181 NA
ATOM      2  C   UNL d   1       1.627   0.269   0.000  0.00  0.00     0.281 C 
ATOM      3  O   UNL d   1       1.353   1.058   0.000  0.00  0.00    -0.265 OA
ENDROOT
BRANCH   1   4
ATOM      4  C   UNL d   1       0.307  -0.209   0.000  0.00  0.00     0.219 A 
ATOM      5  S   UNL d   1      -0.360  -0.698   0.000  0.00  0.00    -0.019 SA
ATOM      6  C   UNL d   1      -1.031  -0.216   0.000  0.00  0.00     0.165 A 
ATOM      7  N   UNL d   1      -0.792   0.546   0.000  0.00  0.00    -0.133 NA
ATOM      8  N   UNL d   1       0.004   0.546   0.000  0.00  0.00    -0.120 NA
BRANCH   6   9
ATOM      9  S   UNL d   1      -1.839  -0.459   0.000  0.00  0.00    -0.059 SA
BRANCH   9  10
ATOM     10  C   UNL d   1      -2.423   0.076   0.000  0.00  0.00     0.037 C 
ATOM     11  C   UNL d   1      -3.204  -0.163   0.000  0.00  0.00     0.008 C 
ENDBRANCH   9  10
ENDBRANCH   6   9
ENDBRANCH   1   4
BRANCH   2  12
ATOM     12  C   UNL d   1       2.461   0.091   0.000  0.00  0.00     0.058 A 
ATOM     13  C   UNL d   1       2.745  -0.682   0.000  0.00  0.00     0.005 A 
ATOM     14  C   UNL d   1       3.575  -0.819   0.000  0.00  0.00     0.000 A 
ATOM     15  C   UNL d   1       4.110  -0.197   0.000  0.00  0.00     0.000 A 
ATOM     16  C   UNL d   1       3.837   0.576   0.000  0.00  0.00     0.000 A 
ATOM     17  C   UNL d   1       3.003   0.724   0.000  0.00  0.00     0.005 A 
ENDBRANCH   2  12
TORSDOF 4
