REMARK  5 active torsions:
REMARK  status: ('A' for Active; 'I' for Inactive)
REMARK    1  A    between atoms: S_2  and  C_1 
REMARK    2  A    between atoms: C_7  and  S_2 
REMARK    3  A    between atoms: N_8  and  C_5 
REMARK    4  A    between atoms: C_14  and  N_8 
REMARK    5  A    between atoms: O_23  and  C_15 
ROOT
ATOM      1  C   UNL d   1      -0.154   0.186   0.000  0.00  0.00     0.187 A 
ATOM      2  N   UNL d   1       0.664   0.186   0.000  0.00  0.00    -0.208 NA
ATOM      3  C   UNL d   1      -0.423  -0.585   0.000  0.00  0.00     0.118 A 
ATOM      4  C   UNL d   1       0.917  -0.597   0.000  0.00  0.00     0.196 A 
ATOM      5  S   UNL d   1       0.253  -1.080   0.000  0.00  0.00    -0.035 SA
ATOM      6 CL   UNL d   1      -1.230  -0.823   0.000  0.00  0.00    -0.073 Cl
ENDROOT
BRANCH   1   7
ATOM      7  S   UNL d   1      -0.684   0.838   0.000  0.00  0.00     0.228 S 
ATOM      8  O   UNL d   1      -0.020   1.341   0.000  0.00  0.00    -0.216 OA
ATOM      9  O   UNL d   1      -1.329   0.316   0.000  0.00  0.00    -0.216 OA
BRANCH   7  10
ATOM     10  C   UNL d   1      -1.198   1.471   0.000  0.00  0.00     0.089 A 
ATOM     11  C   UNL d   1      -2.025   1.360   0.000  0.00  0.00     0.011 A 
ATOM     12  C   UNL d   1      -2.535   2.005   0.000  0.00  0.00     0.001 A 
ATOM     13  C   UNL d   1      -2.242   2.784   0.000  0.00  0.00     0.000 A 
ATOM     14  C   UNL d   1      -1.408   2.895   0.000  0.00  0.00     0.001 A 
ATOM     15  C   UNL d   1      -2.748   3.429   0.000  0.00  0.00     0.000 C 
ATOM     16  C   UNL d   1      -0.898   2.262   0.000  0.00  0.00     0.011 A 
ENDBRANCH   7  10
ENDBRANCH   1   7
BRANCH   4  17
ATOM     17  N   UNL d   1       1.665  -0.949   0.000  0.00  0.00    -0.221 NA
BRANCH  17  18
ATOM     18  C   UNL d   1       2.341  -0.478   0.000  0.00  0.00     0.084 A 
ATOM     19  C   UNL d   1       3.088  -0.834   0.000  0.00  0.00     0.021 A 
ATOM     20  C   UNL d   1       3.765  -0.380   0.000  0.00  0.00     0.026 A 
ATOM     21  C   UNL d   1       3.701   0.439   0.000  0.00  0.00     0.094 A 
ATOM     22  C   UNL d   1       2.946   0.803   0.000  0.00  0.00     0.026 A 
ATOM     23  C   UNL d   1       2.278   0.344   0.000  0.00  0.00     0.021 A 
BRANCH  21  24
ATOM     24  O   UNL d   1       4.382   0.898   0.000  0.00  0.00    -0.328 OA
ATOM     25  C   UNL d   1       5.125   0.522   0.000  0.00  0.00     0.181 C 
ENDBRANCH  21  24
ENDBRANCH  17  18
ENDBRANCH   4  17
TORSDOF 5
