REMARK  5 active torsions:
REMARK  status: ('A' for Active; 'I' for Inactive)
REMARK    1  A    between atoms: C_2  and  C_1 
REMARK    2  A    between atoms: C_5  and  C_2 
REMARK    3  A    between atoms: C_9  and  C_5 
REMARK    4  A    between atoms: O_18  and  C_12 
REMARK    5  A    between atoms: O_19  and  C_14 
ROOT
ATOM      1  C   UNL d   1       1.274  -0.366   0.000  0.00  0.00     0.141 C 
ATOM      2  C   UNL d   1       1.692   0.349   0.000  0.00  0.00     0.107 C 
ATOM      3  N   UNL d   1       2.111   1.081   0.000  0.00  0.00    -0.191 NA
ENDROOT
BRANCH   1   4
ATOM      4  C   UNL d   1       0.458  -0.366   0.000  0.00  0.00     0.161 A 
ATOM      5  N   UNL d   1      -0.022   0.327   0.000  0.00  0.00    -0.287 N 
ATOM      6  C   UNL d   1      -0.820   0.074   0.000  0.00  0.00     0.083 A 
ATOM      7  C   UNL d   1       0.249   1.099   0.000  0.00  0.00     0.101 C 
ATOM      8  C   UNL d   1      -1.531   0.471   0.000  0.00  0.00     0.019 A 
ATOM      9  C   UNL d   1      -0.820  -0.763   0.000  0.00  0.00     0.099 A 
ATOM     10  C   UNL d   1      -2.246   0.074   0.000  0.00  0.00     0.002 A 
ATOM     11  C   UNL d   1      -2.246  -0.763   0.000  0.00  0.00     0.002 A 
ATOM     12  C   UNL d   1      -1.531  -1.182   0.000  0.00  0.00     0.021 A 
ATOM     13  N   UNL d   1      -0.022  -1.012   0.000  0.00  0.00    -0.226 NA
ENDBRANCH   1   4
BRANCH   1  14
ATOM     14  C   UNL d   1       1.692  -1.077   0.000  0.00  0.00     0.208 C 
ATOM     15  O   UNL d   1       1.274  -1.784   0.000  0.00  0.00    -0.286 OA
BRANCH  14  16
ATOM     16  C   UNL d   1       2.512  -1.077   0.000  0.00  0.00     0.042 A 
ATOM     17  C   UNL d   1       2.931  -1.784   0.000  0.00  0.00     0.029 A 
ATOM     18  C   UNL d   1       3.746  -1.784   0.000  0.00  0.00     0.116 A 
ATOM     19  C   UNL d   1       4.165  -1.077   0.000  0.00  0.00     0.116 A 
ATOM     20  C   UNL d   1       3.746  -0.366   0.000  0.00  0.00     0.026 A 
ATOM     21  C   UNL d   1       2.931  -0.366   0.000  0.00  0.00     0.005 A 
BRANCH  18  22
ATOM     22  O   UNL d   1       4.139  -2.499   0.000  0.00  0.00    -0.326 OA
ATOM     23  C   UNL d   1       3.716  -3.223   0.000  0.00  0.00     0.181 C 
ENDBRANCH  18  22
BRANCH  19  24
ATOM     24  O   UNL d   1       4.976  -1.077   0.000  0.00  0.00    -0.326 OA
ATOM     25  C   UNL d   1       5.395  -1.797   0.000  0.00  0.00     0.181 C 
ENDBRANCH  19  24
ENDBRANCH  14  16
ENDBRANCH   1  14
TORSDOF 5
