REMARK  5 active torsions:
REMARK  status: ('A' for Active; 'I' for Inactive)
REMARK    1  A    between atoms: C_2  and  C_1 
REMARK    2  A    between atoms: C_6  and  C_2 
REMARK    3  A    between atoms: S_3  and  C_11 
REMARK    4  A    between atoms: N_7  and  S_3 
REMARK    5  A    between atoms: C_15  and  C_6 
ROOT
ATOM      1  C   UNL d   1      -2.515  -0.066   0.000  0.00  0.00     0.141 C 
ATOM      2  C   UNL d   1      -2.105   0.663   0.000  0.00  0.00     0.107 C 
ATOM      3  N   UNL d   1      -1.695   1.361   0.000  0.00  0.00    -0.191 NA
ENDROOT
BRANCH   1   4
ATOM      4  C   UNL d   1      -3.340  -0.066   0.000  0.00  0.00     0.161 A 
ATOM      5  N   UNL d   1      -3.826   0.607   0.000  0.00  0.00    -0.287 N 
ATOM      6  C   UNL d   1      -4.611   0.364   0.000  0.00  0.00     0.083 A 
ATOM      7  C   UNL d   1      -3.563   1.412   0.000  0.00  0.00     0.101 C 
ATOM      8  C   UNL d   1      -5.309   0.784   0.000  0.00  0.00     0.019 A 
ATOM      9  C   UNL d   1      -4.611  -0.486   0.000  0.00  0.00     0.099 A 
ATOM     10  C   UNL d   1      -6.023   0.364   0.000  0.00  0.00     0.002 A 
ATOM     11  C   UNL d   1      -6.023  -0.486   0.000  0.00  0.00     0.002 A 
ATOM     12  C   UNL d   1      -5.309  -0.896   0.000  0.00  0.00     0.021 A 
ATOM     13  N   UNL d   1      -3.826  -0.729   0.000  0.00  0.00    -0.226 NA
ENDBRANCH   1   4
BRANCH   1  14
ATOM     14  C   UNL d   1      -2.105  -0.774   0.000  0.00  0.00     0.208 C 
ATOM     15  O   UNL d   1      -2.515  -1.478   0.000  0.00  0.00    -0.286 OA
BRANCH  14  16
ATOM     16  C   UNL d   1      -1.275  -0.774   0.000  0.00  0.00     0.040 A 
ATOM     17  C   UNL d   1      -0.865  -1.503   0.000  0.00  0.00     0.004 A 
ATOM     18  C   UNL d   1      -0.040  -1.503   0.000  0.00  0.00     0.013 A 
ATOM     19  C   UNL d   1       0.369  -0.795   0.000  0.00  0.00     0.104 A 
ATOM     20  C   UNL d   1      -0.040  -0.066   0.000  0.00  0.00     0.013 A 
ATOM     21  C   UNL d   1      -0.865  -0.066   0.000  0.00  0.00     0.004 A 
BRANCH  19  22
ATOM     22  S   UNL d   1       1.200  -0.795   0.000  0.00  0.00     0.271 S 
ATOM     23  O   UNL d   1       1.200   0.056   0.000  0.00  0.00    -0.200 OA
ATOM     24  O   UNL d   1       1.200  -1.625   0.000  0.00  0.00    -0.200 OA
BRANCH  22  25
ATOM     25  N   UNL d   1       2.025  -0.795   0.000  0.00  0.00    -0.229 N 
ATOM     26  C   UNL d   1       2.434  -1.503   0.000  0.00  0.00     0.092 A 
ATOM     27  C   UNL d   1       3.264  -1.503   0.000  0.00  0.00     0.020 A 
ATOM     28  C   UNL d   1       3.679  -0.795   0.000  0.00  0.00     0.003 A 
ATOM     29  C   UNL d   1       3.264  -0.096   0.000  0.00  0.00     0.020 A 
ATOM     30  C   UNL d   1       2.434  -0.096   0.000  0.00  0.00     0.092 A 
ENDBRANCH  22  25
ENDBRANCH  19  22
ENDBRANCH  14  16
ENDBRANCH   1  14
TORSDOF 5
