REMARK  2 active torsions:
REMARK  status: ('A' for Active; 'I' for Inactive)
REMARK    1  A    between atoms: C_9  and  N_1 
REMARK    2  A    between atoms: C_2  and  C_10 
ROOT
ATOM      1  C   UNL d   1       4.091  -0.974   0.000  0.00  0.00     0.070 A 
ATOM      2  C   UNL d   1       2.422  -0.974   0.000  0.00  0.00     0.024 A 
ATOM      3  C   UNL d   1       3.681  -1.683   0.000  0.00  0.00     0.018 A 
ATOM      4  C   UNL d   1       3.699  -0.257   0.000  0.00  0.00     0.018 A 
ATOM      5  C   UNL d   1       2.833  -1.683   0.000  0.00  0.00     0.004 A 
ATOM      6  C   UNL d   1       2.855  -0.257   0.000  0.00  0.00     0.004 A 
ENDROOT
BRANCH   2   7
ATOM      7  C   UNL d   1       1.732  -0.974   0.000  0.00  0.00     0.111 A 
ATOM      8  N   UNL d   1       1.222  -1.732   0.000  0.00  0.00    -0.239 NA
ATOM      9  C   UNL d   1       0.419  -1.439   0.000  0.00  0.00     0.088 A 
ATOM     10  C   UNL d   1      -0.230  -1.859   0.000  0.00  0.00     0.020 A 
ATOM     11  C   UNL d   1       0.419  -0.614   0.000  0.00  0.00     0.049 A 
ATOM     12  C   UNL d   1      -0.974  -1.439   0.000  0.00  0.00     0.002 A 
ATOM     13  C   UNL d   1      -0.974  -0.636   0.000  0.00  0.00     0.001 A 
ATOM     14  C   UNL d   1      -0.284  -0.194   0.000  0.00  0.00     0.008 A 
ATOM     15  S   UNL d   1       1.299  -0.356   0.000  0.00  0.00    -0.066 SA
ENDBRANCH   2   7
BRANCH   1  16
ATOM     16  N   UNL d   1       4.926  -0.974   0.000  0.00  0.00    -0.242 N 
ATOM     17  C   UNL d   1       5.345  -1.683   0.000  0.00  0.00     0.267 A 
ATOM     18  C   UNL d   1       6.148  -1.493   0.000  0.00  0.00     0.066 A 
ATOM     19  O   UNL d   1       5.039  -2.490   0.000  0.00  0.00    -0.267 OA
ATOM     20  C   UNL d   1       6.211  -0.650   0.000  0.00  0.00     0.066 A 
ATOM     21  C   UNL d   1       5.431  -0.343   0.000  0.00  0.00     0.267 A 
ATOM     22  O   UNL d   1       5.237   0.456   0.000  0.00  0.00    -0.267 OA
ENDBRANCH   1  16
TORSDOF 2
