REMARK  5 active torsions:
REMARK  status: ('A' for Active; 'I' for Inactive)
REMARK    1  A    between atoms: C_10  and  N_1 
REMARK    2  A    between atoms: N_2  and  C_8 
REMARK    3  A    between atoms: C_5  and  C_12 
REMARK       I    between atoms: N_6  and  C_5 
REMARK    4  A    between atoms: C_7  and  N_6 
REMARK    5  A    between atoms: O_26  and  C_14 
ROOT
ATOM      1  C   UNL d   1       1.645  -0.987   0.000  0.00  0.00     0.279 C 
ATOM      2  N   UNL d   1       1.242  -0.278   0.000  0.00  0.00    -0.206 NA
ATOM      3  O   UNL d   1       1.242  -1.701   0.000  0.00  0.00    -0.265 OA
ENDROOT
BRANCH   1   4
ATOM      4  C   UNL d   1       2.489  -0.987   0.000  0.00  0.00     0.058 A 
ATOM      5  C   UNL d   1       2.892  -0.278   0.000  0.00  0.00     0.006 A 
ATOM      6  C   UNL d   1       3.731  -0.278   0.000  0.00  0.00     0.018 A 
ATOM      7  C   UNL d   1       4.134  -0.987   0.000  0.00  0.00     0.070 A 
ATOM      8  C   UNL d   1       3.731  -1.701   0.000  0.00  0.00     0.018 A 
ATOM      9  C   UNL d   1       2.892  -1.701   0.000  0.00  0.00     0.006 A 
BRANCH   7  10
ATOM     10  N   UNL d   1       4.982  -0.987   0.000  0.00  0.00    -0.242 N 
ATOM     11  C   UNL d   1       5.538  -0.366   0.000  0.00  0.00     0.267 A 
ATOM     12  C   UNL d   1       6.289  -0.700   0.000  0.00  0.00     0.066 A 
ATOM     13  O   UNL d   1       5.358   0.482   0.000  0.00  0.00    -0.267 OA
ATOM     14  C   UNL d   1       6.178  -1.520   0.000  0.00  0.00     0.066 A 
ATOM     15  C   UNL d   1       5.381  -1.701   0.000  0.00  0.00     0.267 A 
ATOM     16  O   UNL d   1       5.066  -2.480   0.000  0.00  0.00    -0.267 OA
ENDBRANCH   7  10
ENDBRANCH   1   4
BRANCH   2  17
ATOM     17  C   UNL d   1       0.394  -0.278   0.000  0.00  0.00     0.108 A 
ATOM     18  C   UNL d   1      -0.023   0.440   0.000  0.00  0.00     0.045 A 
ATOM     19  C   UNL d   1      -0.848   0.440   0.000  0.00  0.00     0.128 A 
ATOM     20  C   UNL d   1      -1.274  -0.278   0.000  0.00  0.00     0.026 A 
ATOM     21  C   UNL d   1      -0.848  -0.987   0.000  0.00  0.00     0.027 A 
ATOM     22  C   UNL d   1      -0.023  -0.987   0.000  0.00  0.00     0.112 A 
BRANCH  19  23
ATOM     23  N   UNL d   1      -1.247   1.149   0.000  0.00  0.00    -0.114 N 
ATOM     24  O   UNL d   1      -0.890   1.905   0.000  0.00  0.00    -0.532 OA
ATOM     25  O   UNL d   1      -2.109   1.149   0.000  0.00  0.00    -0.532 OA
ENDBRANCH  19  23
BRANCH  22  26
ATOM     26  O   UNL d   1       0.375  -1.701   0.000  0.00  0.00    -0.327 OA
ATOM     27  C   UNL d   1      -0.051  -2.410   0.000  0.00  0.00     0.181 C 
ENDBRANCH  22  26
ENDBRANCH   2  17
TORSDOF 5
