REMARK  5 active torsions:
REMARK  status: ('A' for Active; 'I' for Inactive)
REMARK    1  A    between atoms: N_4  and  C_1 
REMARK    2  A    between atoms: N_5  and  C_1 
REMARK       I    between atoms: C_2  and  N_3 
REMARK    3  A    between atoms: C_8  and  C_2 
REMARK    4  A    between atoms: N_3  and  N_4 
REMARK    5  A    between atoms: C_9  and  N_5 
ROOT
ATOM      1  N   UNL d   1       5.112  -3.387   0.000  0.00  0.00    -0.273 N 
ATOM      2  H   UNL d   1       5.095  -4.206   0.000  0.00  0.00     0.189 HD
ENDROOT
BRANCH   1   3
ATOM      3  N   UNL d   1       5.839  -2.980   0.000  0.00  0.00    -0.264 N 
ATOM      4  C   UNL d   1       5.827  -2.144   0.000  0.00  0.00     0.271 C 
ATOM      5  O   UNL d   1       5.130  -1.725   0.000  0.00  0.00    -0.266 OA
ATOM      6  H   UNL d   1       6.536  -3.387   0.000  0.00  0.00     0.190 HD
BRANCH   4   7
ATOM      7  C   UNL d   1       6.559  -1.725   0.000  0.00  0.00     0.057 A 
ATOM      8  C   UNL d   1       7.274  -2.132   0.000  0.00  0.00     0.005 A 
ATOM      9  C   UNL d   1       7.988  -1.714   0.000  0.00  0.00     0.000 A 
ATOM     10  C   UNL d   1       7.988  -0.889   0.000  0.00  0.00     0.000 A 
ATOM     11  C   UNL d   1       7.274  -0.488   0.000  0.00  0.00     0.000 A 
ATOM     12  C   UNL d   1       6.559  -0.889   0.000  0.00  0.00     0.005 A 
ENDBRANCH   4   7
ENDBRANCH   1   3
BRANCH   1  13
ATOM     13  C   UNL d   1       4.398  -2.969   0.000  0.00  0.00     0.191 C 
ATOM     14  S   UNL d   1       4.398  -2.144   0.000  0.00  0.00    -0.039 SA
BRANCH  13  15
ATOM     15  N   UNL d   1       3.677  -3.387   0.000  0.00  0.00    -0.331 N 
ATOM     16  H   UNL d   1       3.677  -4.206   0.000  0.00  0.00     0.168 HD
BRANCH  15  17
ATOM     17  C   UNL d   1       2.969  -2.969   0.000  0.00  0.00     0.058 A 
ATOM     18  C   UNL d   1       2.254  -3.387   0.000  0.00  0.00     0.017 A 
ATOM     19  C   UNL d   1       1.540  -2.969   0.000  0.00  0.00     0.002 A 
ATOM     20  C   UNL d   1       1.540  -2.144   0.000  0.00  0.00     0.000 A 
ATOM     21  C   UNL d   1       2.272  -1.743   0.000  0.00  0.00     0.002 A 
ATOM     22  C   UNL d   1       2.969  -2.144   0.000  0.00  0.00     0.017 A 
ENDBRANCH  15  17
ENDBRANCH  13  15
ENDBRANCH   1  13
TORSDOF 5
