REMARK  6 active torsions:
REMARK  status: ('A' for Active; 'I' for Inactive)
REMARK    1  A    between atoms: C_3  and  N_1 
REMARK    2  A    between atoms: C_2  and  N_5 
REMARK    3  A    between atoms: N_6  and  C_2 
REMARK    4  A    between atoms: N_5  and  N_9 
REMARK    5  A    between atoms: C_13  and  N_6 
REMARK    6  A    between atoms: N_9  and  C_12 
ROOT
ATOM      1  N   UNL d   1      -1.755  -0.234   0.000  0.00  0.00    -0.276 N 
ATOM      2  H   UNL d   1      -1.755  -1.059   0.000  0.00  0.00     0.189 HD
ENDROOT
BRANCH   1   3
ATOM      3  C   UNL d   1      -2.487   0.170   0.000  0.00  0.00     0.191 C 
ATOM      4  S   UNL d   1      -2.487   1.000   0.000  0.00  0.00    -0.039 SA
BRANCH   3   5
ATOM      5  N   UNL d   1      -3.206  -0.234   0.000  0.00  0.00    -0.331 N 
ATOM      6  H   UNL d   1      -3.189  -1.059   0.000  0.00  0.00     0.168 HD
BRANCH   5   7
ATOM      7  C   UNL d   1      -3.926   0.170   0.000  0.00  0.00     0.058 A 
ATOM      8  C   UNL d   1      -3.926   1.000   0.000  0.00  0.00     0.017 A 
ATOM      9  C   UNL d   1      -4.634   1.404   0.000  0.00  0.00     0.002 A 
ATOM     10  C   UNL d   1      -5.354   1.000   0.000  0.00  0.00     0.000 A 
ATOM     11  C   UNL d   1      -5.354   0.170   0.000  0.00  0.00     0.002 A 
ATOM     12  C   UNL d   1      -4.634  -0.234   0.000  0.00  0.00     0.017 A 
ENDBRANCH   5   7
ENDBRANCH   3   5
ENDBRANCH   1   3
BRANCH   1  13
ATOM     13  N   UNL d   1      -1.047   0.170   0.000  0.00  0.00    -0.297 N 
ATOM     14  H   UNL d   1      -1.047   1.012   0.000  0.00  0.00     0.187 HD
BRANCH  13  15
ATOM     15  C   UNL d   1      -0.310  -0.234   0.000  0.00  0.00     0.072 A 
ATOM     16  C   UNL d   1      -0.310  -1.059   0.000  0.00  0.00     0.020 A 
ATOM     17  C   UNL d   1       0.392  -1.480   0.000  0.00  0.00     0.025 A 
ATOM     18  C   UNL d   1       1.106  -1.059   0.000  0.00  0.00     0.127 A 
ATOM     19  C   UNL d   1       1.106  -0.234   0.000  0.00  0.00     0.025 A 
ATOM     20  C   UNL d   1       0.392   0.170   0.000  0.00  0.00     0.020 A 
BRANCH  18  21
ATOM     21  N   UNL d   1       1.849  -1.498   0.000  0.00  0.00    -0.114 N 
ATOM     22  O   UNL d   1       1.831  -2.323   0.000  0.00  0.00    -0.532 OA
ATOM     23  O   UNL d   1       2.551  -1.077   0.000  0.00  0.00    -0.532 OA
ENDBRANCH  18  21
ENDBRANCH  13  15
ENDBRANCH   1  13
TORSDOF 6
