REMARK  5 active torsions:
REMARK  status: ('A' for Active; 'I' for Inactive)
REMARK    1  A    between atoms: C_6  and  C_1 
REMARK       I    between atoms: C_7  and  N_8 
REMARK    2  A    between atoms: C_16  and  C_7 
REMARK    3  A    between atoms: N_8  and  C_14 
REMARK    4  A    between atoms: O_15  and  C_16 
REMARK    5  A    between atoms: C_21  and  O_15 
ROOT
ATOM      1  C   UNL d   1      -2.413   0.939   0.000  0.00  0.00     0.024 A 
ATOM      2  C   UNL d   1      -2.037   0.207   0.000  0.00  0.00     0.004 A 
ATOM      3  C   UNL d   1      -2.014   1.638   0.000  0.00  0.00     0.004 A 
ATOM      4  C   UNL d   1      -0.770   0.903   0.000  0.00  0.00     0.085 A 
ATOM      5  C   UNL d   1      -1.169   1.638   0.000  0.00  0.00     0.019 A 
ATOM      6  C   UNL d   1      -1.193   0.207   0.000  0.00  0.00     0.019 A 
ENDROOT
BRANCH   4   7
ATOM      7  N   UNL d   1       0.110   0.903   0.000  0.00  0.00    -0.206 NA
ATOM      8  C   UNL d   1       0.504   0.152   0.000  0.00  0.00     0.304 C 
ATOM      9  O   UNL d   1       0.110  -0.563   0.000  0.00  0.00    -0.263 OA
BRANCH   8  10
ATOM     10  C   UNL d   1       1.341   0.152   0.000  0.00  0.00     0.185 C 
BRANCH  10  11
ATOM     11  O   UNL d   1       1.740  -0.563   0.000  0.00  0.00    -0.300 OA
BRANCH  11  12
ATOM     12  C   UNL d   1       2.581  -0.563   0.000  0.00  0.00     0.100 A 
ATOM     13  C   UNL d   1       3.003  -1.271   0.000  0.00  0.00     0.025 A 
ATOM     14  C   UNL d   1       3.816  -1.271   0.000  0.00  0.00     0.002 A 
ATOM     15  C   UNL d   1       4.227  -0.563   0.000  0.00  0.00     0.000 A 
ATOM     16  C   UNL d   1       3.816   0.152   0.000  0.00  0.00     0.002 A 
ATOM     17  C   UNL d   1       3.003   0.152   0.000  0.00  0.00     0.025 A 
ENDBRANCH  11  12
ENDBRANCH  10  11
ENDBRANCH   8  10
ENDBRANCH   4   7
BRANCH   1  18
ATOM     18  C   UNL d   1      -3.249   0.939   0.000  0.00  0.00     0.111 A 
ATOM     19  N   UNL d   1      -3.715   0.281   0.000  0.00  0.00    -0.239 NA
ATOM     20  C   UNL d   1      -4.489   0.516   0.000  0.00  0.00     0.088 A 
ATOM     21  C   UNL d   1      -5.205   0.113   0.000  0.00  0.00     0.020 A 
ATOM     22  C   UNL d   1      -4.489   1.361   0.000  0.00  0.00     0.049 A 
ATOM     23  C   UNL d   1      -5.904   0.516   0.000  0.00  0.00     0.002 A 
ATOM     24  C   UNL d   1      -5.904   1.361   0.000  0.00  0.00     0.001 A 
ATOM     25  C   UNL d   1      -5.205   1.783   0.000  0.00  0.00     0.008 A 
ATOM     26  C   UNL d   1      -6.620   1.783   0.000  0.00  0.00     0.000 C 
ATOM     27  S   UNL d   1      -3.715   1.615   0.000  0.00  0.00    -0.066 SA
ENDBRANCH   1  18
TORSDOF 5
