REMARK  4 active torsions:
REMARK  status: ('A' for Active; 'I' for Inactive)
REMARK    1  A    between atoms: C_2  and  N_1 
REMARK       I    between atoms: C_3  and  N_1 
REMARK    2  A    between atoms: N_4  and  C_2 
REMARK    3  A    between atoms: C_7  and  C_3 
REMARK    4  A    between atoms: C_8  and  N_4 
ROOT
ATOM      1  C   UNL d   1       4.538  -3.334   0.000  0.00  0.00     0.179 C 
ATOM      2  S   UNL d   1       4.538  -2.506   0.000  0.00  0.00    -0.040 SA
ENDROOT
BRANCH   1   3
ATOM      3  N   UNL d   1       3.826  -3.751   0.000  0.00  0.00    -0.299 N 
ATOM      4  C   UNL d   1       3.126  -3.334   0.000  0.00  0.00     0.259 C 
ATOM      5  O   UNL d   1       3.126  -2.506   0.000  0.00  0.00    -0.267 OA
ATOM      6  H   UNL d   1       3.826  -4.567   0.000  0.00  0.00     0.171 HD
BRANCH   4   7
ATOM      7  C   UNL d   1       2.402  -3.751   0.000  0.00  0.00     0.056 A 
ATOM      8  C   UNL d   1       2.402  -4.567   0.000  0.00  0.00     0.005 A 
ATOM      9  C   UNL d   1       1.690  -4.984   0.000  0.00  0.00     0.000 A 
ATOM     10  C   UNL d   1       0.978  -4.567   0.000  0.00  0.00     0.000 A 
ATOM     11  C   UNL d   1       0.978  -3.751   0.000  0.00  0.00     0.000 A 
ATOM     12  C   UNL d   1       1.690  -3.334   0.000  0.00  0.00     0.005 A 
ENDBRANCH   4   7
ENDBRANCH   1   3
BRANCH   1  13
ATOM     13  N   UNL d   1       5.250  -3.751   0.000  0.00  0.00    -0.332 N 
ATOM     14  H   UNL d   1       5.250  -4.567   0.000  0.00  0.00     0.168 HD
BRANCH  13  15
ATOM     15  C   UNL d   1       5.956  -3.334   0.000  0.00  0.00     0.058 A 
ATOM     16  C   UNL d   1       5.956  -2.506   0.000  0.00  0.00     0.018 A 
ATOM     17  C   UNL d   1       6.674  -2.107   0.000  0.00  0.00     0.013 A 
ATOM     18  C   UNL d   1       7.386  -2.506   0.000  0.00  0.00     0.058 A 
ATOM     19  C   UNL d   1       7.386  -3.334   0.000  0.00  0.00     0.013 A 
ATOM     20 CL   UNL d   1       8.098  -2.107   0.000  0.00  0.00    -0.082 Cl
ATOM     21  C   UNL d   1       6.674  -3.751   0.000  0.00  0.00     0.018 A 
ENDBRANCH  13  15
ENDBRANCH   1  13
TORSDOF 4
