REMARK  5 active torsions:
REMARK  status: ('A' for Active; 'I' for Inactive)
REMARK    1  A    between atoms: N_5  and  C_1 
REMARK    2  A    between atoms: N_6  and  C_1 
REMARK       I    between atoms: C_2  and  N_3 
REMARK    3  A    between atoms: C_4  and  C_2 
REMARK    4  A    between atoms: N_3  and  N_5 
REMARK    5  A    between atoms: C_11  and  N_6 
ROOT
ATOM      1  N   UNL d   1      -1.882  -8.825   0.000  0.00  0.00    -0.273 N 
ATOM      2  H   UNL d   1      -1.882  -9.644   0.000  0.00  0.00     0.189 HD
ENDROOT
BRANCH   1   3
ATOM      3  N   UNL d   1      -2.608  -8.418   0.000  0.00  0.00    -0.264 N 
ATOM      4  C   UNL d   1      -3.323  -8.825   0.000  0.00  0.00     0.272 C 
ATOM      5  O   UNL d   1      -3.323  -9.644   0.000  0.00  0.00    -0.266 OA
ATOM      6  H   UNL d   1      -2.608  -7.581   0.000  0.00  0.00     0.190 HD
BRANCH   4   7
ATOM      7  C   UNL d   1      -4.038  -8.418   0.000  0.00  0.00     0.058 A 
ATOM      8  C   UNL d   1      -4.758  -8.836   0.000  0.00  0.00     0.011 A 
ATOM      9  C   UNL d   1      -5.467  -8.418   0.000  0.00  0.00     0.035 A 
ATOM     10 BR   UNL d   1      -6.181  -8.825   0.000  0.00  0.00    -0.049 Br
ATOM     11  C   UNL d   1      -5.467  -7.599   0.000  0.00  0.00     0.007 A 
ATOM     12  C   UNL d   1      -4.758  -7.181   0.000  0.00  0.00     0.001 A 
ATOM     13  C   UNL d   1      -4.038  -7.599   0.000  0.00  0.00     0.005 A 
ENDBRANCH   4   7
ENDBRANCH   1   3
BRANCH   1  14
ATOM     14  C   UNL d   1      -1.179  -8.406   0.000  0.00  0.00     0.191 C 
ATOM     15  S   UNL d   1      -1.179  -7.581   0.000  0.00  0.00    -0.039 SA
BRANCH  14  16
ATOM     16  N   UNL d   1      -0.465  -8.825   0.000  0.00  0.00    -0.331 N 
ATOM     17  H   UNL d   1      -0.465  -9.644   0.000  0.00  0.00     0.168 HD
BRANCH  16  18
ATOM     18  C   UNL d   1       0.232  -8.406   0.000  0.00  0.00     0.058 A 
ATOM     19  C   UNL d   1       0.959  -8.825   0.000  0.00  0.00     0.017 A 
ATOM     20  C   UNL d   1       1.673  -8.406   0.000  0.00  0.00     0.002 A 
ATOM     21  C   UNL d   1       1.673  -7.581   0.000  0.00  0.00     0.000 A 
ATOM     22  C   UNL d   1       0.947  -7.163   0.000  0.00  0.00     0.002 A 
ATOM     23  C   UNL d   1       0.232  -7.581   0.000  0.00  0.00     0.017 A 
ENDBRANCH  16  18
ENDBRANCH  14  16
ENDBRANCH   1  14
TORSDOF 5
