REMARK  4 active torsions:
REMARK  status: ('A' for Active; 'I' for Inactive)
REMARK    1  A    between atoms: C_8  and  C_2 
REMARK    2  A    between atoms: C_9  and  N_3 
REMARK    3  A    between atoms: C_12  and  C_9 
REMARK    4  A    between atoms: C_14  and  C_12 
ROOT
ATOM      1  N   UNL d   1       3.685  -1.074   0.000  0.00  0.00    -0.217 NA
ATOM      2  C   UNL d   1       3.685  -1.895   0.000  0.00  0.00     0.149 A 
ATOM      3  N   UNL d   1       2.972  -2.305   0.000  0.00  0.00    -0.290 N 
ATOM      4  C   UNL d   1       2.268  -1.061   0.000  0.00  0.00     0.044 A 
ATOM      5  C   UNL d   1       2.985  -0.651   0.000  0.00  0.00     0.139 A 
ATOM      6  C   UNL d   1       2.255  -1.890   0.000  0.00  0.00     0.068 A 
ATOM      7  S   UNL d   1       2.985   0.162   0.000  0.00  0.00    -0.057 SA
ATOM      8  C   UNL d   1       1.559  -0.647   0.000  0.00  0.00     0.004 A 
ATOM      9  C   UNL d   1       1.546  -2.292   0.000  0.00  0.00     0.018 A 
ATOM     10  C   UNL d   1       0.846  -1.049   0.000  0.00  0.00     0.000 A 
ATOM     11  C   UNL d   1       0.846  -1.890   0.000  0.00  0.00     0.002 A 
ENDROOT
BRANCH   2  12
ATOM     12  C   UNL d   1       4.394  -2.317   0.000  0.00  0.00     0.035 A 
ATOM     13  C   UNL d   1       4.382  -3.138   0.000  0.00  0.00     0.003 A 
ATOM     14  C   UNL d   1       5.103  -3.561   0.000  0.00  0.00     0.000 A 
ATOM     15  C   UNL d   1       5.820  -3.151   0.000  0.00  0.00     0.000 A 
ATOM     16  C   UNL d   1       5.820  -2.326   0.000  0.00  0.00     0.000 A 
ATOM     17  C   UNL d   1       5.112  -1.907   0.000  0.00  0.00     0.003 A 
ENDBRANCH   2  12
BRANCH   3  18
ATOM     18  C   UNL d   1       2.972  -3.134   0.000  0.00  0.00     0.085 C 
BRANCH  18  19
ATOM     19  C   UNL d   1       2.255  -3.532   0.000  0.00  0.00     0.064 C 
BRANCH  19  20
ATOM     20  C   UNL d   1       2.243  -4.357   0.000  0.00  0.00     0.236 C 
ATOM     21  O   UNL d   1       1.542  -4.763   0.000  0.00  0.00    -0.283 OA
ENDBRANCH  19  20
ENDBRANCH  18  19
ENDBRANCH   3  18
TORSDOF 4
