REMARK  7 active torsions:
REMARK  status: ('A' for Active; 'I' for Inactive)
REMARK    1  A    between atoms: C_2  and  C_1 
REMARK    2  A    between atoms: O_12  and  C_1 
REMARK       I    between atoms: C_3  and  N_4 
REMARK    3  A    between atoms: C_11  and  C_3 
REMARK    4  A    between atoms: N_4  and  C_7 
REMARK    5  A    between atoms: C_5  and  C_13 
REMARK    6  A    between atoms: O_14  and  C_5 
REMARK    7  A    between atoms: C_13  and  C_11 
ROOT
ATOM      1  C   UNL d   1      -3.499  -7.337   0.000  0.00  0.00     0.063 A 
ATOM      2  C   UNL d   1      -3.070  -8.041   0.000  0.00  0.00     0.023 A 
ATOM      3  C   UNL d   1      -2.245  -8.041   0.000  0.00  0.00     0.059 A 
ATOM      4  C   UNL d   1      -3.093  -6.604   0.000  0.00  0.00     0.006 A 
ATOM      5  C   UNL d   1      -2.262  -6.604   0.000  0.00  0.00     0.002 A 
ATOM      6  C   UNL d   1      -1.850  -7.325   0.000  0.00  0.00     0.017 A 
ENDROOT
BRANCH   3   7
ATOM      7  N   UNL d   1      -1.815  -8.768   0.000  0.00  0.00    -0.321 N 
ATOM      8  C   UNL d   1      -0.991  -8.751   0.000  0.00  0.00     0.258 C 
ATOM      9  O   UNL d   1      -0.567  -9.467   0.000  0.00  0.00    -0.267 OA
ATOM     10  H   UNL d   1      -2.228  -9.484   0.000  0.00  0.00     0.169 HD
BRANCH   8  11
ATOM     11  C   UNL d   1      -0.567  -8.041   0.000  0.00  0.00     0.067 C 
BRANCH  11  12
ATOM     12  C   UNL d   1       0.246  -8.024   0.000  0.00  0.00     0.072 C 
BRANCH  12  13
ATOM     13  C   UNL d   1       0.641  -7.308   0.000  0.00  0.00     0.178 C 
ATOM     14  O   UNL d   1       1.466  -7.308   0.000  0.00  0.00    -0.646 OA
BRANCH  13  15
ATOM     15  O   UNL d   1       0.229  -6.604   0.000  0.00  0.00    -0.773 OA
ATOM     16  H   UNL d   1      -0.578  -6.604   0.000  0.00  0.00     0.167 HD
ENDBRANCH  13  15
ENDBRANCH  12  13
ENDBRANCH  11  12
ENDBRANCH   8  11
ENDBRANCH   3   7
BRANCH   1  17
ATOM     17  C   UNL d   1      -4.324  -7.354   0.000  0.00  0.00     0.178 C 
ATOM     18  O   UNL d   1      -4.742  -6.638   0.000  0.00  0.00    -0.646 OA
BRANCH  17  19
ATOM     19  O   UNL d   1      -4.719  -8.064   0.000  0.00  0.00    -0.773 OA
ATOM     20  H   UNL d   1      -4.307  -8.780   0.000  0.00  0.00     0.167 HD
ENDBRANCH  17  19
ENDBRANCH   1  17
TORSDOF 7
