REMARK  2 active torsions:
REMARK  status: ('A' for Active; 'I' for Inactive)
REMARK    1  A    between atoms: C_6  and  C_1 
REMARK    2  A    between atoms: C_8  and  C_5 
ROOT
ATOM      1  C   UNL d   1      -1.091  -0.884   0.000  0.00  0.00     0.169 A 
ATOM      2  C   UNL d   1      -1.356  -0.092   0.000  0.00  0.00     0.048 A 
ATOM      3  N   UNL d   1      -2.432  -0.884   0.000  0.00  0.00    -0.148 NA
ATOM      4  N   UNL d   1      -1.765  -1.371   0.000  0.00  0.00    -0.142 NA
ATOM      5  C   UNL d   1      -2.167  -0.092   0.000  0.00  0.00     0.105 A 
ENDROOT
BRANCH   5   6
ATOM      6  C   UNL d   1      -2.638   0.560   0.000  0.00  0.00     0.019 A 
ATOM      7  C   UNL d   1      -2.299   1.312   0.000  0.00  0.00     0.002 A 
ATOM      8  C   UNL d   1      -2.771   1.990   0.000  0.00  0.00     0.000 A 
ATOM      9  C   UNL d   1      -3.592   1.901   0.000  0.00  0.00     0.000 A 
ATOM     10  C   UNL d   1      -3.942   1.150   0.000  0.00  0.00     0.000 A 
ATOM     11  C   UNL d   1      -3.460   0.486   0.000  0.00  0.00     0.002 A 
ENDBRANCH   5   6
BRANCH   1  12
ATOM     12  C   UNL d   1      -0.309  -1.105   0.000  0.00  0.00     0.231 C 
ATOM     13  O   UNL d   1       0.291  -0.575   0.000  0.00  0.00    -0.643 OA
ATOM     14  O   UNL d   1      -0.100  -1.901   0.000  0.00  0.00    -0.643 OA
ENDBRANCH   1  12
TORSDOF 2
