REMARK  0 active torsions:
REMARK  status: ('A' for Active; 'I' for Inactive)
ROOT
ATOM      1  N   UNL d   1      -1.567   0.324   0.000  0.00  0.00    -0.300 N 
ATOM      2  C   UNL d   1      -0.144   0.347   0.000  0.00  0.00     0.295 A 
ATOM      3  N   UNL d   1      -0.144  -0.486   0.000  0.00  0.00    -0.205 NA
ATOM      4  C   UNL d   1      -0.860   0.756   0.000  0.00  0.00     0.123 A 
ATOM      5  C   UNL d   1      -1.567  -0.486   0.000  0.00  0.00     0.082 A 
ATOM      6  C   UNL d   1      -0.860  -0.896   0.000  0.00  0.00     0.101 A 
ATOM      7  O   UNL d   1       0.545   0.770   0.000  0.00  0.00    -0.264 OA
ATOM      8  C   UNL d   1      -2.175   0.860   0.000  0.00  0.00     0.080 A 
ATOM      9  C   UNL d   1      -1.049   1.563   0.000  0.00  0.00     0.024 A 
ATOM     10  C   UNL d   1      -2.292  -0.896   0.000  0.00  0.00     0.019 A 
ATOM     11  C   UNL d   1      -0.860  -1.729   0.000  0.00  0.00     0.021 A 
ATOM     12  C   UNL d   1      -1.887   1.621   0.000  0.00  0.00     0.021 A 
ATOM     13  C   UNL d   1      -2.292  -1.729   0.000  0.00  0.00     0.002 A 
ATOM     14  C   UNL d   1      -1.581  -2.126   0.000  0.00  0.00     0.002 A 
ENDROOT
TORSDOF 0
