REMARK  2 active torsions:
REMARK  status: ('A' for Active; 'I' for Inactive)
REMARK       I    between atoms: N_2  and  C_1 
REMARK    1  A    between atoms: C_6  and  C_1 
REMARK    2  A    between atoms: C_4  and  N_2 
ROOT
ATOM      1  C   UNL d   1       3.184  -7.502   0.000  0.00  0.00     0.279 C 
ATOM      2  N   UNL d   1       3.600  -8.211   0.000  0.00  0.00    -0.204 NA
ATOM      3  O   UNL d   1       3.596  -6.780   0.000  0.00  0.00    -0.265 OA
ENDROOT
BRANCH   1   4
ATOM      4  C   UNL d   1       2.359  -7.502   0.000  0.00  0.00     0.058 A 
ATOM      5  C   UNL d   1       1.946  -8.201   0.000  0.00  0.00     0.006 A 
ATOM      6  C   UNL d   1       1.121  -8.201   0.000  0.00  0.00     0.012 A 
ATOM      7  C   UNL d   1       0.699  -7.502   0.000  0.00  0.00     0.058 A 
ATOM      8  C   UNL d   1       1.121  -6.771   0.000  0.00  0.00     0.012 A 
ATOM      9 CL   UNL d   1      -0.103  -7.502   0.000  0.00  0.00    -0.082 Cl
ATOM     10  C   UNL d   1       1.946  -6.771   0.000  0.00  0.00     0.006 A 
ENDBRANCH   1   4
BRANCH   2  11
ATOM     11  C   UNL d   1       4.431  -8.201   0.000  0.00  0.00     0.130 A 
ATOM     12  C   UNL d   1       4.914  -7.541   0.000  0.00  0.00     0.243 A 
ATOM     13  S   UNL d   1       5.697  -7.795   0.000  0.00  0.00    -0.044 SA
ATOM     14  O   UNL d   1       4.653  -6.751   0.000  0.00  0.00    -0.278 OA
ATOM     15  C   UNL d   1       5.697  -8.624   0.000  0.00  0.00     0.040 A 
ATOM     16  C   UNL d   1       4.914  -8.878   0.000  0.00  0.00     0.030 A 
ENDBRANCH   2  11
TORSDOF 2
