REMARK  1 active torsions:
REMARK  status: ('A' for Active; 'I' for Inactive)
REMARK    1  A    between atoms: C_6  and  C_1 
ROOT
ATOM      1  C   UNL d   1       0.181   1.268   0.000  0.00  0.00     0.111 A 
ATOM      2  N   UNL d   1      -0.302   0.599   0.000  0.00  0.00    -0.239 NA
ATOM      3  S   UNL d   1      -0.302   1.947   0.000  0.00  0.00    -0.066 SA
ATOM      4  C   UNL d   1      -1.082   0.860   0.000  0.00  0.00     0.088 A 
ATOM      5  C   UNL d   1      -1.082   1.685   0.000  0.00  0.00     0.049 A 
ATOM      6  C   UNL d   1      -1.806   0.448   0.000  0.00  0.00     0.020 A 
ATOM      7  C   UNL d   1      -1.806   2.093   0.000  0.00  0.00     0.008 A 
ATOM      8  C   UNL d   1      -2.530   1.685   0.000  0.00  0.00     0.001 A 
ATOM      9  C   UNL d   1      -2.530   0.860   0.000  0.00  0.00     0.002 A 
ENDROOT
BRANCH   1  10
ATOM     10  C   UNL d   1       0.986   1.323   0.000  0.00  0.00     0.025 A 
ATOM     11  C   UNL d   1       1.389   2.068   0.000  0.00  0.00     0.023 A 
ATOM     12  C   UNL d   1       2.193   2.113   0.000  0.00  0.00     0.103 A 
ATOM     13  N   UNL d   1       2.541   2.862   0.000  0.00  0.00    -0.148 N 
ATOM     14  C   UNL d   1       2.646   1.389   0.000  0.00  0.00     0.021 A 
ATOM     15  C   UNL d   1       2.269   0.664   0.000  0.00  0.00     0.002 A 
ATOM     16  C   UNL d   1       1.449   0.644   0.000  0.00  0.00     0.002 A 
ENDBRANCH   1  10
TORSDOF 1
