REMARK  4 active torsions:
REMARK  status: ('A' for Active; 'I' for Inactive)
REMARK    1  A    between atoms: C_7  and  C_2 
REMARK    2  A    between atoms: C_6  and  C_3 
REMARK    3  A    between atoms: C_9  and  C_6 
REMARK    4  A    between atoms: O_15  and  C_10 
ROOT
ATOM      1  N   UNL d   1       6.123  -1.930   0.000  0.00  0.00    -0.201 NA
ATOM      2  C   UNL d   1       5.463  -2.420   0.000  0.00  0.00     0.114 A 
ATOM      3  C   UNL d   1       5.060  -1.155   0.000  0.00  0.00     0.089 A 
ATOM      4  C   UNL d   1       5.885  -1.155   0.000  0.00  0.00     0.286 A 
ATOM      5  S   UNL d   1       4.790  -1.925   0.000  0.00  0.00    -0.063 SA
ATOM      6  O   UNL d   1       6.380  -0.495   0.000  0.00  0.00    -0.265 OA
ENDROOT
BRANCH   3   7
ATOM      7  C   UNL d   1       4.570  -0.495   0.000  0.00  0.00     0.011 C 
BRANCH   7   8
ATOM      8  C   UNL d   1       3.745  -0.555   0.000  0.00  0.00     0.001 A 
ATOM      9  C   UNL d   1       3.263   0.092   0.000  0.00  0.00     0.002 A 
ATOM     10  C   UNL d   1       2.452   0.000   0.000  0.00  0.00     0.024 A 
ATOM     11  C   UNL d   1       2.108  -0.720   0.000  0.00  0.00     0.094 A 
ATOM     12  C   UNL d   1       2.590  -1.393   0.000  0.00  0.00     0.024 A 
ATOM     13  C   UNL d   1       3.410  -1.320   0.000  0.00  0.00     0.002 A 
BRANCH  11  14
ATOM     14  O   UNL d   1       1.283  -0.802   0.000  0.00  0.00    -0.328 OA
ATOM     15  C   UNL d   1       0.802  -0.142   0.000  0.00  0.00     0.181 C 
ENDBRANCH  11  14
ENDBRANCH   7   8
ENDBRANCH   3   7
BRANCH   2  16
ATOM     16  C   UNL d   1       5.463  -3.245   0.000  0.00  0.00     0.024 A 
ATOM     17  C   UNL d   1       4.748  -3.648   0.000  0.00  0.00     0.002 A 
ATOM     18  C   UNL d   1       4.748  -4.473   0.000  0.00  0.00     0.000 A 
ATOM     19  C   UNL d   1       5.463  -4.886   0.000  0.00  0.00     0.000 A 
ATOM     20  C   UNL d   1       6.178  -4.473   0.000  0.00  0.00     0.000 A 
ATOM     21  C   UNL d   1       6.178  -3.648   0.000  0.00  0.00     0.002 A 
ENDBRANCH   2  16
TORSDOF 4
