REMARK  1 active torsions:
REMARK  status: ('A' for Active; 'I' for Inactive)
REMARK    1  A    between atoms: C_2  and  C_1 
ROOT
ATOM      1  C   UNL d   1       0.650   0.000   0.000  0.00  0.00     0.067 A 
ATOM      2  C   UNL d   1      -0.776   0.000   0.000  0.00  0.00     0.123 A 
ATOM      3  C   UNL d   1      -0.063   0.418   0.000  0.00  0.00     0.033 A 
ATOM      4  C   UNL d   1      -0.776  -0.825   0.000  0.00  0.00     0.123 A 
ATOM      5  O   UNL d   1      -1.494   0.418   0.000  0.00  0.00    -0.301 OA
ATOM      6  O   UNL d   1      -1.494  -1.238   0.000  0.00  0.00    -0.301 OA
ATOM      7  C   UNL d   1       0.650  -0.825   0.000  0.00  0.00     0.008 A 
ATOM      8  C   UNL d   1      -0.063  -1.238   0.000  0.00  0.00     0.027 A 
ATOM      9  C   UNL d   1      -2.211   0.000   0.000  0.00  0.00     0.149 A 
ATOM     10  C   UNL d   1      -2.211  -0.825   0.000  0.00  0.00     0.149 A 
ENDROOT
BRANCH   1  11
ATOM     11  C   UNL d   1       1.363   0.418   0.000  0.00  0.00     0.211 C 
ATOM     12  O   UNL d   1       2.104   0.056   0.000  0.00  0.00    -0.644 OA
ATOM     13  O   UNL d   1       1.407   1.243   0.000  0.00  0.00    -0.644 OA
ENDBRANCH   1  11
TORSDOF 1
