REMARK  4 active torsions:
REMARK  status: ('A' for Active; 'I' for Inactive)
REMARK    1  A    between atoms: C_8  and  N_2 
REMARK    2  A    between atoms: C_7  and  O_14 
REMARK    3  A    between atoms: C_15  and  C_8 
REMARK    4  A    between atoms: O_14  and  C_15 
ROOT
ATOM      1  C   UNL d   1      -1.387  -0.644   0.000  0.00  0.00     0.108 C 
ENDROOT
BRANCH   1   2
ATOM      2  N   UNL d   1      -1.629   0.151   0.000  0.00  0.00    -0.285 N 
ATOM      3  C   UNL d   1      -1.122   0.868   0.000  0.00  0.00     0.183 A 
ATOM      4  N   UNL d   1      -1.685   1.545   0.000  0.00  0.00    -0.224 NA
ATOM      5  C   UNL d   1      -2.472   1.276   0.000  0.00  0.00     0.099 A 
ATOM      6  C   UNL d   1      -2.472   0.416   0.000  0.00  0.00     0.083 A 
ATOM      7  C   UNL d   1      -3.152   1.663   0.000  0.00  0.00     0.021 A 
ATOM      8  C   UNL d   1      -3.152   0.011   0.000  0.00  0.00     0.019 A 
ATOM      9  C   UNL d   1      -3.896   0.452   0.000  0.00  0.00     0.002 A 
ATOM     10  C   UNL d   1      -3.896   1.276   0.000  0.00  0.00     0.002 A 
ENDBRANCH   1   2
BRANCH   1  11
ATOM     11  C   UNL d   1      -1.927  -1.251   0.000  0.00  0.00     0.142 C 
BRANCH  11  12
ATOM     12  O   UNL d   1      -1.663  -2.034   0.000  0.00  0.00    -0.304 OA
BRANCH  12  13
ATOM     13  C   UNL d   1      -0.850  -2.207   0.000  0.00  0.00     0.100 A 
ATOM     14  C   UNL d   1      -0.305  -1.589   0.000  0.00  0.00     0.026 A 
ATOM     15  C   UNL d   1       0.500  -1.725   0.000  0.00  0.00     0.013 A 
ATOM     16  C   UNL d   1       0.798  -2.516   0.000  0.00  0.00     0.058 A 
ATOM     17  C   UNL d   1       0.235  -3.138   0.000  0.00  0.00     0.013 A 
ATOM     18 CL   UNL d   1       1.633  -2.648   0.000  0.00  0.00    -0.082 Cl
ATOM     19  C   UNL d   1      -0.570  -2.983   0.000  0.00  0.00     0.026 A 
ENDBRANCH  12  13
ENDBRANCH  11  12
ENDBRANCH   1  11
TORSDOF 4
