REMARK  1 active torsions:
REMARK  status: ('A' for Active; 'I' for Inactive)
REMARK    1  A    between atoms: C_5  and  C_1 
ROOT
ATOM      1  N   UNL d   1       4.424   0.863   0.000  0.00  0.00    -0.242 NA
ATOM      2  C   UNL d   1       4.007   1.574   0.000  0.00  0.00     0.117 A 
ATOM      3  C   UNL d   1       5.258   0.888   0.000  0.00  0.00     0.081 A 
ATOM      4  C   UNL d   1       4.391   2.288   0.000  0.00  0.00     0.022 A 
ATOM      5  C   UNL d   1       5.643   1.594   0.000  0.00  0.00     0.018 A 
ATOM      6  C   UNL d   1       5.217   2.288   0.000  0.00  0.00     0.003 A 
ATOM      7  C   UNL d   1       5.680   0.182   0.000  0.00  0.00     0.019 A 
ATOM      8  C   UNL d   1       6.469   1.594   0.000  0.00  0.00     0.002 A 
ATOM      9  C   UNL d   1       6.510   0.194   0.000  0.00  0.00     0.002 A 
ATOM     10  C   UNL d   1       6.894   0.905   0.000  0.00  0.00     0.000 A 
ENDROOT
BRANCH   2  11
ATOM     11  C   UNL d   1       3.189   1.574   0.000  0.00  0.00     0.180 A 
ATOM     12  N   UNL d   1       2.693   0.905   0.000  0.00  0.00    -0.224 NA
ATOM     13  C   UNL d   1       1.925   1.165   0.000  0.00  0.00     0.101 A 
ATOM     14  C   UNL d   1       1.194   0.752   0.000  0.00  0.00     0.021 A 
ATOM     15  C   UNL d   1       1.925   1.991   0.000  0.00  0.00     0.101 A 
ATOM     16  C   UNL d   1       0.483   1.165   0.000  0.00  0.00     0.002 A 
ATOM     17  C   UNL d   1       0.483   1.991   0.000  0.00  0.00     0.002 A 
ATOM     18  C   UNL d   1       1.194   2.412   0.000  0.00  0.00     0.021 A 
ATOM     19  N   UNL d   1       2.693   2.251   0.000  0.00  0.00    -0.224 NA
ENDBRANCH   2  11
TORSDOF 1
