REMARK  4 active torsions:
REMARK  status: ('A' for Active; 'I' for Inactive)
REMARK    1  A    between atoms: N_2  and  C_1 
REMARK       I    between atoms: C_3  and  N_2 
REMARK    2  A    between atoms: C_6  and  C_3 
REMARK    3  A    between atoms: C_11  and  C_7 
REMARK    4  A    between atoms: C_10  and  C_11 
ROOT
ATOM      1  C   UNL d   1       1.003  -0.648   0.000  0.00  0.00     0.197 A 
ATOM      2  N   UNL d   1       1.800  -0.774   0.000  0.00  0.00    -0.219 NA
ATOM      3  S   UNL d   1       0.868   0.175   0.000  0.00  0.00    -0.047 SA
ATOM      4  C   UNL d   1       1.606   0.540   0.000  0.00  0.00     0.051 A 
ATOM      5  C   UNL d   1       2.191  -0.032   0.000  0.00  0.00     0.108 A 
ENDROOT
BRANCH   1   6
ATOM      6  N   UNL d   1       0.418  -1.246   0.000  0.00  0.00    -0.182 NA
ATOM      7  C   UNL d   1      -0.378  -1.057   0.000  0.00  0.00     0.287 C 
ATOM      8  O   UNL d   1      -0.594  -0.274   0.000  0.00  0.00    -0.265 OA
BRANCH   7   9
ATOM      9  C   UNL d   1      -0.940  -1.637   0.000  0.00  0.00     0.087 A 
ATOM     10  S   UNL d   1      -1.723  -1.444   0.000  0.00  0.00    -0.082 SA
ATOM     11  C   UNL d   1      -2.155  -2.159   0.000  0.00  0.00     0.036 A 
ATOM     12  C   UNL d   1      -1.655  -2.758   0.000  0.00  0.00     0.008 A 
ATOM     13  C   UNL d   1      -0.877  -2.461   0.000  0.00  0.00     0.012 A 
ENDBRANCH   7   9
ENDBRANCH   1   6
BRANCH   4  14
ATOM     14  C   UNL d   1       1.840   1.318   0.000  0.00  0.00     0.009 C 
BRANCH  14  15
ATOM     15  C   UNL d   1       1.260   1.925   0.000  0.00  0.00     0.011 A 
ATOM     16  C   UNL d   1       0.463   1.727   0.000  0.00  0.00     0.058 A 
ATOM     17 CL   UNL d   1       0.221   0.931   0.000  0.00  0.00    -0.082 Cl
ATOM     18  C   UNL d   1      -0.121   2.335   0.000  0.00  0.00     0.011 A 
ATOM     19  C   UNL d   1       0.095   3.113   0.000  0.00  0.00     0.001 A 
ATOM     20  C   UNL d   1       0.895   3.329   0.000  0.00  0.00     0.000 A 
ATOM     21  C   UNL d   1       1.476   2.722   0.000  0.00  0.00     0.001 A 
ENDBRANCH  14  15
ENDBRANCH   4  14
TORSDOF 4
