REMARK  4 active torsions:
REMARK  status: ('A' for Active; 'I' for Inactive)
REMARK    1  A    between atoms: C_7  and  C_1 
REMARK    2  A    between atoms: N_5  and  C_2 
REMARK    3  A    between atoms: C_12  and  N_5 
REMARK    4  A    between atoms: O_21  and  C_14 
ROOT
ATOM      1  C   UNL d   1       1.044   1.197   0.000  0.00  0.00     0.101 A 
ATOM      2  C   UNL d   1       1.044   0.360   0.000  0.00  0.00     0.187 A 
ATOM      3  C   UNL d   1       0.324   1.599   0.000  0.00  0.00     0.010 A 
ATOM      4  O   UNL d   1       0.324  -0.048   0.000  0.00  0.00    -0.289 OA
ATOM      5  C   UNL d   1      -0.393   0.360   0.000  0.00  0.00     0.104 A 
ATOM      6  C   UNL d   1      -0.393   1.197   0.000  0.00  0.00     0.023 A 
ATOM      7  C   UNL d   1      -1.113  -0.048   0.000  0.00  0.00     0.049 A 
ATOM      8  C   UNL d   1      -1.113   1.599   0.000  0.00  0.00     0.004 A 
ATOM      9  C   UNL d   1      -1.833   0.360   0.000  0.00  0.00     0.096 A 
ATOM     10  C   UNL d   1      -1.833   1.197   0.000  0.00  0.00     0.024 A 
ENDROOT
BRANCH   2  11
ATOM     11  N   UNL d   1       1.758  -0.048   0.000  0.00  0.00    -0.222 NA
BRANCH  11  12
ATOM     12  C   UNL d   1       1.758  -0.885   0.000  0.00  0.00     0.084 A 
ATOM     13  C   UNL d   1       1.044  -1.296   0.000  0.00  0.00     0.019 A 
ATOM     14  C   UNL d   1       1.044  -2.124   0.000  0.00  0.00     0.002 A 
ATOM     15  C   UNL d   1       1.758  -2.522   0.000  0.00  0.00     0.000 A 
ATOM     16  C   UNL d   1       2.469  -2.124   0.000  0.00  0.00     0.002 A 
ATOM     17  C   UNL d   1       1.776  -3.347   0.000  0.00  0.00     0.000 C 
ATOM     18  C   UNL d   1       2.469  -1.296   0.000  0.00  0.00     0.019 A 
ENDBRANCH  11  12
ENDBRANCH   2  11
BRANCH   1  19
ATOM     19  C   UNL d   1       1.758   1.617   0.000  0.00  0.00     0.300 C 
ATOM     20  O   UNL d   1       1.758   2.436   0.000  0.00  0.00    -0.264 OA
ATOM     21  N   UNL d   1       2.469   1.197   0.000  0.00  0.00    -0.102 N 
ENDBRANCH   1  19
BRANCH   9  22
ATOM     22  O   UNL d   1      -2.543  -0.039   0.000  0.00  0.00    -0.328 OA
ATOM     23  C   UNL d   1      -2.543  -0.864   0.000  0.00  0.00     0.181 C 
ENDBRANCH   9  22
TORSDOF 4
