REMARK  4 active torsions:
REMARK  status: ('A' for Active; 'I' for Inactive)
REMARK    1  A    between atoms: N_2  and  C_1 
REMARK       I    between atoms: C_3  and  N_2 
REMARK    2  A    between atoms: C_6  and  C_3 
REMARK    3  A    between atoms: C_11  and  C_7 
REMARK    4  A    between atoms: C_8  and  C_11 
ROOT
ATOM      1  C   UNL d   1       0.972  -2.861   0.000  0.00  0.00     0.197 A 
ATOM      2  N   UNL d   1       1.768  -2.987   0.000  0.00  0.00    -0.219 NA
ATOM      3  S   UNL d   1       0.841  -2.038   0.000  0.00  0.00    -0.047 SA
ATOM      4  C   UNL d   1       1.570  -1.673   0.000  0.00  0.00     0.051 A 
ATOM      5  C   UNL d   1       2.159  -2.254   0.000  0.00  0.00     0.108 A 
ENDROOT
BRANCH   4   6
ATOM      6  C   UNL d   1       1.813  -0.895   0.000  0.00  0.00     0.009 C 
BRANCH   6   7
ATOM      7  C   UNL d   1       1.228  -0.288   0.000  0.00  0.00     0.012 A 
ATOM      8  C   UNL d   1       0.432  -0.486   0.000  0.00  0.00     0.058 A 
ATOM      9  C   UNL d   1      -0.157   0.121   0.000  0.00  0.00     0.012 A 
ATOM     10 CL   UNL d   1       0.194  -1.282   0.000  0.00  0.00    -0.082 Cl
ATOM     11  C   UNL d   1       0.059   0.900   0.000  0.00  0.00     0.012 A 
ATOM     12  C   UNL d   1       0.864   1.116   0.000  0.00  0.00     0.058 A 
ATOM     13  C   UNL d   1       1.444   0.508   0.000  0.00  0.00     0.012 A 
ATOM     14 CL   UNL d   1       1.057   1.939   0.000  0.00  0.00    -0.082 Cl
ENDBRANCH   6   7
ENDBRANCH   4   6
BRANCH   1  15
ATOM     15  N   UNL d   1       0.382  -3.459   0.000  0.00  0.00    -0.182 NA
ATOM     16  C   UNL d   1      -0.414  -3.271   0.000  0.00  0.00     0.287 C 
ATOM     17  O   UNL d   1      -0.630  -2.488   0.000  0.00  0.00    -0.265 OA
BRANCH  16  18
ATOM     18  C   UNL d   1      -0.972  -3.851   0.000  0.00  0.00     0.087 A 
ATOM     19  S   UNL d   1      -0.913  -4.674   0.000  0.00  0.00    -0.082 SA
ATOM     20  C   UNL d   1      -1.687  -4.971   0.000  0.00  0.00     0.036 A 
ATOM     21  C   UNL d   1      -2.182  -4.373   0.000  0.00  0.00     0.008 A 
ATOM     22  C   UNL d   1      -1.750  -3.657   0.000  0.00  0.00     0.012 A 
ENDBRANCH  16  18
ENDBRANCH   1  15
TORSDOF 4
