REMARK  4 active torsions:
REMARK  status: ('A' for Active; 'I' for Inactive)
REMARK    1  A    between atoms: N_3  and  S_1 
REMARK    2  A    between atoms: C_5  and  S_1 
REMARK    3  A    between atoms: C_2  and  N_3 
REMARK    4  A    between atoms: O_18  and  C_11 
ROOT
ATOM      1  C   UNL d   1       0.556  -0.672   0.000  0.00  0.00     0.113 A 
ATOM      2  C   UNL d   1       1.390  -0.672   0.000  0.00  0.00     0.100 A 
ATOM      3  C   UNL d   1       0.130   0.023   0.000  0.00  0.00     0.046 A 
ATOM      4  C   UNL d   1       1.798   0.023   0.000  0.00  0.00     0.021 A 
ATOM      5  N   UNL d   1       1.798  -1.390   0.000  0.00  0.00    -0.242 NA
ATOM      6  C   UNL d   1       0.556   0.737   0.000  0.00  0.00     0.096 A 
ATOM      7  C   UNL d   1       1.390   0.737   0.000  0.00  0.00     0.026 A 
ATOM      8  C   UNL d   1       2.619   0.023   0.000  0.00  0.00     0.003 A 
ATOM      9  C   UNL d   1       2.619  -1.390   0.000  0.00  0.00     0.099 A 
ATOM     10  C   UNL d   1       3.059  -0.672   0.000  0.00  0.00     0.021 A 
ENDROOT
BRANCH   1  11
ATOM     11  N   UNL d   1       0.111  -1.409   0.000  0.00  0.00    -0.157 NA
BRANCH  11  12
ATOM     12  S   UNL d   1      -0.723  -1.409   0.000  0.00  0.00     0.285 S 
ATOM     13  O   UNL d   1      -0.723  -0.561   0.000  0.00  0.00    -0.198 OA
ATOM     14  O   UNL d   1      -0.723  -2.229   0.000  0.00  0.00    -0.198 OA
BRANCH  12  15
ATOM     15  C   UNL d   1      -1.553  -1.409   0.000  0.00  0.00     0.105 A 
ATOM     16  C   UNL d   1      -1.970  -0.700   0.000  0.00  0.00     0.013 A 
ATOM     17  C   UNL d   1      -2.795  -0.700   0.000  0.00  0.00     0.001 A 
ATOM     18  C   UNL d   1      -3.221  -1.409   0.000  0.00  0.00     0.000 A 
ATOM     19  C   UNL d   1      -2.795  -2.118   0.000  0.00  0.00     0.001 A 
ATOM     20  C   UNL d   1      -4.041  -1.409   0.000  0.00  0.00     0.000 C 
ATOM     21  C   UNL d   1      -1.970  -2.118   0.000  0.00  0.00     0.013 A 
ENDBRANCH  12  15
ENDBRANCH  11  12
ENDBRANCH   1  11
BRANCH   6  22
ATOM     22  O   UNL d   1       0.111   1.469   0.000  0.00  0.00    -0.328 OA
ATOM     23  C   UNL d   1      -0.723   1.469   0.000  0.00  0.00     0.181 C 
ENDBRANCH   6  22
TORSDOF 4
