REMARK  2 active torsions:
REMARK  status: ('A' for Active; 'I' for Inactive)
REMARK    1  A    between atoms: C_3  and  C_1 
REMARK       I    between atoms: N_6  and  C_3 
REMARK    2  A    between atoms: C_11  and  N_6 
ROOT
ATOM      1  C   UNL d   1      -0.751  -0.149   0.000  0.00  0.00     0.121 A 
ATOM      2  C   UNL d   1      -0.729  -0.903   0.000  0.00  0.00     0.305 A 
ATOM      3  C   UNL d   1      -1.471   0.249   0.000  0.00  0.00     0.012 A 
ATOM      4  O   UNL d   1      -1.471  -1.391   0.000  0.00  0.00    -0.273 OA
ATOM      5  C   UNL d   1      -2.191  -0.149   0.000  0.00  0.00     0.023 A 
ATOM      6  C   UNL d   1      -2.191  -0.980   0.000  0.00  0.00     0.103 A 
ATOM      7  O   UNL d   1       0.000  -1.340   0.000  0.00  0.00    -0.259 OA
ATOM      8  C   UNL d   1      -2.894   0.254   0.000  0.00  0.00     0.002 A 
ATOM      9  C   UNL d   1      -2.894  -1.391   0.000  0.00  0.00     0.025 A 
ATOM     10  C   UNL d   1      -3.614  -0.149   0.000  0.00  0.00     0.000 A 
ATOM     11  C   UNL d   1      -3.614  -0.980   0.000  0.00  0.00     0.002 A 
ENDROOT
BRANCH   1  12
ATOM     12  C   UNL d   1      -0.034   0.271   0.000  0.00  0.00     0.284 C 
ATOM     13  N   UNL d   1       0.603  -0.106   0.000  0.00  0.00    -0.208 NA
ATOM     14  O   UNL d   1      -0.034   1.094   0.000  0.00  0.00    -0.265 OA
BRANCH  13  15
ATOM     15  C   UNL d   1       1.391   0.254   0.000  0.00  0.00     0.087 A 
ATOM     16  C   UNL d   1       2.103  -0.149   0.000  0.00  0.00     0.049 A 
ATOM     17  C   UNL d   1       2.823   0.249   0.000  0.00  0.00     0.142 A 
ATOM     18  F   UNL d   1       3.531  -0.157   0.000  0.00  0.00    -0.204 F 
ATOM     19  C   UNL d   1       2.823   1.086   0.000  0.00  0.00     0.030 A 
ATOM     20  C   UNL d   1       2.103   1.488   0.000  0.00  0.00     0.004 A 
ATOM     21  C   UNL d   1       1.391   1.094   0.000  0.00  0.00     0.019 A 
ENDBRANCH  13  15
ENDBRANCH   1  12
TORSDOF 2
