REMARK  1 active torsions:
REMARK  status: ('A' for Active; 'I' for Inactive)
REMARK    1  A    between atoms: O_15  and  C_11 
ROOT
ATOM      1  C   UNL d   1       1.548  -0.300   0.000  0.00  0.00     0.139 A 
ATOM      2  N   UNL d   1       1.013  -0.951   0.000  0.00  0.00    -0.241 NA
ATOM      3  C   UNL d   1       1.102   0.386   0.000  0.00  0.00     0.025 A 
ATOM      4  C   UNL d   1       0.300   0.186   0.000  0.00  0.00     0.021 A 
ATOM      5  C   UNL d   1       0.255  -0.634   0.000  0.00  0.00     0.082 A 
ATOM      6  C   UNL d   1       2.395  -0.277   0.000  0.00  0.00     0.297 A 
ATOM      7  N   UNL d   1       2.773   0.453   0.000  0.00  0.00    -0.205 NA
ATOM      8  C   UNL d   1      -0.386   0.631   0.000  0.00  0.00     0.026 A 
ATOM      9  O   UNL d   1       2.840  -0.991   0.000  0.00  0.00    -0.264 OA
ATOM     10  C   UNL d   1      -0.475  -1.013   0.000  0.00  0.00     0.021 A 
ATOM     11  C   UNL d   1      -1.119   0.250   0.000  0.00  0.00     0.094 A 
ATOM     12  C   UNL d   1       1.503   1.142   0.000  0.00  0.00     0.022 A 
ATOM     13  C   UNL d   1       2.328   1.166   0.000  0.00  0.00     0.102 A 
ATOM     14  C   UNL d   1      -1.171  -0.545   0.000  0.00  0.00     0.026 A 
ENDROOT
BRANCH  11  15
ATOM     15  O   UNL d   1      -1.833   0.673   0.000  0.00  0.00    -0.328 OA
ATOM     16  C   UNL d   1      -2.568   0.275   0.000  0.00  0.00     0.181 C 
ENDBRANCH  11  15
TORSDOF 1
