REMARK  4 active torsions:
REMARK  status: ('A' for Active; 'I' for Inactive)
REMARK    1  A    between atoms: C_3  and  C_2 
REMARK    2  A    between atoms: C_14  and  C_12 
REMARK    3  A    between atoms: C_15  and  C_14 
REMARK    4  A    between atoms: C_16  and  C_15 
ROOT
ATOM      1  N   UNL d   1      -1.946  -1.856   0.000  0.00  0.00    -0.244 NA
ATOM      2  C   UNL d   1      -1.515  -1.156   0.000  0.00  0.00     0.081 A 
ATOM      3  C   UNL d   1      -1.946  -0.392   0.000  0.00  0.00     0.019 A 
ATOM      4  C   UNL d   1      -2.774  -1.856   0.000  0.00  0.00     0.099 A 
ATOM      5  C   UNL d   1      -2.774  -0.392   0.000  0.00  0.00     0.003 A 
ATOM      6  C   UNL d   1      -3.211  -1.156   0.000  0.00  0.00     0.019 A 
ENDROOT
BRANCH   2   7
ATOM      7  C   UNL d   1      -0.687  -1.156   0.000  0.00  0.00     0.018 A 
ATOM      8  C   UNL d   1      -0.250  -1.856   0.000  0.00  0.00     0.002 A 
ATOM      9  C   UNL d   1       0.546  -1.856   0.000  0.00  0.00     0.007 A 
ATOM     10  C   UNL d   1       1.002  -1.156   0.000  0.00  0.00     0.035 A 
ATOM     11  C   UNL d   1       0.546  -0.392   0.000  0.00  0.00     0.007 A 
ATOM     12 BR   UNL d   1       1.798  -1.156   0.000  0.00  0.00    -0.049 Br
ATOM     13  C   UNL d   1      -0.250  -0.392   0.000  0.00  0.00     0.002 A 
ENDBRANCH   2   7
BRANCH   6  14
ATOM     14  C   UNL d   1      -4.026  -1.156   0.000  0.00  0.00     0.002 C 
BRANCH  14  15
ATOM     15  C   UNL d   1      -4.444  -0.462   0.000  0.00  0.00     0.000 C 
BRANCH  15  16
ATOM     16  C   UNL d   1      -5.259  -0.462   0.000  0.00  0.00     0.000 C 
ATOM     17  C   UNL d   1      -5.657   0.231   0.000  0.00  0.00     0.000 C 
ENDBRANCH  15  16
ENDBRANCH  14  15
ENDBRANCH   6  14
TORSDOF 4
