REMARK  4 active torsions:
REMARK  status: ('A' for Active; 'I' for Inactive)
REMARK    1  A    between atoms: C_2  and  C_1 
REMARK       I    between atoms: N_4  and  C_2 
REMARK    2  A    between atoms: C_5  and  N_4 
REMARK    3  A    between atoms: O_17  and  C_9 
REMARK    4  A    between atoms: O_18  and  C_12 
ROOT
ATOM      1  C   UNL d   1       3.029  -0.667   0.000  0.00  0.00     0.353 C 
ATOM      2  N   UNL d   1       3.750  -1.079   0.000  0.00  0.00    -0.361 NA
ATOM      3  O   UNL d   1       3.029   0.146   0.000  0.00  0.00    -0.249 OA
ENDROOT
BRANCH   1   4
ATOM      4  C   UNL d   1       2.304  -1.079   0.000  0.00  0.00     0.195 A 
ATOM      5  O   UNL d   1       1.600  -0.654   0.000  0.00  0.00    -0.297 OA
ATOM      6  C   UNL d   1       0.900  -1.079   0.000  0.00  0.00     0.123 A 
ATOM      7  C   UNL d   1       0.167  -0.654   0.000  0.00  0.00     0.027 A 
ATOM      8  C   UNL d   1       0.879  -1.900   0.000  0.00  0.00     0.123 A 
ATOM      9  C   UNL d   1      -0.521  -1.079   0.000  0.00  0.00     0.002 A 
ATOM     10  C   UNL d   1      -0.521  -1.904   0.000  0.00  0.00     0.002 A 
ATOM     11  C   UNL d   1       0.167  -2.317   0.000  0.00  0.00     0.027 A 
ATOM     12  O   UNL d   1       1.600  -2.317   0.000  0.00  0.00    -0.301 OA
ATOM     13  C   UNL d   1       2.304  -1.904   0.000  0.00  0.00     0.153 A 
ENDBRANCH   1   4
BRANCH   2  14
ATOM     14  C   UNL d   1       4.454  -1.500   0.000  0.00  0.00     0.159 A 
ATOM     15  C   UNL d   1       4.454  -2.317   0.000  0.00  0.00     0.059 A 
ATOM     16  C   UNL d   1       5.167  -2.750   0.000  0.00  0.00     0.107 A 
ATOM     17  C   UNL d   1       5.900  -2.317   0.000  0.00  0.00     0.082 A 
ATOM     18  C   UNL d   1       5.900  -1.500   0.000  0.00  0.00     0.040 A 
ATOM     19 CL   UNL d   1       6.600  -2.750   0.000  0.00  0.00    -0.080 Cl
ATOM     20  C   UNL d   1       5.179  -1.079   0.000  0.00  0.00     0.125 A 
BRANCH  16  21
ATOM     21  O   UNL d   1       5.167  -3.554   0.000  0.00  0.00    -0.327 OA
ATOM     22  C   UNL d   1       4.454  -3.967   0.000  0.00  0.00     0.181 C 
ENDBRANCH  16  21
BRANCH  20  23
ATOM     23  O   UNL d   1       5.179  -0.254   0.000  0.00  0.00    -0.326 OA
ATOM     24  C   UNL d   1       5.900   0.133   0.000  0.00  0.00     0.181 C 
ENDBRANCH  20  23
ENDBRANCH   2  14
TORSDOF 4
