REMARK  3 active torsions:
REMARK  status: ('A' for Active; 'I' for Inactive)
REMARK    1  A    between atoms: C_4  and  C_1 
REMARK    2  A    between atoms: O_10  and  C_4 
REMARK    3  A    between atoms: C_13  and  O_10 
ROOT
ATOM      1  C   UNL d   1       0.157   0.051   0.000  0.00  0.00     0.121 A 
ATOM      2  C   UNL d   1      -0.573   0.470   0.000  0.00  0.00     0.204 A 
ATOM      3  C   UNL d   1      -1.272   0.051   0.000  0.00  0.00     0.057 A 
ATOM      4  N   UNL d   1      -0.573  -1.174   0.000  0.00  0.00    -0.244 NA
ATOM      5  C   UNL d   1       0.157  -0.772   0.000  0.00  0.00     0.107 A 
ATOM      6  C   UNL d   1      -1.272  -0.772   0.000  0.00  0.00     0.085 A 
ATOM      7  O   UNL d   1      -0.573   1.285   0.000  0.00  0.00    -0.286 OA
ATOM      8  C   UNL d   1      -1.993   0.470   0.000  0.00  0.00     0.005 A 
ATOM      9  C   UNL d   1      -1.993  -1.174   0.000  0.00  0.00     0.019 A 
ATOM     10  C   UNL d   1      -2.714   0.051   0.000  0.00  0.00     0.000 A 
ATOM     11  C   UNL d   1      -2.714  -0.772   0.000  0.00  0.00     0.002 A 
ENDROOT
BRANCH   1  12
ATOM     12  C   UNL d   1       0.875   0.470   0.000  0.00  0.00     0.305 C 
ATOM     13  O   UNL d   1       0.875   1.298   0.000  0.00  0.00    -0.259 OA
BRANCH  12  14
ATOM     14  O   UNL d   1       1.573   0.069   0.000  0.00  0.00    -0.271 OA
BRANCH  14  15
ATOM     15  C   UNL d   1       1.573  -0.755   0.000  0.00  0.00     0.126 C 
ATOM     16  C   UNL d   1       2.293  -1.174   0.000  0.00  0.00     0.029 C 
ENDBRANCH  14  15
ENDBRANCH  12  14
ENDBRANCH   1  12
TORSDOF 3
