REMARK  4 active torsions:
REMARK  status: ('A' for Active; 'I' for Inactive)
REMARK    1  A    between atoms: C_3  and  C_1 
REMARK    2  A    between atoms: C_5  and  C_1 
REMARK    3  A    between atoms: C_2  and  C_3 
REMARK       I    between atoms: N_4  and  C_2 
REMARK    4  A    between atoms: C_6  and  N_4 
ROOT
ATOM      1  C   UNL d   1       1.109   0.131   0.000  0.00  0.00     0.279 C 
ATOM      2  N   UNL d   1       1.835  -0.268   0.000  0.00  0.00    -0.208 NA
ATOM      3  O   UNL d   1       1.109   0.956   0.000  0.00  0.00    -0.265 OA
ENDROOT
BRANCH   1   4
ATOM      4  C   UNL d   1       0.382  -0.268   0.000  0.00  0.00     0.063 C 
BRANCH   4   5
ATOM      5  C   UNL d   1      -0.315   0.131   0.000  0.00  0.00     0.006 C 
BRANCH   5   6
ATOM      6  C   UNL d   1      -1.048  -0.268   0.000  0.00  0.00     0.011 A 
ATOM      7  C   UNL d   1      -1.768   0.131   0.000  0.00  0.00     0.058 A 
ATOM      8 CL   UNL d   1      -1.774   0.956   0.000  0.00  0.00    -0.082 Cl
ATOM      9  C   UNL d   1      -2.472  -0.268   0.000  0.00  0.00     0.011 A 
ATOM     10  C   UNL d   1      -2.472  -1.109   0.000  0.00  0.00     0.001 A 
ATOM     11  C   UNL d   1      -1.768  -1.529   0.000  0.00  0.00     0.000 A 
ATOM     12  C   UNL d   1      -1.048  -1.109   0.000  0.00  0.00     0.001 A 
ENDBRANCH   5   6
ENDBRANCH   4   5
ENDBRANCH   1   4
BRANCH   2  13
ATOM     13  C   UNL d   1       2.561   0.131   0.000  0.00  0.00     0.088 A 
ATOM     14  C   UNL d   1       2.561   0.956   0.000  0.00  0.00     0.061 A 
ATOM     15  C   UNL d   1       3.249   1.373   0.000  0.00  0.00     0.197 A 
ATOM     16  O   UNL d   1       3.249   2.195   0.000  0.00  0.00    -0.286 OA
ATOM     17  C   UNL d   1       3.975   0.956   0.000  0.00  0.00     0.042 A 
ATOM     18  C   UNL d   1       3.975   0.131   0.000  0.00  0.00     0.005 A 
ATOM     19  C   UNL d   1       3.249  -0.268   0.000  0.00  0.00     0.019 A 
ENDBRANCH   2  13
TORSDOF 4
