REMARK  8 active torsions:
REMARK  status: ('A' for Active; 'I' for Inactive)
REMARK    1  A    between atoms: C_11  and  C_1 
REMARK    2  A    between atoms: C_10  and  C_2 
REMARK    3  A    between atoms: C_4  and  C_3 
REMARK    4  A    between atoms: C_14  and  C_9 
REMARK    5  A    between atoms: O_17  and  C_10 
REMARK    6  A    between atoms: O_18  and  C_11 
REMARK    7  A    between atoms: C_24  and  O_17 
REMARK    8  A    between atoms: C_23  and  O_18 
ROOT
ATOM      1  C   UNL d   1      -0.379  -0.489   0.000  0.00  0.00     0.083 A 
ATOM      2  C   UNL d   1      -0.714   0.926   0.000  0.00  0.00     0.083 A 
ATOM      3  C   UNL d   1      -0.926   0.129   0.000  0.00  0.00     0.036 A 
ATOM      4  C   UNL d   1       0.084   1.112   0.000  0.00  0.00     0.087 A 
ATOM      5  C   UNL d   1       0.463  -0.277   0.000  0.00  0.00     0.087 A 
ATOM      6  N   UNL d   1       0.675   0.534   0.000  0.00  0.00    -0.245 NA
ATOM      7  C   UNL d   1       0.334   1.948   0.000  0.00  0.00     0.021 C 
ATOM      8  C   UNL d   1       1.048  -0.855   0.000  0.00  0.00     0.021 C 
ENDROOT
BRANCH   3   9
ATOM      9  C   UNL d   1      -1.730  -0.084   0.000  0.00  0.00     0.100 A 
ATOM     10  O   UNL d   1      -2.386   0.437   0.000  0.00  0.00    -0.307 OA
ATOM     11  C   UNL d   1      -3.061  -0.045   0.000  0.00  0.00     0.100 A 
ATOM     12  C   UNL d   1      -2.810  -0.830   0.000  0.00  0.00     0.027 A 
ATOM     13  C   UNL d   1      -2.006  -0.855   0.000  0.00  0.00     0.027 A 
BRANCH  11  14
ATOM     14  C   UNL d   1      -3.775   0.379   0.000  0.00  0.00     0.023 A 
ATOM     15  C   UNL d   1      -4.476  -0.045   0.000  0.00  0.00     0.002 A 
ATOM     16  C   UNL d   1      -5.189   0.341   0.000  0.00  0.00     0.000 A 
ATOM     17  C   UNL d   1      -5.189   1.209   0.000  0.00  0.00     0.000 A 
ATOM     18  C   UNL d   1      -4.476   1.614   0.000  0.00  0.00     0.000 A 
ATOM     19  C   UNL d   1      -3.775   1.177   0.000  0.00  0.00     0.002 A 
ENDBRANCH  11  14
ENDBRANCH   3   9
BRANCH   2  20
ATOM     20  C   UNL d   1      -1.267   1.543   0.000  0.00  0.00     0.302 C 
ATOM     21  O   UNL d   1      -1.022   2.315   0.000  0.00  0.00    -0.259 OA
BRANCH  20  22
ATOM     22  O   UNL d   1      -2.077   1.389   0.000  0.00  0.00    -0.271 OA
BRANCH  22  23
ATOM     23  C   UNL d   1      -2.810   2.026   0.000  0.00  0.00     0.126 C 
ATOM     24  C   UNL d   1      -2.566   2.810   0.000  0.00  0.00     0.029 C 
ENDBRANCH  22  23
ENDBRANCH  20  22
ENDBRANCH   2  20
BRANCH   1  25
ATOM     25  C   UNL d   1      -0.592  -1.318   0.000  0.00  0.00     0.302 C 
ATOM     26  O   UNL d   1      -1.363  -1.543   0.000  0.00  0.00    -0.259 OA
BRANCH  25  27
ATOM     27  O   UNL d   1       0.026  -1.878   0.000  0.00  0.00    -0.271 OA
BRANCH  27  28
ATOM     28  C   UNL d   1       0.830  -1.666   0.000  0.00  0.00     0.126 C 
ATOM     29  C   UNL d   1       1.215  -2.437   0.000  0.00  0.00     0.029 C 
ENDBRANCH  27  28
ENDBRANCH  25  27
ENDBRANCH   1  25
TORSDOF 8
