REMARK  2 active torsions:
REMARK  status: ('A' for Active; 'I' for Inactive)
REMARK    1  A    between atoms: C_3  and  C_1 
REMARK       I    between atoms: N_7  and  C_3 
REMARK    2  A    between atoms: C_11  and  N_7 
ROOT
ATOM      1  C   UNL d   1       0.380   0.472   0.000  0.00  0.00     0.121 A 
ATOM      2  C   UNL d   1       0.380  -0.351   0.000  0.00  0.00     0.305 A 
ATOM      3  C   UNL d   1      -0.334   0.885   0.000  0.00  0.00     0.012 A 
ATOM      4  O   UNL d   1      -0.334  -0.756   0.000  0.00  0.00    -0.273 OA
ATOM      5  C   UNL d   1      -1.048   0.472   0.000  0.00  0.00     0.023 A 
ATOM      6  C   UNL d   1      -1.048  -0.351   0.000  0.00  0.00     0.103 A 
ATOM      7  O   UNL d   1       1.102  -0.756   0.000  0.00  0.00    -0.259 OA
ATOM      8  C   UNL d   1      -1.754   0.885   0.000  0.00  0.00     0.002 A 
ATOM      9  C   UNL d   1      -1.754  -0.756   0.000  0.00  0.00     0.025 A 
ATOM     10  C   UNL d   1      -2.476   0.472   0.000  0.00  0.00     0.000 A 
ATOM     11  C   UNL d   1      -2.476  -0.351   0.000  0.00  0.00     0.002 A 
ENDROOT
BRANCH   1  12
ATOM     12  C   UNL d   1       1.102   0.885   0.000  0.00  0.00     0.284 C 
ATOM     13  N   UNL d   1       1.808   0.472   0.000  0.00  0.00    -0.208 NA
ATOM     14  O   UNL d   1       1.107   1.716   0.000  0.00  0.00    -0.265 OA
BRANCH  13  15
ATOM     15  C   UNL d   1       2.522   0.885   0.000  0.00  0.00     0.085 A 
ATOM     16  C   UNL d   1       2.522   1.716   0.000  0.00  0.00     0.019 A 
ATOM     17  C   UNL d   1       3.244   2.125   0.000  0.00  0.00     0.002 A 
ATOM     18  C   UNL d   1       3.962   1.716   0.000  0.00  0.00     0.000 A 
ATOM     19  C   UNL d   1       3.962   0.885   0.000  0.00  0.00     0.002 A 
ATOM     20  C   UNL d   1       3.257   0.472   0.000  0.00  0.00     0.019 A 
ENDBRANCH  13  15
ENDBRANCH   1  12
TORSDOF 2
