REMARK  4 active torsions:
REMARK  status: ('A' for Active; 'I' for Inactive)
REMARK    1  A    between atoms: N_2  and  C_1 
REMARK       I    between atoms: C_3  and  N_2 
REMARK    2  A    between atoms: C_6  and  C_3 
REMARK    3  A    between atoms: C_14  and  C_7 
REMARK    4  A    between atoms: C_15  and  C_14 
ROOT
ATOM      1  C   UNL d   1       0.919  -2.681   0.000  0.00  0.00     0.197 A 
ATOM      2  N   UNL d   1       1.683  -2.787   0.000  0.00  0.00    -0.219 NA
ATOM      3  S   UNL d   1       0.773  -1.873   0.000  0.00  0.00    -0.047 SA
ATOM      4  C   UNL d   1       1.488  -1.488   0.000  0.00  0.00     0.051 A 
ATOM      5  C   UNL d   1       2.067  -2.067   0.000  0.00  0.00     0.108 A 
ENDROOT
BRANCH   1   6
ATOM      6  N   UNL d   1       0.371  -3.339   0.000  0.00  0.00    -0.182 NA
ATOM      7  C   UNL d   1      -0.437  -3.184   0.000  0.00  0.00     0.287 C 
ATOM      8  O   UNL d   1      -0.711  -2.403   0.000  0.00  0.00    -0.265 OA
BRANCH   7   9
ATOM      9  C   UNL d   1      -0.950  -3.803   0.000  0.00  0.00     0.087 A 
ATOM     10  S   UNL d   1      -0.777  -4.615   0.000  0.00  0.00    -0.082 SA
ATOM     11  C   UNL d   1      -1.453  -5.013   0.000  0.00  0.00     0.036 A 
ATOM     12  C   UNL d   1      -2.089  -4.439   0.000  0.00  0.00     0.008 A 
ATOM     13  C   UNL d   1      -1.731  -3.715   0.000  0.00  0.00     0.012 A 
ENDBRANCH   7   9
ENDBRANCH   1   6
BRANCH   4  14
ATOM     14  C   UNL d   1       1.700  -0.707   0.000  0.00  0.00     0.008 C 
BRANCH  14  15
ATOM     15  C   UNL d   1       1.113  -0.111   0.000  0.00  0.00     0.001 A 
ATOM     16  C   UNL d   1       0.305  -0.323   0.000  0.00  0.00     0.002 A 
ATOM     17  C   UNL d   1      -0.287   0.265   0.000  0.00  0.00     0.030 A 
ATOM     18  C   UNL d   1      -0.075   1.056   0.000  0.00  0.00     0.140 A 
ATOM     19  C   UNL d   1       0.747   1.285   0.000  0.00  0.00     0.030 A 
ATOM     20  F   UNL d   1      -0.552   1.656   0.000  0.00  0.00    -0.204 F 
ATOM     21  C   UNL d   1       1.325   0.689   0.000  0.00  0.00     0.002 A 
ENDBRANCH  14  15
ENDBRANCH   4  14
TORSDOF 4
