REMARK  3 active torsions:
REMARK  status: ('A' for Active; 'I' for Inactive)
REMARK    1  A    between atoms: C_5  and  C_1 
REMARK    2  A    between atoms: N_11  and  C_9 
REMARK    3  A    between atoms: C_17  and  N_11 
ROOT
ATOM      1  C   UNL d   1      -0.477   1.146   0.000  0.00  0.00     0.075 A 
ATOM      2  C   UNL d   1      -0.477   0.327   0.000  0.00  0.00     0.004 A 
ATOM      3  C   UNL d   1       0.249  -0.083   0.000  0.00  0.00     0.004 A 
ATOM      4  C   UNL d   1       0.249   1.571   0.000  0.00  0.00     0.046 A 
ATOM      5  C   UNL d   1       0.954   1.177   0.000  0.00  0.00     0.196 A 
ATOM      6  C   UNL d   1       0.954   0.353   0.000  0.00  0.00     0.039 A 
ATOM      7  C   UNL d   1       0.249  -0.908   0.000  0.00  0.00     0.018 A 
ATOM      8  C   UNL d   1      -0.477  -1.328   0.000  0.00  0.00     0.081 A 
ATOM      9  C   UNL d   1      -1.177  -0.083   0.000  0.00  0.00     0.002 A 
ATOM     10  C   UNL d   1      -1.177  -0.908   0.000  0.00  0.00     0.019 A 
ATOM     11  O   UNL d   1       1.680   1.644   0.000  0.00  0.00    -0.287 OA
ATOM     12  C   UNL d   1       1.701  -0.062   0.000  0.00  0.00     0.003 A 
ATOM     13  C   UNL d   1       0.996  -1.328   0.000  0.00  0.00     0.002 A 
ATOM     14  C   UNL d   1       1.680  -0.908   0.000  0.00  0.00     0.000 A 
ENDROOT
BRANCH   8  15
ATOM     15  N   UNL d   1      -0.477  -2.152   0.000  0.00  0.00    -0.246 NA
BRANCH  15  16
ATOM     16  C   UNL d   1      -1.198  -2.572   0.000  0.00  0.00     0.081 A 
ATOM     17  C   UNL d   1      -1.924  -2.152   0.000  0.00  0.00     0.019 A 
ATOM     18  C   UNL d   1      -2.640  -2.572   0.000  0.00  0.00     0.002 A 
ATOM     19  C   UNL d   1      -2.640  -3.366   0.000  0.00  0.00     0.000 A 
ATOM     20  C   UNL d   1      -1.945  -3.796   0.000  0.00  0.00     0.002 A 
ATOM     21  C   UNL d   1      -1.224  -3.397   0.000  0.00  0.00     0.019 A 
ENDBRANCH  15  16
ENDBRANCH   8  15
BRANCH   1  22
ATOM     22  C   UNL d   1      -1.224   1.571   0.000  0.00  0.00     0.419 C 
ATOM     23  F   UNL d   1      -1.945   1.971   0.000  0.00  0.00    -0.166 F 
ATOM     24  F   UNL d   1      -0.804   2.297   0.000  0.00  0.00    -0.166 F 
ATOM     25  F   UNL d   1      -1.618   0.825   0.000  0.00  0.00    -0.166 F 
ENDBRANCH   1  22
TORSDOF 3
