REMARK  3 active torsions:
REMARK  status: ('A' for Active; 'I' for Inactive)
REMARK       I    between atoms: N_2  and  C_1 
REMARK    1  A    between atoms: C_4  and  C_1 
REMARK    2  A    between atoms: C_3  and  N_2 
REMARK    3  A    between atoms: C_5  and  C_6 
ROOT
ATOM      1  C   UNL d   1       0.114   1.980   0.000  0.00  0.00     0.058 A 
ATOM      2  C   UNL d   1      -1.501   1.980   0.000  0.00  0.00    -0.023 A 
ATOM      3  C   UNL d   1      -0.267   1.282   0.000  0.00  0.00     0.004 A 
ATOM      4  C   UNL d   1      -0.267   2.713   0.000  0.00  0.00     0.004 A 
ATOM      5  C   UNL d   1      -1.091   2.700   0.000  0.00  0.00    -0.004 A 
ATOM      6  C   UNL d   1      -1.091   1.282   0.000  0.00  0.00    -0.004 A 
ENDROOT
BRANCH   1   7
ATOM      7  C   UNL d   1       0.952   1.967   0.000  0.00  0.00     0.279 C 
ATOM      8  N   UNL d   1       1.371   1.253   0.000  0.00  0.00    -0.207 NA
ATOM      9  O   UNL d   1       1.371   2.666   0.000  0.00  0.00    -0.265 OA
BRANCH   8  10
ATOM     10  C   UNL d   1       0.952   0.549   0.000  0.00  0.00     0.095 A 
ATOM     11  C   UNL d   1       1.333  -0.152   0.000  0.00  0.00     0.075 A 
ATOM     12 CL   UNL d   1       2.171  -0.190   0.000  0.00  0.00    -0.081 Cl
ATOM     13  C   UNL d   1       0.914  -0.876   0.000  0.00  0.00     0.013 A 
ATOM     14  C   UNL d   1       0.076  -0.838   0.000  0.00  0.00     0.001 A 
ATOM     15  C   UNL d   1      -0.301  -0.114   0.000  0.00  0.00     0.002 A 
ATOM     16  C   UNL d   1       0.114   0.568   0.000  0.00  0.00     0.020 A 
ENDBRANCH   8  10
ENDBRANCH   1   7
BRANCH   2  17
ATOM     17  C   UNL d   1      -2.323   1.980   0.000  0.00  0.00     0.019 C 
ATOM     18  C   UNL d   1      -2.323   2.805   0.000  0.00  0.00     0.004 C 
ATOM     19  C   UNL d   1      -2.323   1.158   0.000  0.00  0.00     0.004 C 
ATOM     20  C   UNL d   1      -3.148   1.980   0.000  0.00  0.00     0.004 C 
ENDBRANCH   2  17
TORSDOF 3
