REMARK  3 active torsions:
REMARK  status: ('A' for Active; 'I' for Inactive)
REMARK    1  A    between atoms: N_7  and  C_2 
REMARK    2  A    between atoms: C_10  and  N_7 
REMARK    3  A    between atoms: C_12  and  C_10 
ROOT
ATOM      1  C   UNL d   1       0.848  -1.344   0.000  0.00  0.00     0.184 A 
ATOM      2  C   UNL d   1       0.154  -0.944   0.000  0.00  0.00     0.108 A 
ATOM      3  C   UNL d   1       0.848  -2.189   0.000  0.00  0.00     0.321 A 
ATOM      4  O   UNL d   1       0.154  -2.596   0.000  0.00  0.00    -0.272 OA
ATOM      5  C   UNL d   1      -0.563  -1.357   0.000  0.00  0.00     0.042 A 
ATOM      6  C   UNL d   1      -0.563  -2.189   0.000  0.00  0.00     0.105 A 
ATOM      7  O   UNL d   1       1.575  -2.615   0.000  0.00  0.00    -0.257 OA
ATOM      8  N   UNL d   1       1.575  -0.906   0.000  0.00  0.00    -0.141 N 
ATOM      9  C   UNL d   1      -1.268  -0.944   0.000  0.00  0.00     0.004 A 
ATOM     10  C   UNL d   1      -1.268  -2.596   0.000  0.00  0.00     0.025 A 
ATOM     11  C   UNL d   1      -1.984  -1.344   0.000  0.00  0.00     0.000 A 
ATOM     12  C   UNL d   1      -1.984  -2.189   0.000  0.00  0.00     0.002 A 
ENDROOT
BRANCH   2  13
ATOM     13  N   UNL d   1       0.154  -0.118   0.000  0.00  0.00    -0.242 NA
BRANCH  13  14
ATOM     14  C   UNL d   1      -0.563   0.266   0.000  0.00  0.00     0.099 C 
BRANCH  14  15
ATOM     15  C   UNL d   1      -0.563   1.111   0.000  0.00  0.00     0.019 A 
ATOM     16  C   UNL d   1      -1.268   1.504   0.000  0.00  0.00     0.002 A 
ATOM     17  C   UNL d   1      -1.268   2.330   0.000  0.00  0.00     0.000 A 
ATOM     18  C   UNL d   1      -0.563   2.743   0.000  0.00  0.00     0.000 A 
ATOM     19  C   UNL d   1       0.157   2.330   0.000  0.00  0.00     0.000 A 
ATOM     20  C   UNL d   1       0.154   1.504   0.000  0.00  0.00     0.002 A 
ENDBRANCH  14  15
ENDBRANCH  13  14
ENDBRANCH   2  13
TORSDOF 3
