REMARK  8 active torsions:
REMARK  status: ('A' for Active; 'I' for Inactive)
REMARK    1  A    between atoms: C_2  and  C_1 
REMARK    2  A    between atoms: C_3  and  C_1 
REMARK    3  A    between atoms: C_5  and  C_1 
REMARK    4  A    between atoms: N_4  and  C_6 
REMARK    5  A    between atoms: C_7  and  N_4 
REMARK    6  A    between atoms: C_8  and  N_4 
REMARK    7  A    between atoms: C_20  and  C_7 
REMARK    8  A    between atoms: C_21  and  C_8 
ROOT
ATOM      1  C   UNL d   1      -1.767  -0.553   0.000  0.00  0.00     0.044 A 
ATOM      2  C   UNL d   1      -0.112  -0.550   0.000  0.00  0.00     0.064 A 
ATOM      3  C   UNL d   1      -1.355  -1.272   0.000  0.00  0.00     0.004 A 
ATOM      4  C   UNL d   1      -1.355   0.160   0.000  0.00  0.00     0.004 A 
ATOM      5  C   UNL d   1      -0.524  -1.272   0.000  0.00  0.00     0.018 A 
ATOM      6  C   UNL d   1      -0.524   0.160   0.000  0.00  0.00     0.018 A 
ENDROOT
BRANCH   2   7
ATOM      7  N   UNL d   1       0.708  -0.550   0.000  0.00  0.00    -0.304 N 
BRANCH   7   8
ATOM      8  C   UNL d   1       1.120   0.160   0.000  0.00  0.00     0.080 C 
BRANCH   8   9
ATOM      9  C   UNL d   1       0.722   0.874   0.000  0.00  0.00     0.018 A 
ATOM     10  C   UNL d   1      -0.103   0.874   0.000  0.00  0.00     0.002 A 
ATOM     11  C   UNL d   1      -0.524   1.595   0.000  0.00  0.00     0.000 A 
ATOM     12  C   UNL d   1      -0.103   2.317   0.000  0.00  0.00     0.000 A 
ATOM     13  C   UNL d   1       0.722   2.317   0.000  0.00  0.00     0.000 A 
ATOM     14  C   UNL d   1       1.134   1.590   0.000  0.00  0.00     0.002 A 
ENDBRANCH   8   9
ENDBRANCH   7   8
BRANCH   7  15
ATOM     15  C   UNL d   1       1.120  -1.258   0.000  0.00  0.00     0.080 C 
BRANCH  15  16
ATOM     16  C   UNL d   1       1.937  -1.258   0.000  0.00  0.00     0.018 A 
ATOM     17  C   UNL d   1       2.358  -1.971   0.000  0.00  0.00     0.002 A 
ATOM     18  C   UNL d   1       3.183  -1.971   0.000  0.00  0.00     0.000 A 
ATOM     19  C   UNL d   1       3.595  -1.258   0.000  0.00  0.00     0.000 A 
ATOM     20  C   UNL d   1       3.183  -0.536   0.000  0.00  0.00     0.000 A 
ATOM     21  C   UNL d   1       2.349  -0.550   0.000  0.00  0.00     0.002 A 
ENDBRANCH  15  16
ENDBRANCH   7  15
ENDBRANCH   2   7
BRANCH   1  22
ATOM     22  C   UNL d   1      -2.592  -0.553   0.000  0.00  0.00     0.297 C 
ATOM     23  O   UNL d   1      -3.417  -0.553   0.000  0.00  0.00    -0.281 OA
BRANCH  22  24
ATOM     24  C   UNL d   1      -2.592   0.264   0.000  0.00  0.00     0.457 C 
ATOM     25  F   UNL d   1      -3.417   0.264   0.000  0.00  0.00    -0.163 F 
ATOM     26  F   UNL d   1      -1.767   0.264   0.000  0.00  0.00    -0.163 F 
ATOM     27  F   UNL d   1      -2.592   1.089   0.000  0.00  0.00    -0.163 F 
ENDBRANCH  22  24
BRANCH  22  28
ATOM     28  C   UNL d   1      -2.592  -1.387   0.000  0.00  0.00     0.457 C 
ATOM     29  F   UNL d   1      -2.592  -2.203   0.000  0.00  0.00    -0.163 F 
ATOM     30  F   UNL d   1      -1.767  -1.387   0.000  0.00  0.00    -0.163 F 
ATOM     31  F   UNL d   1      -3.417  -1.387   0.000  0.00  0.00    -0.163 F 
ENDBRANCH  22  28
ENDBRANCH   1  22
TORSDOF 8
