REMARK  3 active torsions:
REMARK  status: ('A' for Active; 'I' for Inactive)
REMARK    1  A    between atoms: C_8  and  C_2 
REMARK    2  A    between atoms: C_7  and  C_5 
REMARK    3  A    between atoms: C_10  and  C_8 
ROOT
ATOM      1  C   UNL d   1      -2.018   0.688   0.000  0.00  0.00     0.101 A 
ATOM      2  O   UNL d   1      -1.349   0.225   0.000  0.00  0.00    -0.307 OA
ATOM      3  C   UNL d   1      -0.698   0.745   0.000  0.00  0.00     0.101 A 
ATOM      4  C   UNL d   1      -1.765   1.461   0.000  0.00  0.00     0.027 A 
ATOM      5  C   UNL d   1      -0.955   1.461   0.000  0.00  0.00     0.027 A 
ENDROOT
BRANCH   1   6
ATOM      6  C   UNL d   1      -2.791   0.393   0.000  0.00  0.00     0.034 A 
ATOM      7  C   UNL d   1      -2.903  -0.450   0.000  0.00  0.00     0.070 A 
ATOM      8  C   UNL d   1      -3.690  -0.763   0.000  0.00  0.00     0.068 A 
ATOM      9 CL   UNL d   1      -2.271  -1.072   0.000  0.00  0.00    -0.081 Cl
ATOM     10 CL   UNL d   1      -3.652  -1.578   0.000  0.00  0.00    -0.082 Cl
ATOM     11  C   UNL d   1      -4.327  -0.230   0.000  0.00  0.00     0.012 A 
ATOM     12  C   UNL d   1      -4.196   0.599   0.000  0.00  0.00     0.001 A 
ATOM     13  C   UNL d   1      -3.442   0.894   0.000  0.00  0.00     0.003 A 
ENDBRANCH   1   6
BRANCH   3  14
ATOM     14  C   UNL d   1       0.117   0.543   0.000  0.00  0.00     0.036 C 
BRANCH  14  15
ATOM     15  C   UNL d   1       0.679   1.147   0.000  0.00  0.00     0.094 A 
ATOM     16  C   UNL d   1       0.454   1.934   0.000  0.00  0.00     0.288 A 
ATOM     17  N   UNL d   1       1.143   2.412   0.000  0.00  0.00    -0.163 NA
ATOM     18  O   UNL d   1      -0.360   2.229   0.000  0.00  0.00    -0.265 OA
ATOM     19  C   UNL d   1       1.742   1.925   0.000  0.00  0.00     0.313 A 
ATOM     20  S   UNL d   1       1.494   1.124   0.000  0.00  0.00    -0.021 SA
ATOM     21  O   UNL d   1       2.515   2.243   0.000  0.00  0.00    -0.258 OA
ENDBRANCH  14  15
ENDBRANCH   3  14
TORSDOF 3
