REMARK  3 active torsions:
REMARK  status: ('A' for Active; 'I' for Inactive)
REMARK    1  A    between atoms: C_6  and  C_1 
REMARK    2  A    between atoms: C_2  and  C_8 
REMARK       I    between atoms: N_11  and  C_6 
REMARK    3  A    between atoms: C_12  and  N_11 
ROOT
ATOM      1  C   UNL d   1      -1.873  -0.816   0.000  0.00  0.00     0.054 A 
ATOM      2  C   UNL d   1      -1.153  -1.224   0.000  0.00  0.00     0.088 A 
ATOM      3  C   UNL d   1      -2.593  -1.224   0.000  0.00  0.00     0.005 A 
ATOM      4  C   UNL d   1      -1.153  -2.059   0.000  0.00  0.00     0.019 A 
ATOM      5  C   UNL d   1      -2.593  -2.059   0.000  0.00  0.00     0.000 A 
ATOM      6  C   UNL d   1      -1.849  -2.455   0.000  0.00  0.00     0.002 A 
ENDROOT
BRANCH   2   7
ATOM      7  N   UNL d   1      -0.432  -0.816   0.000  0.00  0.00    -0.207 NA
ATOM      8  C   UNL d   1       0.288  -1.224   0.000  0.00  0.00     0.286 C 
ATOM      9  O   UNL d   1       0.312  -2.023   0.000  0.00  0.00    -0.265 OA
BRANCH   8  10
ATOM     10  C   UNL d   1       1.008  -0.792   0.000  0.00  0.00     0.098 A 
ATOM     11  S   UNL d   1       1.699  -1.135   0.000  0.00  0.00    -0.081 SA
ATOM     12  C   UNL d   1       2.275  -0.528   0.000  0.00  0.00     0.030 A 
ATOM     13  C   UNL d   1       3.067  -0.528   0.000  0.00  0.00     0.006 A 
ATOM     14  C   UNL d   1       1.873   0.192   0.000  0.00  0.00     0.017 A 
ATOM     15  C   UNL d   1       3.482   0.192   0.000  0.00  0.00     0.001 A 
ATOM     16  C   UNL d   1       3.103   0.912   0.000  0.00  0.00     0.000 A 
ATOM     17  C   UNL d   1       2.275   0.912   0.000  0.00  0.00     0.001 A 
ATOM     18  C   UNL d   1       1.062   0.018   0.000  0.00  0.00     0.069 A 
ATOM     19 CL   UNL d   1       0.432   0.534   0.000  0.00  0.00    -0.082 Cl
ENDBRANCH   8  10
ENDBRANCH   2   7
BRANCH   1  20
ATOM     20  C   UNL d   1      -1.873   0.018   0.000  0.00  0.00     0.164 A 
ATOM     21  N   UNL d   1      -2.479   0.594   0.000  0.00  0.00    -0.225 NA
ATOM     22  C   UNL d   1      -2.107   1.315   0.000  0.00  0.00     0.101 A 
ATOM     23  C   UNL d   1      -2.425   2.065   0.000  0.00  0.00     0.021 A 
ATOM     24  C   UNL d   1      -1.327   1.224   0.000  0.00  0.00     0.101 A 
ATOM     25  C   UNL d   1      -1.939   2.731   0.000  0.00  0.00     0.002 A 
ATOM     26  C   UNL d   1      -1.153   2.641   0.000  0.00  0.00     0.002 A 
ATOM     27  C   UNL d   1      -0.840   1.891   0.000  0.00  0.00     0.021 A 
ATOM     28  N   UNL d   1      -1.153   0.426   0.000  0.00  0.00    -0.225 NA
ENDBRANCH   1  20
TORSDOF 3
