REMARK  4 active torsions:
REMARK  status: ('A' for Active; 'I' for Inactive)
REMARK    1  A    between atoms: C_9  and  N_1 
REMARK    2  A    between atoms: C_2  and  N_5 
REMARK    3  A    between atoms: N_5  and  O_12 
REMARK    4  A    between atoms: O_12  and  C_16 
ROOT
ATOM      1  N   UNL d   1      -1.353  -0.065   0.000  0.00  0.00    -0.126 NA
ENDROOT
BRANCH   1   2
ATOM      2  C   UNL d   1      -2.178  -0.065   0.000  0.00  0.00     0.108 A 
ATOM      3  C   UNL d   1      -2.588   0.663   0.000  0.00  0.00     0.023 A 
ATOM      4  C   UNL d   1      -3.392   0.663   0.000  0.00  0.00     0.044 A 
ATOM      5  C   UNL d   1      -2.151   1.418   0.000  0.00  0.00     0.002 C 
ATOM      6  C   UNL d   1      -3.812  -0.065   0.000  0.00  0.00     0.196 A 
ATOM      7  C   UNL d   1      -3.392  -0.760   0.000  0.00  0.00     0.044 A 
ATOM      8  O   UNL d   1      -4.637  -0.065   0.000  0.00  0.00    -0.287 OA
ATOM      9  C   UNL d   1      -2.567  -0.760   0.000  0.00  0.00     0.023 A 
ATOM     10  C   UNL d   1      -2.195  -1.429   0.000  0.00  0.00     0.002 C 
ENDBRANCH   1   2
BRANCH   1  11
ATOM     11  O   UNL d   1      -0.933  -0.760   0.000  0.00  0.00    -0.211 OA
BRANCH  11  12
ATOM     12  C   UNL d   1      -0.124  -0.760   0.000  0.00  0.00     0.125 A 
ATOM     13  C   UNL d   1       0.297  -0.038   0.000  0.00  0.00     0.029 A 
ATOM     14  C   UNL d   1       1.122  -0.038   0.000  0.00  0.00     0.026 A 
ATOM     15  C   UNL d   1       1.537  -0.760   0.000  0.00  0.00     0.127 A 
ATOM     16  C   UNL d   1       1.122  -1.472   0.000  0.00  0.00     0.026 A 
ATOM     17  C   UNL d   1       0.280  -1.472   0.000  0.00  0.00     0.029 A 
BRANCH  15  18
ATOM     18  N   UNL d   1       2.351  -0.760   0.000  0.00  0.00    -0.114 N 
ATOM     19  O   UNL d   1       2.831  -1.429   0.000  0.00  0.00    -0.532 OA
ATOM     20  O   UNL d   1       2.804  -0.086   0.000  0.00  0.00    -0.532 OA
ENDBRANCH  15  18
ENDBRANCH  11  12
ENDBRANCH   1  11
TORSDOF 4
