REMARK  3 active torsions:
REMARK  status: ('A' for Active; 'I' for Inactive)
REMARK    1  A    between atoms: C_2  and  S_1 
REMARK    2  A    between atoms: N_3  and  S_1 
REMARK    3  A    between atoms: O_17  and  C_7 
ROOT
ATOM      1  S   UNL d   1      -0.974   1.652   0.000  0.00  0.00     0.273 S 
ATOM      2  O   UNL d   1      -0.861   2.484   0.000  0.00  0.00    -0.200 OA
ATOM      3  O   UNL d   1      -1.092   0.828   0.000  0.00  0.00    -0.200 OA
ENDROOT
BRANCH   1   4
ATOM      4  C   UNL d   1      -1.815   1.766   0.000  0.00  0.00     0.127 A 
ATOM      5  C   UNL d   1      -2.107   2.529   0.000  0.00  0.00     0.026 A 
ATOM      6  C   UNL d   1      -2.923   2.663   0.000  0.00  0.00     0.059 A 
ATOM      7 CL   UNL d   1      -3.215   3.442   0.000  0.00  0.00    -0.082 Cl
ATOM      8  C   UNL d   1      -3.455   2.018   0.000  0.00  0.00     0.013 A 
ATOM      9  C   UNL d   1      -3.138   1.238   0.000  0.00  0.00     0.026 A 
ATOM     10  C   UNL d   1      -2.322   1.120   0.000  0.00  0.00     0.106 A 
BRANCH  10  11
ATOM     11  O   UNL d   1      -2.030   0.341   0.000  0.00  0.00    -0.327 OA
ATOM     12  C   UNL d   1      -1.214   0.207   0.000  0.00  0.00     0.181 C 
ENDBRANCH  10  11
ENDBRANCH   1   4
BRANCH   1  13
ATOM     13  N   UNL d   1      -0.158   1.530   0.000  0.00  0.00    -0.226 N 
ATOM     14  C   UNL d   1       0.162   0.775   0.000  0.00  0.00     0.111 A 
ATOM     15  C   UNL d   1       0.978   0.653   0.000  0.00  0.00     0.100 A 
ATOM     16  N   UNL d   1       1.490   1.299   0.000  0.00  0.00    -0.299 N 
ATOM     17  C   UNL d   1       1.173   2.058   0.000  0.00  0.00     0.100 A 
ATOM     18  C   UNL d   1       2.095   1.181   0.000  0.00  0.00     0.100 C 
ATOM     19  C   UNL d   1       0.357   2.176   0.000  0.00  0.00     0.111 A 
ENDBRANCH   1  13
TORSDOF 3
