REMARK  6 active torsions:
REMARK  status: ('A' for Active; 'I' for Inactive)
REMARK    1  A    between atoms: C_7  and  C_4 
REMARK    2  A    between atoms: O_17  and  C_6 
REMARK    3  A    between atoms: C_8  and  C_7 
REMARK    4  A    between atoms: C_12  and  C_8 
REMARK    5  A    between atoms: O_21  and  C_11 
REMARK    6  A    between atoms: O_22  and  C_18 
ROOT
ATOM      1  C   UNL d   1      -0.510  -1.703   0.000  0.00  0.00     0.090 A 
ATOM      2  C   UNL d   1       0.157  -2.183   0.000  0.00  0.00     0.302 A 
ATOM      3  O   UNL d   1       0.763  -1.673   0.000  0.00  0.00    -0.273 OA
ATOM      4  C   UNL d   1       0.505  -0.930   0.000  0.00  0.00     0.107 A 
ATOM      5  C   UNL d   1      -0.298  -0.930   0.000  0.00  0.00     0.030 A 
ATOM      6  C   UNL d   1      -1.329  -1.916   0.000  0.00  0.00     0.121 A 
ATOM      7  C   UNL d   1      -0.864  -0.339   0.000  0.00  0.00     0.004 A 
ATOM      8  O   UNL d   1       0.182  -3.038   0.000  0.00  0.00    -0.259 OA
ATOM      9  C   UNL d   1      -1.895  -1.309   0.000  0.00  0.00     0.117 A 
ATOM     10  C   UNL d   1      -1.663  -0.546   0.000  0.00  0.00     0.026 A 
ENDROOT
BRANCH   4  11
ATOM     11  C   UNL d   1       0.991  -0.243   0.000  0.00  0.00     0.067 C 
BRANCH  11  12
ATOM     12  C   UNL d   1       1.820  -0.243   0.000  0.00  0.00     0.198 C 
ATOM     13  O   UNL d   1       2.183  -1.031   0.000  0.00  0.00    -0.286 OA
BRANCH  12  14
ATOM     14  C   UNL d   1       2.264   0.379   0.000  0.00  0.00     0.039 A 
ATOM     15  C   UNL d   1       1.916   1.092   0.000  0.00  0.00     0.005 A 
ATOM     16  C   UNL d   1       2.401   1.774   0.000  0.00  0.00     0.024 A 
ATOM     17  C   UNL d   1       3.250   1.774   0.000  0.00  0.00     0.094 A 
ATOM     18  C   UNL d   1       3.579   0.996   0.000  0.00  0.00     0.024 A 
ATOM     19  C   UNL d   1       3.093   0.379   0.000  0.00  0.00     0.005 A 
BRANCH  17  20
ATOM     20  O   UNL d   1       3.705   2.451   0.000  0.00  0.00    -0.328 OA
ATOM     21  C   UNL d   1       4.670   2.451   0.000  0.00  0.00     0.181 C 
ENDBRANCH  17  20
ENDBRANCH  12  14
ENDBRANCH  11  12
ENDBRANCH   4  11
BRANCH   6  22
ATOM     22  O   UNL d   1      -1.577  -2.689   0.000  0.00  0.00    -0.326 OA
ATOM     23  C   UNL d   1      -1.046  -3.275   0.000  0.00  0.00     0.181 C 
ENDBRANCH   6  22
BRANCH   9  24
ATOM     24  O   UNL d   1      -2.709  -1.456   0.000  0.00  0.00    -0.326 OA
ATOM     25  C   UNL d   1      -3.240  -0.849   0.000  0.00  0.00     0.181 C 
ENDBRANCH   9  24
TORSDOF 6
