REMARK  2 active torsions:
REMARK  status: ('A' for Active; 'I' for Inactive)
REMARK    1  A    between atoms: C_6  and  C_3 
REMARK    2  A    between atoms: O_13  and  C_10 
ROOT
ATOM      1  C   UNL d   1      -2.175   0.866   0.000  0.00  0.00     0.018 A 
ATOM      2  C   UNL d   1      -2.175   0.053   0.000  0.00  0.00     0.004 A 
ATOM      3  C   UNL d   1      -2.885   1.273   0.000  0.00  0.00     0.004 A 
ATOM      4  C   UNL d   1      -3.603   0.053   0.000  0.00  0.00     0.094 A 
ATOM      5  C   UNL d   1      -3.603   0.866   0.000  0.00  0.00     0.024 A 
ATOM      6  C   UNL d   1      -2.885  -0.371   0.000  0.00  0.00     0.024 A 
ENDROOT
BRANCH   1   7
ATOM      7  C   UNL d   1      -1.344   0.866   0.000  0.00  0.00     0.090 A 
ATOM      8  N   UNL d   1      -0.665   1.344   0.000  0.00  0.00    -0.219 NA
ATOM      9  C   UNL d   1      -0.018   0.835   0.000  0.00  0.00     0.215 A 
ATOM     10  S   UNL d   1      -0.293   0.085   0.000  0.00  0.00    -0.045 SA
ATOM     11  N   UNL d   1       0.796   1.036   0.000  0.00  0.00    -0.120 N 
ATOM     12  C   UNL d   1      -1.103   0.085   0.000  0.00  0.00     0.058 A 
ENDBRANCH   1   7
BRANCH   4  13
ATOM     13  O   UNL d   1      -4.328  -0.371   0.000  0.00  0.00    -0.328 OA
ATOM     14  C   UNL d   1      -4.328  -1.202   0.000  0.00  0.00     0.181 C 
ENDBRANCH   4  13
TORSDOF 2
