REMARK  1 active torsions:
REMARK  status: ('A' for Active; 'I' for Inactive)
REMARK       I    between atoms: C_3  and  N_1 
REMARK    1  A    between atoms: C_6  and  C_3 
ROOT
ATOM      1  N   UNL d   1      -3.408  -0.132   0.000  0.00  0.00    -0.175 N 
ATOM      2  N   UNL d   1      -2.933   0.559   0.000  0.00  0.00    -0.057 NA
ATOM      3  C   UNL d   1      -3.117  -0.921   0.000  0.00  0.00     0.282 C 
ATOM      4  N   UNL d   1      -3.408   1.185   0.000  0.00  0.00    -0.129 NA
ATOM      5  C   UNL d   1      -4.198   0.108   0.000  0.00  0.00     0.107 A 
ATOM      6  C   UNL d   1      -4.198   0.940   0.000  0.00  0.00     0.122 A 
ATOM      7  O   UNL d   1      -3.662  -1.556   0.000  0.00  0.00    -0.265 OA
ATOM      8  C   UNL d   1      -4.922  -0.315   0.000  0.00  0.00     0.021 A 
ATOM      9  C   UNL d   1      -4.922   1.368   0.000  0.00  0.00     0.022 A 
ATOM     10  C   UNL d   1      -5.641   0.108   0.000  0.00  0.00     0.002 A 
ATOM     11  C   UNL d   1      -5.641   0.940   0.000  0.00  0.00     0.002 A 
ENDROOT
BRANCH   3  12
ATOM     12  C   UNL d   1      -2.308  -1.077   0.000  0.00  0.00     0.058 A 
ATOM     13  C   UNL d   1      -1.763  -0.470   0.000  0.00  0.00     0.005 A 
ATOM     14  C   UNL d   1      -0.973  -0.625   0.000  0.00  0.00     0.000 A 
ATOM     15  C   UNL d   1      -2.054   0.296   0.000  0.00  0.00     0.000 A 
ATOM     16  C   UNL d   1      -0.447  -0.005   0.000  0.00  0.00     0.000 A 
ATOM     17  C   UNL d   1      -0.700  -1.410   0.000  0.00  0.00     0.000 A 
ATOM     18  C   UNL d   1      -0.700   0.747   0.000  0.00  0.00     0.000 A 
ATOM     19  C   UNL d   1      -1.504   0.902   0.000  0.00  0.00     0.000 A 
ATOM     20  C   UNL d   1      -1.241  -2.031   0.000  0.00  0.00     0.000 A 
ATOM     21  C   UNL d   1      -2.054  -1.861   0.000  0.00  0.00     0.005 A 
ENDBRANCH   3  12
TORSDOF 1
