REMARK  3 active torsions:
REMARK  status: ('A' for Active; 'I' for Inactive)
REMARK    1  A    between atoms: C_2  and  S_1 
REMARK    2  A    between atoms: N_3  and  S_1 
REMARK    3  A    between atoms: N_4  and  C_6 
ROOT
ATOM      1  C   UNL d   1      -0.344   1.819   0.000  0.00  0.00     0.116 A 
ATOM      2  C   UNL d   1       0.197   2.453   0.000  0.00  0.00     0.037 A 
ATOM      3  C   UNL d   1       0.999   2.294   0.000  0.00  0.00     0.127 A 
ATOM      4  C   UNL d   1      -0.070   1.032   0.000  0.00  0.00     0.070 A 
ATOM      5  C   UNL d   1       1.278   1.487   0.000  0.00  0.00     0.024 A 
ATOM      6  C   UNL d   1       0.741   0.881   0.000  0.00  0.00     0.014 A 
ATOM      7 CL   UNL d   1      -0.602   0.487   0.000  0.00  0.00    -0.082 Cl
ENDROOT
BRANCH   1   8
ATOM      8  S   UNL d   1      -1.175   1.986   0.000  0.00  0.00     0.273 S 
ATOM      9  O   UNL d   1      -1.016   2.801   0.000  0.00  0.00    -0.200 OA
ATOM     10  O   UNL d   1      -1.347   1.151   0.000  0.00  0.00    -0.200 OA
BRANCH   8  11
ATOM     11  N   UNL d   1      -1.978   2.134   0.000  0.00  0.00    -0.210 N 
ATOM     12  C   UNL d   1      -2.371   2.908   0.000  0.00  0.00     0.193 A 
ATOM     13  N   UNL d   1      -3.195   2.752   0.000  0.00  0.00    -0.222 NA
ATOM     14  C   UNL d   1      -3.305   1.913   0.000  0.00  0.00     0.120 A 
ATOM     15  C   UNL d   1      -2.556   1.569   0.000  0.00  0.00     0.114 A 
ENDBRANCH   8  11
ENDBRANCH   1   8
BRANCH   3  16
ATOM     16  N   UNL d   1       1.524   2.920   0.000  0.00  0.00    -0.114 N 
ATOM     17  O   UNL d   1       2.326   2.863   0.000  0.00  0.00    -0.532 OA
ATOM     18  O   UNL d   1       1.282   3.707   0.000  0.00  0.00    -0.532 OA
ENDBRANCH   3  16
TORSDOF 3
