REMARK  3 active torsions:
REMARK  status: ('A' for Active; 'I' for Inactive)
REMARK    1  A    between atoms: N_2  and  S_1 
REMARK    2  A    between atoms: C_3  and  S_1 
REMARK    3  A    between atoms: O_17  and  C_11 
ROOT
ATOM      1  S   UNL d   1      -0.384   1.341   0.000  0.00  0.00     0.274 S 
ATOM      2  O   UNL d   1      -0.552   0.513   0.000  0.00  0.00    -0.199 OA
ATOM      3  O   UNL d   1      -0.241   2.168   0.000  0.00  0.00    -0.199 OA
ENDROOT
BRANCH   1   4
ATOM      4  N   UNL d   1      -1.203   1.496   0.000  0.00  0.00    -0.212 N 
ATOM      5  C   UNL d   1      -1.522   2.246   0.000  0.00  0.00     0.193 A 
ATOM      6  N   UNL d   1      -2.375   2.142   0.000  0.00  0.00    -0.223 NA
ATOM      7  C   UNL d   1      -2.534   1.341   0.000  0.00  0.00     0.100 A 
ATOM      8  C   UNL d   1      -1.793   0.927   0.000  0.00  0.00     0.094 A 
ATOM      9  C   UNL d   1      -3.241   0.914   0.000  0.00  0.00     0.021 A 
ATOM     10  C   UNL d   1      -1.793   0.103   0.000  0.00  0.00     0.020 A 
ATOM     11  C   UNL d   1      -2.504  -0.315   0.000  0.00  0.00     0.002 A 
ATOM     12  C   UNL d   1      -3.228   0.073   0.000  0.00  0.00     0.002 A 
ENDBRANCH   1   4
BRANCH   1  13
ATOM     13  C   UNL d   1       0.466   1.172   0.000  0.00  0.00     0.127 A 
ATOM     14  C   UNL d   1       0.987   1.793   0.000  0.00  0.00     0.026 A 
ATOM     15  C   UNL d   1       1.810   1.603   0.000  0.00  0.00     0.059 A 
ATOM     16 CL   UNL d   1       2.358   2.246   0.000  0.00  0.00    -0.082 Cl
ATOM     17  C   UNL d   1       2.069   0.823   0.000  0.00  0.00     0.013 A 
ATOM     18  C   UNL d   1       1.504   0.203   0.000  0.00  0.00     0.026 A 
ATOM     19  C   UNL d   1       0.703   0.384   0.000  0.00  0.00     0.106 A 
BRANCH  19  20
ATOM     20  O   UNL d   1       0.155  -0.259   0.000  0.00  0.00    -0.327 OA
ATOM     21  C   UNL d   1       0.392  -1.034   0.000  0.00  0.00     0.181 C 
ENDBRANCH  19  20
ENDBRANCH   1  13
TORSDOF 3
