REMARK  1 active torsions:
REMARK  status: ('A' for Active; 'I' for Inactive)
REMARK    1  A    between atoms: C_6  and  C_3 
ROOT
ATOM      1  C   UNL d   1      -0.888   0.924   0.000  0.00  0.00     0.018 A 
ATOM      2  C   UNL d   1      -1.675   0.751   0.000  0.00  0.00     0.005 A 
ATOM      3  C   UNL d   1      -0.622   1.710   0.000  0.00  0.00     0.005 A 
ATOM      4  C   UNL d   1      -1.973   2.145   0.000  0.00  0.00     0.196 A 
ATOM      5  C   UNL d   1      -2.239   1.358   0.000  0.00  0.00     0.042 A 
ATOM      6  C   UNL d   1      -1.186   2.313   0.000  0.00  0.00     0.042 A 
ATOM      7  O   UNL d   1      -2.536   2.744   0.000  0.00  0.00    -0.287 OA
ENDROOT
BRANCH   1   8
ATOM      8  C   UNL d   1      -0.325   0.325   0.000  0.00  0.00     0.090 A 
ATOM      9  N   UNL d   1       0.474   0.489   0.000  0.00  0.00    -0.219 NA
ATOM     10  C   UNL d   1       0.892  -0.215   0.000  0.00  0.00     0.215 A 
ATOM     11  S   UNL d   1       0.376  -0.814   0.000  0.00  0.00    -0.045 SA
ATOM     12  N   UNL d   1       1.718  -0.329   0.000  0.00  0.00    -0.120 N 
ATOM     13  C   UNL d   1      -0.395  -0.497   0.000  0.00  0.00     0.058 A 
ENDBRANCH   1   8
TORSDOF 1
