REMARK  2 active torsions:
REMARK  status: ('A' for Active; 'I' for Inactive)
REMARK    1  A    between atoms: C_8  and  C_1 
REMARK    2  A    between atoms: N_5  and  C_8 
ROOT
ATOM      1  C   UNL d   1       6.439  -2.095   0.000  0.00  0.00     0.059 A 
ATOM      2  C   UNL d   1       5.018  -2.095   0.000  0.00  0.00     0.121 A 
ATOM      3  C   UNL d   1       5.724  -2.498   0.000  0.00  0.00     0.214 A 
ATOM      4  C   UNL d   1       5.018  -1.264   0.000  0.00  0.00     0.032 A 
ATOM      5  C   UNL d   1       5.724  -0.852   0.000  0.00  0.00     0.059 A 
ATOM      6  C   UNL d   1       6.439  -1.276   0.000  0.00  0.00     0.016 A 
ATOM      7  N   UNL d   1       4.307  -2.498   0.000  0.00  0.00    -0.241 NA
ATOM      8 CL   UNL d   1       5.724  -0.029   0.000  0.00  0.00    -0.082 Cl
ATOM      9  O   UNL d   1       5.724  -3.330   0.000  0.00  0.00    -0.285 OA
ATOM     10  C   UNL d   1       4.307  -0.865   0.000  0.00  0.00     0.004 A 
ATOM     11  C   UNL d   1       3.592  -2.095   0.000  0.00  0.00     0.099 A 
ATOM     12  C   UNL d   1       3.592  -1.276   0.000  0.00  0.00     0.021 A 
ENDROOT
BRANCH   1  13
ATOM     13  C   UNL d   1       7.162  -2.511   0.000  0.00  0.00     0.084 C 
BRANCH  13  14
ATOM     14  N   UNL d   1       7.162  -3.342   0.000  0.00  0.00    -0.302 N 
ATOM     15  C   UNL d   1       7.869  -3.745   0.000  0.00  0.00     0.080 A 
ATOM     16  C   UNL d   1       7.869  -4.577   0.000  0.00  0.00     0.018 A 
ATOM     17  C   UNL d   1       8.584  -4.988   0.000  0.00  0.00     0.002 A 
ATOM     18  C   UNL d   1       7.150  -4.988   0.000  0.00  0.00     0.003 A 
ATOM     19  C   UNL d   1       8.584  -5.824   0.000  0.00  0.00     0.000 A 
ATOM     20  C   UNL d   1       7.869  -6.235   0.000  0.00  0.00     0.000 A 
ATOM     21  C   UNL d   1       7.162  -5.824   0.000  0.00  0.00     0.000 A 
ATOM     22  C   UNL d   1       6.452  -4.577   0.000  0.00  0.00     0.019 A 
ATOM     23  C   UNL d   1       6.439  -3.745   0.000  0.00  0.00     0.080 A 
ENDBRANCH  13  14
ENDBRANCH   1  13
TORSDOF 2
