REMARK  2 active torsions:
REMARK  status: ('A' for Active; 'I' for Inactive)
REMARK    1  A    between atoms: C_2  and  C_1 
REMARK    2  A    between atoms: C_14  and  N_5 
ROOT
ATOM      1  C   UNL d   1       1.721   0.704   0.000  0.00  0.00     0.117 A 
ATOM      2  N   UNL d   1       1.925  -0.109   0.000  0.00  0.00    -0.164 NA
ATOM      3  C   UNL d   1       2.411   1.140   0.000  0.00  0.00     0.107 A 
ATOM      4  N   UNL d   1       2.734  -0.158   0.000  0.00  0.00    -0.228 N 
ATOM      5  C   UNL d   1       3.040   0.619   0.000  0.00  0.00     0.112 A 
ATOM      6  C   UNL d   1       2.481   1.971   0.000  0.00  0.00     0.104 C 
ATOM      7  N   UNL d   1       2.548   2.798   0.000  0.00  0.00    -0.191 NA
ENDROOT
BRANCH   1   8
ATOM      8  C   UNL d   1       0.929   0.971   0.000  0.00  0.00     0.084 A 
ATOM      9  C   UNL d   1       0.774   1.802   0.000  0.00  0.00     0.302 A 
ATOM     10  O   UNL d   1       0.014   2.076   0.000  0.00  0.00    -0.273 OA
ATOM     11  O   UNL d   1       1.397   2.340   0.000  0.00  0.00    -0.259 OA
ATOM     12  C   UNL d   1      -0.630   1.548   0.000  0.00  0.00     0.103 A 
ATOM     13  C   UNL d   1      -0.475   0.735   0.000  0.00  0.00     0.023 A 
ATOM     14  C   UNL d   1      -1.390   1.833   0.000  0.00  0.00     0.025 A 
ATOM     15  C   UNL d   1       0.299   0.450   0.000  0.00  0.00     0.009 A 
ATOM     16  C   UNL d   1      -1.115   0.211   0.000  0.00  0.00     0.002 A 
ATOM     17  C   UNL d   1      -1.876   0.503   0.000  0.00  0.00     0.000 A 
ATOM     18  C   UNL d   1      -2.027   1.309   0.000  0.00  0.00     0.002 A 
ENDBRANCH   1   8
BRANCH   4  19
ATOM     19  C   UNL d   1       3.157  -0.869   0.000  0.00  0.00     0.083 A 
ATOM     20  C   UNL d   1       3.983  -0.869   0.000  0.00  0.00     0.019 A 
ATOM     21  C   UNL d   1       4.392  -1.577   0.000  0.00  0.00     0.002 A 
ATOM     22  C   UNL d   1       3.983  -2.284   0.000  0.00  0.00     0.000 A 
ATOM     23  C   UNL d   1       3.139  -2.305   0.000  0.00  0.00     0.002 A 
ATOM     24  C   UNL d   1       2.734  -1.577   0.000  0.00  0.00     0.019 A 
ENDBRANCH   4  19
TORSDOF 2
