REMARK  4 active torsions:
REMARK  status: ('A' for Active; 'I' for Inactive)
REMARK    1  A    between atoms: C_8  and  C_1 
REMARK    2  A    between atoms: N_7  and  C_8 
REMARK    3  A    between atoms: C_18  and  N_9 
REMARK    4  A    between atoms: C_21  and  C_18 
ROOT
ATOM      1  C   UNL d   1       6.451  -2.578   0.000  0.00  0.00     0.059 A 
ATOM      2  C   UNL d   1       5.027  -2.578   0.000  0.00  0.00     0.121 A 
ATOM      3  C   UNL d   1       5.747  -2.998   0.000  0.00  0.00     0.214 A 
ATOM      4  C   UNL d   1       5.027  -1.753   0.000  0.00  0.00     0.032 A 
ATOM      5  C   UNL d   1       5.735  -1.337   0.000  0.00  0.00     0.059 A 
ATOM      6  C   UNL d   1       6.451  -1.749   0.000  0.00  0.00     0.016 A 
ATOM      7  N   UNL d   1       4.315  -2.998   0.000  0.00  0.00    -0.241 NA
ATOM      8 CL   UNL d   1       5.735  -0.516   0.000  0.00  0.00    -0.082 Cl
ATOM      9  O   UNL d   1       5.747  -3.815   0.000  0.00  0.00    -0.285 OA
ATOM     10  C   UNL d   1       4.302  -1.349   0.000  0.00  0.00     0.004 A 
ATOM     11  C   UNL d   1       3.598  -2.586   0.000  0.00  0.00     0.099 A 
ATOM     12  C   UNL d   1       3.598  -1.753   0.000  0.00  0.00     0.021 A 
ENDROOT
BRANCH   1  13
ATOM     13  C   UNL d   1       7.176  -2.986   0.000  0.00  0.00     0.084 C 
BRANCH  13  14
ATOM     14  N   UNL d   1       7.176  -3.815   0.000  0.00  0.00    -0.300 N 
ATOM     15  C   UNL d   1       7.896  -4.227   0.000  0.00  0.00     0.100 A 
ATOM     16  C   UNL d   1       7.896  -5.048   0.000  0.00  0.00     0.100 A 
ATOM     17  N   UNL d   1       7.184  -5.464   0.000  0.00  0.00    -0.297 N 
ATOM     18  C   UNL d   1       6.463  -5.052   0.000  0.00  0.00     0.100 A 
ATOM     19  C   UNL d   1       6.463  -4.235   0.000  0.00  0.00     0.100 A 
BRANCH  17  20
ATOM     20  C   UNL d   1       7.184  -6.284   0.000  0.00  0.00     0.126 C 
BRANCH  20  21
ATOM     21  C   UNL d   1       6.476  -6.701   0.000  0.00  0.00     0.253 C 
ATOM     22  O   UNL d   1       6.484  -7.534   0.000  0.00  0.00    -0.281 OA
ENDBRANCH  20  21
ENDBRANCH  17  20
ENDBRANCH  13  14
ENDBRANCH   1  13
TORSDOF 4
