REMARK  3 active torsions:
REMARK  status: ('A' for Active; 'I' for Inactive)
REMARK    1  A    between atoms: N_2  and  C_1 
REMARK    2  A    between atoms: C_5  and  C_4 
REMARK       I    between atoms: N_6  and  C_5 
REMARK    3  A    between atoms: C_9  and  N_6 
ROOT
ATOM      1  C   UNL d   1      -0.090   0.381   0.000  0.00  0.00     0.285 C 
ATOM      2  N   UNL d   1      -0.042  -0.444   0.000  0.00  0.00    -0.205 NA
ATOM      3  O   UNL d   1       0.576   0.840   0.000  0.00  0.00    -0.265 OA
ENDROOT
BRANCH   1   4
ATOM      4  C   UNL d   1      -0.819   0.756   0.000  0.00  0.00     0.089 A 
ATOM      5  S   UNL d   1      -1.522   0.375   0.000  0.00  0.00    -0.059 SA
ATOM      6  C   UNL d   1      -2.135   0.904   0.000  0.00  0.00     0.156 A 
ATOM      7  C   UNL d   1      -1.792   1.675   0.000  0.00  0.00     0.031 A 
ATOM      8  C   UNL d   1      -0.967   1.580   0.000  0.00  0.00     0.014 A 
BRANCH   6   9
ATOM      9  N   UNL d   1      -2.918   0.714   0.000  0.00  0.00    -0.107 N 
ATOM     10  O   UNL d   1      -3.552   1.247   0.000  0.00  0.00    -0.531 OA
ATOM     11  O   UNL d   1      -3.187  -0.037   0.000  0.00  0.00    -0.531 OA
ENDBRANCH   6   9
ENDBRANCH   1   4
BRANCH   2  12
ATOM     12  C   UNL d   1      -0.724  -0.888   0.000  0.00  0.00     0.112 A 
ATOM     13  C   UNL d   1      -0.676  -1.712   0.000  0.00  0.00     0.158 A 
ATOM     14  F   UNL d   1       0.063  -2.093   0.000  0.00  0.00    -0.203 F 
ATOM     15  C   UNL d   1      -1.358  -2.156   0.000  0.00  0.00     0.031 A 
ATOM     16  C   UNL d   1      -2.093  -1.781   0.000  0.00  0.00     0.002 A 
ATOM     17  C   UNL d   1      -2.151  -0.973   0.000  0.00  0.00     0.002 A 
ATOM     18  C   UNL d   1      -1.459  -0.513   0.000  0.00  0.00     0.021 A 
ENDBRANCH   2  12
TORSDOF 3
