REMARK  4 active torsions:
REMARK  status: ('A' for Active; 'I' for Inactive)
REMARK    1  A    between atoms: N_8  and  C_2 
REMARK    2  A    between atoms: C_9  and  C_3 
REMARK    3  A    between atoms: C_7  and  N_10 
REMARK    4  A    between atoms: N_10  and  N_8 
ROOT
ATOM      1  N   UNL d   1       2.232   0.212   0.000  0.00  0.00    -0.219 NA
ATOM      2  C   UNL d   1       3.047   0.212   0.000  0.00  0.00     0.215 A 
ATOM      3  C   UNL d   1       1.999   1.018   0.000  0.00  0.00     0.090 A 
ATOM      4  S   UNL d   1       3.317   0.993   0.000  0.00  0.00    -0.045 SA
ATOM      5  C   UNL d   1       2.673   1.480   0.000  0.00  0.00     0.058 A 
ENDROOT
BRANCH   2   6
ATOM      6  N   UNL d   1       3.533  -0.453   0.000  0.00  0.00    -0.120 NA
BRANCH   6   7
ATOM      7  N   UNL d   1       4.343  -0.366   0.000  0.00  0.00    -0.127 NA
BRANCH   7   8
ATOM      8  C   UNL d   1       4.830  -1.039   0.000  0.00  0.00     0.184 A 
ATOM      9  N   UNL d   1       4.402  -1.737   0.000  0.00  0.00    -0.224 NA
ATOM     10  C   UNL d   1       4.655  -2.510   0.000  0.00  0.00     0.101 A 
ATOM     11  C   UNL d   1       5.416  -2.793   0.000  0.00  0.00     0.021 A 
ATOM     12  C   UNL d   1       6.127  -2.361   0.000  0.00  0.00     0.002 A 
ATOM     13  C   UNL d   1       6.235  -1.559   0.000  0.00  0.00     0.003 A 
ATOM     14  C   UNL d   1       5.653  -0.948   0.000  0.00  0.00     0.041 A 
ENDBRANCH   7   8
ENDBRANCH   6   7
ENDBRANCH   2   6
BRANCH   3  15
ATOM     15  C   UNL d   1       1.197   1.255   0.000  0.00  0.00     0.018 A 
ATOM     16  C   UNL d   1       0.590   0.711   0.000  0.00  0.00     0.002 A 
ATOM     17  C   UNL d   1      -0.195   0.960   0.000  0.00  0.00     0.011 A 
ATOM     18  C   UNL d   1      -0.370   1.766   0.000  0.00  0.00     0.058 A 
ATOM     19  C   UNL d   1       0.229   2.328   0.000  0.00  0.00     0.011 A 
ATOM     20 CL   UNL d   1      -1.172   2.003   0.000  0.00  0.00    -0.082 Cl
ATOM     21  C   UNL d   1       1.022   2.078   0.000  0.00  0.00     0.002 A 
ENDBRANCH   3  15
TORSDOF 4
