REMARK  3 active torsions:
REMARK  status: ('A' for Active; 'I' for Inactive)
REMARK    1  A    between atoms: C_7  and  C_3 
REMARK    2  A    between atoms: N_5  and  C_8 
REMARK    3  A    between atoms: C_13  and  C_7 
ROOT
ATOM      1  C   UNL d   1      -1.802  -0.134   0.000  0.00  0.00     0.127 A 
ATOM      2  C   UNL d   1      -0.357  -0.082   0.000  0.00  0.00     0.002 A 
ATOM      3  C   UNL d   1      -1.081  -0.535   0.000  0.00  0.00     0.024 A 
ATOM      4  C   UNL d   1      -1.824   0.680   0.000  0.00  0.00     0.024 A 
ATOM      5  C   UNL d   1      -1.100   1.115   0.000  0.00  0.00     0.002 A 
ATOM      6  C   UNL d   1      -0.375   0.713   0.000  0.00  0.00     0.000 A 
ENDROOT
BRANCH   2   7
ATOM      7  C   UNL d   1       0.357  -0.490   0.000  0.00  0.00     0.011 C 
BRANCH   7   8
ATOM      8  C   UNL d   1       1.070  -0.048   0.000  0.00  0.00     0.092 A 
ATOM      9  C   UNL d   1       1.052   0.732   0.000  0.00  0.00     0.288 A 
ATOM     10  N   UNL d   1       1.832   1.000   0.000  0.00  0.00    -0.163 NA
ATOM     11  O   UNL d   1       0.360   1.215   0.000  0.00  0.00    -0.265 OA
ATOM     12  C   UNL d   1       2.319   0.353   0.000  0.00  0.00     0.313 A 
ATOM     13  S   UNL d   1       1.873  -0.312   0.000  0.00  0.00    -0.021 SA
ATOM     14  O   UNL d   1       3.166   0.357   0.000  0.00  0.00    -0.258 OA
ENDBRANCH   7   8
ENDBRANCH   2   7
BRANCH   1  15
ATOM     15  N   UNL d   1      -2.508  -0.550   0.000  0.00  0.00    -0.114 N 
ATOM     16  O   UNL d   1      -3.229  -0.149   0.000  0.00  0.00    -0.532 OA
ATOM     17  O   UNL d   1      -2.497  -1.364   0.000  0.00  0.00    -0.532 OA
ENDBRANCH   1  15
TORSDOF 3
