REMARK  0 active torsions:
REMARK  status: ('A' for Active; 'I' for Inactive)
ROOT
ATOM      1  C   UNL d   1       6.731  -1.200   0.000  0.00  0.00     0.106 A 
ATOM      2  O   UNL d   1       7.439  -0.788   0.000  0.00  0.00    -0.273 OA
ATOM      3  C   UNL d   1       8.156  -1.204   0.000  0.00  0.00     0.300 A 
ATOM      4  C   UNL d   1       7.439  -2.438   0.000  0.00  0.00     0.007 A 
ATOM      5  C   UNL d   1       6.731  -2.030   0.000  0.00  0.00     0.023 A 
ATOM      6  C   UNL d   1       8.156  -2.030   0.000  0.00  0.00     0.064 A 
ATOM      7  C   UNL d   1       6.018  -0.788   0.000  0.00  0.00     0.062 A 
ATOM      8  C   UNL d   1       6.018  -2.438   0.000  0.00  0.00     0.005 A 
ATOM      9  C   UNL d   1       5.301  -1.204   0.000  0.00  0.00     0.198 A 
ATOM     10  O   UNL d   1       8.881  -0.788   0.000  0.00  0.00    -0.259 OA
ATOM     11  C   UNL d   1       5.301  -2.030   0.000  0.00  0.00     0.042 A 
ATOM     12  C   UNL d   1       7.439  -3.267   0.000  0.00  0.00     0.000 A 
ATOM     13  C   UNL d   1       8.868  -2.438   0.000  0.00  0.00     0.005 A 
ATOM     14  O   UNL d   1       4.580  -0.788   0.000  0.00  0.00    -0.286 OA
ATOM     15  C   UNL d   1       6.018   0.021   0.000  0.00  0.00     0.005 C 
ATOM     16  C   UNL d   1       8.152  -3.680   0.000  0.00  0.00     0.000 A 
ATOM     17  C   UNL d   1       8.881  -3.267   0.000  0.00  0.00     0.000 A 
ENDROOT
TORSDOF 0
