REMARK  4 active torsions:
REMARK  status: ('A' for Active; 'I' for Inactive)
REMARK       I    between atoms: N_2  and  C_1 
REMARK    1  A    between atoms: C_3  and  C_1 
REMARK    2  A    between atoms: C_7  and  N_2 
REMARK    3  A    between atoms: O_17  and  C_9 
REMARK    4  A    between atoms: C_18  and  O_17 
ROOT
ATOM      1  C   UNL d   1       0.400   0.631   0.000  0.00  0.00     0.279 C 
ATOM      2  N   UNL d   1      -0.013  -0.090   0.000  0.00  0.00    -0.208 NA
ATOM      3  O   UNL d   1       1.224   0.614   0.000  0.00  0.00    -0.265 OA
ENDROOT
BRANCH   2   4
ATOM      4  C   UNL d   1      -0.838  -0.090   0.000  0.00  0.00     0.085 A 
ATOM      5  C   UNL d   1      -1.250  -0.790   0.000  0.00  0.00     0.021 A 
ATOM      6  C   UNL d   1      -2.075  -0.790   0.000  0.00  0.00     0.026 A 
ATOM      7  C   UNL d   1      -2.487  -0.090   0.000  0.00  0.00     0.100 A 
ATOM      8  C   UNL d   1      -2.075   0.653   0.000  0.00  0.00     0.026 A 
ATOM      9  C   UNL d   1      -1.250   0.631   0.000  0.00  0.00     0.021 A 
BRANCH   7  10
ATOM     10  O   UNL d   1      -3.312  -0.107   0.000  0.00  0.00    -0.305 OA
BRANCH  10  11
ATOM     11  C   UNL d   1      -3.725   0.589   0.000  0.00  0.00     0.123 C 
ATOM     12  C   UNL d   1      -4.549   0.567   0.000  0.00  0.00     0.029 C 
ENDBRANCH  10  11
ENDBRANCH   7  10
ENDBRANCH   2   4
BRANCH   1  13
ATOM     13  C   UNL d   1      -0.013   1.353   0.000  0.00  0.00     0.058 A 
ATOM     14  C   UNL d   1      -0.838   1.353   0.000  0.00  0.00     0.006 A 
ATOM     15  C   UNL d   1      -1.250   2.058   0.000  0.00  0.00     0.021 A 
ATOM     16  C   UNL d   1      -0.838   2.797   0.000  0.00  0.00     0.103 A 
ATOM     17  C   UNL d   1      -0.013   2.779   0.000  0.00  0.00     0.021 A 
ATOM     18  N   UNL d   1      -1.233   3.372   0.000  0.00  0.00    -0.148 N 
ATOM     19  C   UNL d   1       0.400   2.058   0.000  0.00  0.00     0.006 A 
ENDBRANCH   1  13
TORSDOF 4
