REMARK  6 active torsions:
REMARK  status: ('A' for Active; 'I' for Inactive)
REMARK    1  A    between atoms: C_9  and  N_1 
REMARK    2  A    between atoms: C_3  and  C_2 
REMARK    3  A    between atoms: C_12  and  C_9 
REMARK    4  A    between atoms: C_15  and  C_9 
REMARK    5  A    between atoms: C_20  and  C_15 
REMARK    6  A    between atoms: C_17  and  C_20 
ROOT
ATOM      1  N   UNL d   1       4.400  -1.780   0.000  0.00  0.00    -0.254 N 
ATOM      2  C   UNL d   1       3.385  -2.551   0.000  0.00  0.00     0.093 A 
ATOM      3  C   UNL d   1       4.699  -2.482   0.000  0.00  0.00     0.153 A 
ATOM      4  C   UNL d   1       3.594  -1.780   0.000  0.00  0.00     0.272 A 
ATOM      5  S   UNL d   1       4.067  -2.982   0.000  0.00  0.00    -0.053 SA
ATOM      6  S   UNL d   1       5.513  -2.648   0.000  0.00  0.00    -0.052 SA
ATOM      7  O   UNL d   1       3.086  -1.147   0.000  0.00  0.00    -0.266 OA
ENDROOT
BRANCH   2   8
ATOM      8  C   UNL d   1       2.614  -2.843   0.000  0.00  0.00     0.070 A 
ATOM      9  C   UNL d   1       2.530  -3.650   0.000  0.00  0.00     0.280 A 
ATOM     10  N   UNL d   1       1.717  -3.844   0.000  0.00  0.00    -0.208 NA
ATOM     11  O   UNL d   1       3.149  -4.199   0.000  0.00  0.00    -0.265 OA
ATOM     12  C   UNL d   1       1.300  -3.135   0.000  0.00  0.00     0.085 A 
ATOM     13  C   UNL d   1       1.842  -2.510   0.000  0.00  0.00     0.023 A 
ATOM     14  C   UNL d   1       0.480  -2.968   0.000  0.00  0.00     0.019 A 
ATOM     15  C   UNL d   1       1.592  -1.759   0.000  0.00  0.00     0.002 A 
ATOM     16  C   UNL d   1       0.813  -1.585   0.000  0.00  0.00     0.000 A 
ATOM     17  C   UNL d   1       0.216  -2.197   0.000  0.00  0.00     0.002 A 
ENDBRANCH   2   8
BRANCH   1  18
ATOM     18  C   UNL d   1       4.922  -1.091   0.000  0.00  0.00     0.133 C 
BRANCH  18  19
ATOM     19  C   UNL d   1       4.553  -0.341   0.000  0.00  0.00     0.228 C 
ATOM     20  O   UNL d   1       3.761  -0.257   0.000  0.00  0.00    -0.643 OA
ATOM     21  O   UNL d   1       5.068   0.327   0.000  0.00  0.00    -0.643 OA
ENDBRANCH  18  19
BRANCH  18  22
ATOM     22  C   UNL d   1       5.721  -1.175   0.000  0.00  0.00     0.030 C 
BRANCH  22  23
ATOM     23  C   UNL d   1       6.013  -1.946   0.000  0.00  0.00     0.072 C 
BRANCH  23  24
ATOM     24  C   UNL d   1       6.868  -2.009   0.000  0.00  0.00     0.211 C 
ATOM     25  O   UNL d   1       7.341  -1.342   0.000  0.00  0.00    -0.644 OA
ATOM     26  O   UNL d   1       7.174  -2.760   0.000  0.00  0.00    -0.644 OA
ENDBRANCH  23  24
ENDBRANCH  22  23
ENDBRANCH  18  22
ENDBRANCH   1  18
TORSDOF 6
