REMARK  5 active torsions:
REMARK  status: ('A' for Active; 'I' for Inactive)
REMARK    1  A    between atoms: N_6  and  C_1 
REMARK    2  A    between atoms: C_11  and  N_2 
REMARK    3  A    between atoms: S_3  and  C_10 
REMARK    4  A    between atoms: N_8  and  S_3 
REMARK       I    between atoms: C_9  and  N_6 
REMARK    5  A    between atoms: C_15  and  C_9 
ROOT
ATOM      1  N   UNL d   1      -2.009   0.493   0.000  0.00  0.00    -0.189 NA
ATOM      2  C   UNL d   1      -1.395   0.000   0.000  0.00  0.00     0.281 C 
ATOM      3  O   UNL d   1      -1.594  -0.797   0.000  0.00  0.00    -0.265 OA
ENDROOT
BRANCH   2   4
ATOM      4  C   UNL d   1      -0.598   0.243   0.000  0.00  0.00     0.058 A 
ATOM      5  C   UNL d   1      -0.415   0.958   0.000  0.00  0.00     0.005 A 
ATOM      6  C   UNL d   1       0.332   1.196   0.000  0.00  0.00     0.013 A 
ATOM      7  C   UNL d   1       0.930   0.614   0.000  0.00  0.00     0.104 A 
ATOM      8  C   UNL d   1       0.670  -0.116   0.000  0.00  0.00     0.013 A 
ATOM      9  C   UNL d   1      -0.083  -0.338   0.000  0.00  0.00     0.005 A 
BRANCH   7  10
ATOM     10  S   UNL d   1       1.733   0.864   0.000  0.00  0.00     0.271 S 
ATOM     11  O   UNL d   1       1.993   0.127   0.000  0.00  0.00    -0.200 OA
ATOM     12  O   UNL d   1       1.467   1.677   0.000  0.00  0.00    -0.200 OA
BRANCH  10  13
ATOM     13  N   UNL d   1       2.530   1.041   0.000  0.00  0.00    -0.229 N 
ATOM     14  C   UNL d   1       2.829   1.794   0.000  0.00  0.00     0.092 A 
ATOM     15  C   UNL d   1       3.676   1.705   0.000  0.00  0.00     0.021 A 
ATOM     16  C   UNL d   1       3.853   0.947   0.000  0.00  0.00     0.021 A 
ATOM     17  C   UNL d   1       3.161   0.509   0.000  0.00  0.00     0.092 A 
ENDBRANCH  10  13
ENDBRANCH   7  10
ENDBRANCH   2   4
BRANCH   1  18
ATOM     18  C   UNL d   1      -2.817   0.349   0.000  0.00  0.00     0.165 A 
ATOM     19  N   UNL d   1      -3.482   0.775   0.000  0.00  0.00    -0.238 N 
ATOM     20  N   UNL d   1      -4.146   0.393   0.000  0.00  0.00    -0.168 NA
ATOM     21  C   UNL d   1      -3.936  -0.399   0.000  0.00  0.00     0.111 A 
ATOM     22  C   UNL d   1      -3.122  -0.448   0.000  0.00  0.00     0.062 A 
ATOM     23  C   UNL d   1      -4.213  -1.196   0.000  0.00  0.00     0.056 A 
ATOM     24  C   UNL d   1      -2.884  -1.262   0.000  0.00  0.00     0.040 A 
ATOM     25  S   UNL d   1      -3.582  -1.727   0.000  0.00  0.00    -0.084 SA
BRANCH  19  26
ATOM     26  C   UNL d   1      -3.515   1.611   0.000  0.00  0.00     0.088 C 
ATOM     27  C   UNL d   1      -4.362   1.594   0.000  0.00  0.00     0.025 C 
ATOM     28  C   UNL d   1      -2.651   1.639   0.000  0.00  0.00     0.025 C 
ATOM     29  C   UNL d   1      -3.515   2.485   0.000  0.00  0.00     0.025 C 
ENDBRANCH  19  26
ENDBRANCH   1  18
TORSDOF 5
