REMARK  6 active torsions:
REMARK  status: ('A' for Active; 'I' for Inactive)
REMARK    1  A    between atoms: C_6  and  N_1 
REMARK    2  A    between atoms: C_7  and  C_4 
REMARK    3  A    between atoms: C_8  and  C_6 
REMARK    4  A    between atoms: C_11  and  C_6 
REMARK    5  A    between atoms: C_13  and  C_7 
REMARK    6  A    between atoms: C_16  and  C_11 
ROOT
ATOM      1  N   UNL d   1       2.682   0.730   0.000  0.00  0.00    -0.254 N 
ATOM      2  C   UNL d   1       2.974   0.030   0.000  0.00  0.00     0.153 A 
ATOM      3  C   UNL d   1       1.867   0.675   0.000  0.00  0.00     0.272 A 
ATOM      4  C   UNL d   1       1.660  -0.116   0.000  0.00  0.00     0.088 A 
ATOM      5  S   UNL d   1       2.360  -0.517   0.000  0.00  0.00    -0.054 SA
ATOM      6  S   UNL d   1       3.819  -0.079   0.000  0.00  0.00    -0.052 SA
ATOM      7  O   UNL d   1       1.313   1.313   0.000  0.00  0.00    -0.266 OA
ENDROOT
BRANCH   1   8
ATOM      8  C   UNL d   1       3.144   1.435   0.000  0.00  0.00     0.132 C 
BRANCH   8   9
ATOM      9  C   UNL d   1       2.797   2.165   0.000  0.00  0.00     0.228 C 
ATOM     10  O   UNL d   1       1.976   2.256   0.000  0.00  0.00    -0.643 OA
ATOM     11  O   UNL d   1       3.290   2.840   0.000  0.00  0.00    -0.643 OA
ENDBRANCH   8   9
BRANCH   8  12
ATOM     12  C   UNL d   1       3.995   1.344   0.000  0.00  0.00     0.024 C 
BRANCH  12  13
ATOM     13  C   UNL d   1       4.457   2.019   0.000  0.00  0.00     0.002 A 
ATOM     14  C   UNL d   1       4.141   2.749   0.000  0.00  0.00     0.000 A 
ATOM     15  C   UNL d   1       4.640   3.424   0.000  0.00  0.00     0.000 A 
ATOM     16  C   UNL d   1       5.424   3.314   0.000  0.00  0.00     0.000 A 
ATOM     17  C   UNL d   1       5.771   2.572   0.000  0.00  0.00     0.000 A 
ATOM     18  C   UNL d   1       5.279   1.897   0.000  0.00  0.00     0.000 A 
ENDBRANCH  12  13
ENDBRANCH   8  12
ENDBRANCH   1   8
BRANCH   4  19
ATOM     19  C   UNL d   1       0.876  -0.371   0.000  0.00  0.00     0.011 C 
BRANCH  19  20
ATOM     20  C   UNL d   1       0.663  -1.192   0.000  0.00  0.00     0.001 A 
ATOM     21  C   UNL d   1      -0.122  -1.393   0.000  0.00  0.00     0.001 A 
ATOM     22  C   UNL d   1      -0.359  -2.189   0.000  0.00  0.00     0.007 A 
ATOM     23  C   UNL d   1       0.262  -2.797   0.000  0.00  0.00     0.035 A 
ATOM     24  C   UNL d   1       1.046  -2.560   0.000  0.00  0.00     0.007 A 
ATOM     25 BR   UNL d   1       0.055  -3.618   0.000  0.00  0.00    -0.049 Br
ATOM     26  C   UNL d   1       1.247  -1.776   0.000  0.00  0.00     0.001 A 
ENDBRANCH  19  20
ENDBRANCH   4  19
TORSDOF 6
