REMARK  1 active torsions:
REMARK  status: ('A' for Active; 'I' for Inactive)
REMARK    1  A    between atoms: C_4  and  C_1 
REMARK       I    between atoms: N_5  and  C_1 
ROOT
ATOM      1  N   UNL d   1      -2.696   0.150   0.000  0.00  0.00    -0.242 NA
ATOM      2  C   UNL d   1      -2.696   1.805   0.000  0.00  0.00     0.062 A 
ATOM      3  C   UNL d   1      -3.408   0.569   0.000  0.00  0.00     0.099 A 
ATOM      4  C   UNL d   1      -1.981   0.569   0.000  0.00  0.00     0.099 A 
ATOM      5  C   UNL d   1      -1.981   1.394   0.000  0.00  0.00     0.025 A 
ATOM      6  C   UNL d   1      -3.408   1.394   0.000  0.00  0.00     0.025 A 
ENDROOT
BRANCH   2   7
ATOM      7  C   UNL d   1      -2.770   2.256   0.000  0.00  0.00     0.298 C 
ATOM      8  O   UNL d   1      -3.390   2.638   0.000  0.00  0.00    -0.264 OA
ATOM      9  N   UNL d   1      -2.175   2.737   0.000  0.00  0.00    -0.085 NA
ATOM     10  N   UNL d   1      -1.779   2.374   0.000  0.00  0.00    -0.019 N 
ENDBRANCH   2   7
TORSDOF 1
