REMARK  3 active torsions:
REMARK  status: ('A' for Active; 'I' for Inactive)
REMARK    1  A    between atoms: C_8  and  C_1 
REMARK    2  A    between atoms: O_13  and  C_6 
REMARK    3  A    between atoms: C_17  and  O_13 
ROOT
ATOM      1  C   UNL d   1       5.537  -1.788   0.000  0.00  0.00     0.009 A 
ATOM      2  C   UNL d   1       4.817  -1.379   0.000  0.00  0.00     0.046 A 
ATOM      3  C   UNL d   1       4.817  -0.550   0.000  0.00  0.00     0.105 A 
ATOM      4  O   UNL d   1       5.529  -0.138   0.000  0.00  0.00    -0.273 OA
ATOM      5  C   UNL d   1       6.250  -1.379   0.000  0.00  0.00     0.069 A 
ATOM      6  C   UNL d   1       4.104  -1.788   0.000  0.00  0.00     0.102 A 
ATOM      7  C   UNL d   1       6.250  -0.554   0.000  0.00  0.00     0.300 A 
ATOM      8  C   UNL d   1       4.104  -0.138   0.000  0.00  0.00     0.025 A 
ATOM      9  C   UNL d   1       3.388  -1.379   0.000  0.00  0.00     0.025 A 
ATOM     10  O   UNL d   1       6.967  -0.138   0.000  0.00  0.00    -0.259 OA
ATOM     11  C   UNL d   1       3.388  -0.554   0.000  0.00  0.00     0.004 A 
ATOM     12  C   UNL d   1       2.679  -0.138   0.000  0.00  0.00     0.000 C 
ENDROOT
BRANCH   1  13
ATOM     13  C   UNL d   1       5.537  -2.617   0.000  0.00  0.00     0.000 A 
ATOM     14  C   UNL d   1       4.817  -3.029   0.000  0.00  0.00     0.000 A 
ATOM     15  C   UNL d   1       4.817  -3.867   0.000  0.00  0.00     0.000 A 
ATOM     16  C   UNL d   1       5.529  -4.279   0.000  0.00  0.00     0.000 A 
ATOM     17  C   UNL d   1       6.250  -3.854   0.000  0.00  0.00     0.000 A 
ATOM     18  C   UNL d   1       6.250  -3.029   0.000  0.00  0.00     0.000 A 
ENDBRANCH   1  13
BRANCH   6  19
ATOM     19  O   UNL d   1       4.104  -2.617   0.000  0.00  0.00    -0.305 OA
BRANCH  19  20
ATOM     20  C   UNL d   1       3.400  -3.029   0.000  0.00  0.00     0.123 C 
ATOM     21  C   UNL d   1       2.688  -2.617   0.000  0.00  0.00     0.029 C 
ENDBRANCH  19  20
ENDBRANCH   6  19
TORSDOF 3
