REMARK  4 active torsions:
REMARK  status: ('A' for Active; 'I' for Inactive)
REMARK    1  A    between atoms: N_5  and  C_9 
REMARK    2  A    between atoms: O_11  and  C_8 
REMARK    3  A    between atoms: C_20  and  O_11 
REMARK    4  A    between atoms: C_21  and  C_20 
ROOT
ATOM      1  C   UNL d   1       5.193   0.447   0.000  0.00  0.00     0.009 A 
ATOM      2  C   UNL d   1       4.479   0.852   0.000  0.00  0.00     0.046 A 
ATOM      3  C   UNL d   1       5.903   0.852   0.000  0.00  0.00     0.064 A 
ATOM      4  C   UNL d   1       5.903   1.675   0.000  0.00  0.00     0.300 A 
ATOM      5  C   UNL d   1       4.466   1.675   0.000  0.00  0.00     0.105 A 
ATOM      6  O   UNL d   1       5.193   2.089   0.000  0.00  0.00    -0.273 OA
ATOM      7  C   UNL d   1       3.760   0.434   0.000  0.00  0.00     0.102 A 
ATOM      8  C   UNL d   1       3.760   2.089   0.000  0.00  0.00     0.025 A 
ATOM      9  C   UNL d   1       3.037   0.852   0.000  0.00  0.00     0.025 A 
ATOM     10  O   UNL d   1       6.622   2.101   0.000  0.00  0.00    -0.259 OA
ATOM     11  C   UNL d   1       3.046   1.675   0.000  0.00  0.00     0.004 A 
ATOM     12  C   UNL d   1       5.193  -0.380   0.000  0.00  0.00     0.000 A 
ATOM     13  C   UNL d   1       6.622   0.447   0.000  0.00  0.00     0.005 A 
ATOM     14  C   UNL d   1       2.323   2.089   0.000  0.00  0.00     0.000 C 
ATOM     15  C   UNL d   1       5.903  -0.802   0.000  0.00  0.00     0.000 A 
ATOM     16  C   UNL d   1       6.622  -0.380   0.000  0.00  0.00     0.000 A 
ENDROOT
BRANCH   7  17
ATOM     17  O   UNL d   1       3.764  -0.380   0.000  0.00  0.00    -0.305 OA
BRANCH  17  18
ATOM     18  C   UNL d   1       3.046  -0.802   0.000  0.00  0.00     0.122 C 
BRANCH  18  19
ATOM     19  C   UNL d   1       2.335  -0.389   0.000  0.00  0.00     0.025 A 
ATOM     20  C   UNL d   1       1.621  -0.802   0.000  0.00  0.00     0.004 A 
ATOM     21  C   UNL d   1       0.907  -0.401   0.000  0.00  0.00     0.024 A 
ATOM     22  C   UNL d   1       0.902   0.422   0.000  0.00  0.00     0.127 A 
ATOM     23  C   UNL d   1       1.608   0.848   0.000  0.00  0.00     0.024 A 
ATOM     24  C   UNL d   1       2.335   0.434   0.000  0.00  0.00     0.004 A 
BRANCH  22  25
ATOM     25  N   UNL d   1       0.188   0.836   0.000  0.00  0.00    -0.114 N 
ATOM     26  O   UNL d   1       0.180   1.654   0.000  0.00  0.00    -0.532 OA
ATOM     27  O   UNL d   1      -0.522   0.414   0.000  0.00  0.00    -0.532 OA
ENDBRANCH  22  25
ENDBRANCH  18  19
ENDBRANCH  17  18
ENDBRANCH   7  17
TORSDOF 4
