REMARK  3 active torsions:
REMARK  status: ('A' for Active; 'I' for Inactive)
REMARK    1  A    between atoms: C_8  and  C_2 
REMARK    2  A    between atoms: N_9  and  C_8 
REMARK    3  A    between atoms: C_20  and  C_13 
ROOT
ATOM      1  C   UNL d   1       6.350  -2.154   0.000  0.00  0.00     0.108 A 
ATOM      2  C   UNL d   1       5.629  -1.750   0.000  0.00  0.00     0.079 A 
ATOM      3  O   UNL d   1       7.054  -1.750   0.000  0.00  0.00    -0.273 OA
ATOM      4  C   UNL d   1       7.779  -2.154   0.000  0.00  0.00     0.300 A 
ATOM      5  C   UNL d   1       7.054  -3.400   0.000  0.00  0.00     0.007 A 
ATOM      6  C   UNL d   1       6.350  -2.979   0.000  0.00  0.00     0.023 A 
ATOM      7  C   UNL d   1       7.779  -2.987   0.000  0.00  0.00     0.064 A 
ATOM      8  C   UNL d   1       5.638  -3.400   0.000  0.00  0.00     0.005 A 
ATOM      9  C   UNL d   1       4.917  -2.154   0.000  0.00  0.00     0.199 A 
ATOM     10  O   UNL d   1       8.500  -1.750   0.000  0.00  0.00    -0.259 OA
ATOM     11  C   UNL d   1       4.917  -2.979   0.000  0.00  0.00     0.042 A 
ATOM     12  C   UNL d   1       7.217  -4.204   0.000  0.00  0.00     0.000 A 
ATOM     13  C   UNL d   1       8.387  -3.550   0.000  0.00  0.00     0.005 A 
ATOM     14  O   UNL d   1       4.200  -1.750   0.000  0.00  0.00    -0.286 OA
ATOM     15  C   UNL d   1       8.050  -4.300   0.000  0.00  0.00     0.000 A 
ENDROOT
BRANCH   2  16
ATOM     16  C   UNL d   1       5.638  -0.917   0.000  0.00  0.00     0.085 C 
BRANCH  16  17
ATOM     17  N   UNL d   1       6.350  -0.504   0.000  0.00  0.00    -0.304 N 
ATOM     18  C   UNL d   1       6.338   0.300   0.000  0.00  0.00     0.064 A 
ATOM     19  C   UNL d   1       7.050   0.713   0.000  0.00  0.00     0.018 A 
ATOM     20  C   UNL d   1       7.767   0.300   0.000  0.00  0.00     0.003 A 
ATOM     21  C   UNL d   1       7.767  -0.504   0.000  0.00  0.00     0.019 A 
ATOM     22  C   UNL d   1       7.054  -0.917   0.000  0.00  0.00     0.080 A 
BRANCH  18  23
ATOM     23  C   UNL d   1       5.629   0.713   0.000  0.00  0.00     0.018 C 
ATOM     24  C   UNL d   1       5.617   1.533   0.000  0.00  0.00     0.002 C 
ENDBRANCH  18  23
ENDBRANCH  16  17
ENDBRANCH   2  16
TORSDOF 3
