REMARK  4 active torsions:
REMARK  status: ('A' for Active; 'I' for Inactive)
REMARK    1  A    between atoms: N_6  and  C_1 
REMARK    2  A    between atoms: C_7  and  N_2 
REMARK       I    between atoms: C_8  and  N_6 
REMARK    3  A    between atoms: C_19  and  C_8 
REMARK    4  A    between atoms: O_20  and  C_15 
ROOT
ATOM      1  C   UNL d   1      -1.121  -0.593   0.000  0.00  0.00     0.169 A 
ATOM      2  N   UNL d   1      -1.789  -0.098   0.000  0.00  0.00    -0.212 N 
ATOM      3  N   UNL d   1      -2.448  -0.593   0.000  0.00  0.00    -0.163 NA
ATOM      4  C   UNL d   1      -1.383  -1.364   0.000  0.00  0.00     0.062 A 
ATOM      5  C   UNL d   1      -2.209  -1.387   0.000  0.00  0.00     0.111 A 
ATOM      6  S   UNL d   1      -1.808  -2.635   0.000  0.00  0.00    -0.084 SA
ATOM      7  C   UNL d   1      -1.121  -2.172   0.000  0.00  0.00     0.040 A 
ATOM      8  C   UNL d   1      -2.462  -2.186   0.000  0.00  0.00     0.056 A 
ENDROOT
BRANCH   2   9
ATOM      9  C   UNL d   1      -1.794   0.696   0.000  0.00  0.00     0.085 A 
ATOM     10  C   UNL d   1      -2.490   1.102   0.000  0.00  0.00     0.021 A 
ATOM     11  C   UNL d   1      -2.504   1.929   0.000  0.00  0.00     0.026 A 
ATOM     12  C   UNL d   1      -1.817   2.349   0.000  0.00  0.00     0.094 A 
ATOM     13  C   UNL d   1      -1.102   1.943   0.000  0.00  0.00     0.026 A 
ATOM     14  C   UNL d   1      -1.088   1.116   0.000  0.00  0.00     0.021 A 
BRANCH  12  15
ATOM     15  O   UNL d   1      -1.794   3.106   0.000  0.00  0.00    -0.328 OA
ATOM     16  C   UNL d   1      -0.976   3.555   0.000  0.00  0.00     0.181 C 
ENDBRANCH  12  15
ENDBRANCH   2   9
BRANCH   1  17
ATOM     17  N   UNL d   1      -0.388  -0.336   0.000  0.00  0.00    -0.188 NA
ATOM     18  C   UNL d   1       0.243  -0.860   0.000  0.00  0.00     0.292 C 
ATOM     19  O   UNL d   1       0.075  -1.682   0.000  0.00  0.00    -0.264 OA
BRANCH  18  20
ATOM     20  C   UNL d   1       1.014  -0.565   0.000  0.00  0.00     0.131 C 
ATOM     21 CL   UNL d   1       1.177   0.238   0.000  0.00  0.00    -0.076 Cl
ENDBRANCH  18  20
ENDBRANCH   1  17
TORSDOF 4
