REMARK  5 active torsions:
REMARK  status: ('A' for Active; 'I' for Inactive)
REMARK    1  A    between atoms: O_8  and  C_7 
REMARK    2  A    between atoms: C_10  and  O_8 
REMARK    3  A    between atoms: C_9  and  C_10 
REMARK    4  A    between atoms: O_17  and  C_9 
REMARK    5  A    between atoms: C_21  and  O_17 
ROOT
ATOM      1  C   UNL d   1       4.737  -2.079   0.000  0.00  0.00     0.009 A 
ATOM      2  C   UNL d   1       4.029  -1.667   0.000  0.00  0.00     0.046 A 
ATOM      3  C   UNL d   1       5.454  -1.667   0.000  0.00  0.00     0.064 A 
ATOM      4  C   UNL d   1       5.454  -0.850   0.000  0.00  0.00     0.300 A 
ATOM      5  C   UNL d   1       4.029  -0.850   0.000  0.00  0.00     0.105 A 
ATOM      6  O   UNL d   1       4.737  -0.438   0.000  0.00  0.00    -0.273 OA
ATOM      7  C   UNL d   1       3.317  -2.087   0.000  0.00  0.00     0.102 A 
ATOM      8  C   UNL d   1       3.304  -0.438   0.000  0.00  0.00     0.025 A 
ATOM      9  C   UNL d   1       2.600  -1.667   0.000  0.00  0.00     0.025 A 
ATOM     10  O   UNL d   1       6.179  -0.429   0.000  0.00  0.00    -0.259 OA
ATOM     11  C   UNL d   1       2.600  -0.850   0.000  0.00  0.00     0.004 A 
ATOM     12  C   UNL d   1       4.737  -2.904   0.000  0.00  0.00     0.000 A 
ATOM     13  C   UNL d   1       6.167  -2.079   0.000  0.00  0.00     0.005 A 
ATOM     14  C   UNL d   1       1.879  -0.438   0.000  0.00  0.00     0.000 C 
ATOM     15  C   UNL d   1       5.450  -3.329   0.000  0.00  0.00     0.000 A 
ATOM     16  C   UNL d   1       6.167  -2.904   0.000  0.00  0.00     0.000 A 
ENDROOT
BRANCH   7  17
ATOM     17  O   UNL d   1       3.317  -2.904   0.000  0.00  0.00    -0.302 OA
BRANCH  17  18
ATOM     18  C   UNL d   1       2.600  -3.317   0.000  0.00  0.00     0.163 C 
ATOM     19  C   UNL d   1       2.604  -4.150   0.000  0.00  0.00     0.032 C 
BRANCH  18  20
ATOM     20  C   UNL d   1       1.887  -2.904   0.000  0.00  0.00     0.323 C 
ATOM     21  O   UNL d   1       1.887  -2.087   0.000  0.00  0.00    -0.257 OA
BRANCH  20  22
ATOM     22  O   UNL d   1       1.179  -3.329   0.000  0.00  0.00    -0.270 OA
BRANCH  22  23
ATOM     23  C   UNL d   1       0.454  -2.917   0.000  0.00  0.00     0.126 C 
ATOM     24  C   UNL d   1      -0.246  -3.329   0.000  0.00  0.00     0.029 C 
ENDBRANCH  22  23
ENDBRANCH  20  22
ENDBRANCH  18  20
ENDBRANCH  17  18
ENDBRANCH   7  17
TORSDOF 5
