REMARK  2 active torsions:
REMARK  status: ('A' for Active; 'I' for Inactive)
REMARK    1  A    between atoms: C_7  and  C_1 
REMARK    2  A    between atoms: O_15  and  C_11 
ROOT
ATOM      1  C   UNL d   1      -2.522   0.956   0.000  0.00  0.00     0.103 A 
ATOM      2  C   UNL d   1      -2.522   1.781   0.000  0.00  0.00     0.067 A 
ATOM      3  O   UNL d   1      -3.222   0.559   0.000  0.00  0.00    -0.307 OA
ATOM      4  C   UNL d   1      -3.222   2.209   0.000  0.00  0.00     0.200 A 
ATOM      5  C   UNL d   1      -3.948   1.781   0.000  0.00  0.00     0.062 A 
ATOM      6  C   UNL d   1      -3.948   0.956   0.000  0.00  0.00     0.103 A 
ATOM      7  O   UNL d   1      -3.196   3.034   0.000  0.00  0.00    -0.286 OA
ATOM      8  C   UNL d   1      -4.653   2.209   0.000  0.00  0.00     0.005 A 
ATOM      9  C   UNL d   1      -4.653   0.559   0.000  0.00  0.00     0.025 A 
ATOM     10  C   UNL d   1      -5.352   1.781   0.000  0.00  0.00     0.000 A 
ATOM     11  C   UNL d   1      -5.352   0.956   0.000  0.00  0.00     0.002 A 
ENDROOT
BRANCH   1  12
ATOM     12  C   UNL d   1      -1.817   0.559   0.000  0.00  0.00     0.023 A 
ATOM     13  C   UNL d   1      -1.796  -0.272   0.000  0.00  0.00     0.004 A 
ATOM     14  C   UNL d   1      -1.091  -0.695   0.000  0.00  0.00     0.024 A 
ATOM     15  C   UNL d   1      -0.371  -0.251   0.000  0.00  0.00     0.094 A 
ATOM     16  C   UNL d   1      -0.392   0.580   0.000  0.00  0.00     0.024 A 
ATOM     17  C   UNL d   1      -1.091   0.982   0.000  0.00  0.00     0.004 A 
BRANCH  15  18
ATOM     18  O   UNL d   1       0.381  -0.674   0.000  0.00  0.00    -0.328 OA
ATOM     19  C   UNL d   1       1.086  -0.225   0.000  0.00  0.00     0.181 C 
ENDBRANCH  15  18
ENDBRANCH   1  12
TORSDOF 2
