REMARK  5 active torsions:
REMARK  status: ('A' for Active; 'I' for Inactive)
REMARK    1  A    between atoms: C_2  and  C_1 
REMARK    2  A    between atoms: C_3  and  C_1 
REMARK    3  A    between atoms: C_4  and  C_1 
REMARK    4  A    between atoms: C_5  and  C_2 
REMARK    5  A    between atoms: C_13  and  C_5 
ROOT
ATOM      1  C   UNL d   1      -0.333   1.426   0.000  0.00  0.00     0.029 C 
ENDROOT
BRANCH   1   2
ATOM      2  C   UNL d   1      -1.046   1.016   0.000  0.00  0.00     0.044 C 
BRANCH   2   3
ATOM      3  C   UNL d   1      -1.046   0.195   0.000  0.00  0.00     0.196 C 
ATOM      4  O   UNL d   1      -0.475  -0.122   0.000  0.00  0.00    -0.287 OA
BRANCH   3   5
ATOM      5  C   UNL d   1      -1.759  -0.251   0.000  0.00  0.00     0.039 A 
ATOM      6  C   UNL d   1      -2.472   0.158   0.000  0.00  0.00     0.003 A 
ATOM      7  C   UNL d   1      -3.184  -0.281   0.000  0.00  0.00     0.000 A 
ATOM      8  C   UNL d   1      -3.168  -1.109   0.000  0.00  0.00     0.000 A 
ATOM      9  C   UNL d   1      -2.442  -1.488   0.000  0.00  0.00     0.000 A 
ATOM     10  C   UNL d   1      -1.742  -1.073   0.000  0.00  0.00     0.003 A 
ENDBRANCH   3   5
ENDBRANCH   2   3
ENDBRANCH   1   2
BRANCH   1  11
ATOM     11  C   UNL d   1      -0.333   2.254   0.000  0.00  0.00     0.100 A 
ATOM     12  O   UNL d   1      -1.046   2.663   0.000  0.00  0.00    -0.305 OA
ATOM     13  C   UNL d   1      -0.871   3.468   0.000  0.00  0.00     0.123 A 
ATOM     14  C   UNL d   1      -0.050   3.547   0.000  0.00  0.00     0.029 A 
ATOM     15  C   UNL d   1       0.281   2.808   0.000  0.00  0.00     0.027 A 
ENDBRANCH   1  11
BRANCH   1  16
ATOM     16  C   UNL d   1       0.380   1.000   0.000  0.00  0.00     0.041 A 
ATOM     17  C   UNL d   1       0.380   0.175   0.000  0.00  0.00     0.196 A 
ATOM     18  O   UNL d   1      -0.333  -0.251   0.000  0.00  0.00    -0.287 OA
ATOM     19  C   UNL d   1       1.109  -0.238   0.000  0.00  0.00     0.042 A 
ATOM     20  C   UNL d   1       1.821   0.175   0.000  0.00  0.00     0.003 A 
ATOM     21  C   UNL d   1       1.821   1.000   0.000  0.00  0.00     0.000 A 
ATOM     22  C   UNL d   1       1.109   1.412   0.000  0.00  0.00     0.003 A 
ENDBRANCH   1  16
TORSDOF 5
