REMARK  6 active torsions:
REMARK  status: ('A' for Active; 'I' for Inactive)
REMARK    1  A    between atoms: C_3  and  C_1 
REMARK    2  A    between atoms: C_5  and  C_1 
REMARK    3  A    between atoms: C_2  and  C_5 
REMARK    4  A    between atoms: C_4  and  C_2 
REMARK    5  A    between atoms: C_8  and  C_3 
REMARK    6  A    between atoms: C_7  and  C_4 
ROOT
ATOM      1  C   UNL d   1      -0.012  -0.842   0.000  0.00  0.00     0.196 C 
ATOM      2  O   UNL d   1      -0.012  -1.675   0.000  0.00  0.00    -0.287 OA
ENDROOT
BRANCH   1   3
ATOM      3  C   UNL d   1      -0.722  -0.431   0.000  0.00  0.00     0.042 C 
BRANCH   3   4
ATOM      4  C   UNL d   1      -0.739   0.394   0.000  0.00  0.00     0.003 C 
BRANCH   4   5
ATOM      5  C   UNL d   1      -1.474   0.833   0.000  0.00  0.00     0.000 A 
ATOM      6  C   UNL d   1      -1.474   1.658   0.000  0.00  0.00     0.002 A 
ATOM      7  C   UNL d   1      -2.179   2.069   0.000  0.00  0.00     0.030 A 
ATOM      8  C   UNL d   1      -2.889   1.658   0.000  0.00  0.00     0.140 A 
ATOM      9  C   UNL d   1      -2.889   0.833   0.000  0.00  0.00     0.030 A 
ATOM     10  F   UNL d   1      -3.616   2.069   0.000  0.00  0.00    -0.204 F 
ATOM     11  C   UNL d   1      -2.179   0.394   0.000  0.00  0.00     0.002 A 
ENDBRANCH   4   5
ENDBRANCH   3   4
ENDBRANCH   1   3
BRANCH   1  12
ATOM     12  C   UNL d   1       0.694  -0.431   0.000  0.00  0.00     0.042 C 
BRANCH  12  13
ATOM     13  C   UNL d   1       0.694   0.394   0.000  0.00  0.00     0.003 C 
BRANCH  13  14
ATOM     14  C   UNL d   1       1.428   0.808   0.000  0.00  0.00     0.000 A 
ATOM     15  C   UNL d   1       1.408   1.638   0.000  0.00  0.00     0.002 A 
ATOM     16  C   UNL d   1       2.118   2.052   0.000  0.00  0.00     0.030 A 
ATOM     17  C   UNL d   1       2.844   1.638   0.000  0.00  0.00     0.140 A 
ATOM     18  C   UNL d   1       2.844   0.808   0.000  0.00  0.00     0.030 A 
ATOM     19  F   UNL d   1       3.550   2.069   0.000  0.00  0.00    -0.204 F 
ATOM     20  C   UNL d   1       2.134   0.394   0.000  0.00  0.00     0.002 A 
ENDBRANCH  13  14
ENDBRANCH  12  13
ENDBRANCH   1  12
TORSDOF 6
