REMARK  1 active torsions:
REMARK  status: ('A' for Active; 'I' for Inactive)
REMARK    1  A    between atoms: C_5  and  C_1 
ROOT
ATOM      1  C   UNL d   1       0.334  -0.352   0.000  0.00  0.00     0.162 A 
ATOM      2  N   UNL d   1      -0.117  -1.014   0.000  0.00  0.00    -0.225 NA
ATOM      3  N   UNL d   1      -0.117   0.305   0.000  0.00  0.00    -0.225 NA
ATOM      4  C   UNL d   1      -0.922  -0.764   0.000  0.00  0.00     0.101 A 
ATOM      5  C   UNL d   1      -0.922   0.055   0.000  0.00  0.00     0.101 A 
ATOM      6  C   UNL d   1      -1.631  -1.190   0.000  0.00  0.00     0.021 A 
ATOM      7  C   UNL d   1      -1.631   0.470   0.000  0.00  0.00     0.021 A 
ATOM      8  C   UNL d   1      -2.347   0.055   0.000  0.00  0.00     0.002 A 
ATOM      9  C   UNL d   1      -2.347  -0.764   0.000  0.00  0.00     0.002 A 
ENDROOT
BRANCH   1  10
ATOM     10  C   UNL d   1       1.149  -0.352   0.000  0.00  0.00     0.036 A 
ATOM     11  C   UNL d   1       1.568  -1.061   0.000  0.00  0.00     0.003 A 
ATOM     12  C   UNL d   1       1.149  -1.777   0.000  0.00  0.00     0.000 C 
ATOM     13  C   UNL d   1       2.394  -1.061   0.000  0.00  0.00     0.000 A 
ATOM     14  C   UNL d   1       2.820  -0.352   0.000  0.00  0.00     0.000 A 
ATOM     15  C   UNL d   1       2.394   0.352   0.000  0.00  0.00     0.000 A 
ATOM     16  C   UNL d   1       1.568   0.352   0.000  0.00  0.00     0.003 A 
ENDBRANCH   1  10
TORSDOF 1
