REMARK  6 active torsions:
REMARK  status: ('A' for Active; 'I' for Inactive)
REMARK       I    between atoms: N_2  and  C_1 
REMARK    1  A    between atoms: C_3  and  C_1 
REMARK    2  A    between atoms: C_5  and  N_2 
REMARK    3  A    between atoms: C_6  and  C_3 
REMARK    4  A    between atoms: C_8  and  C_5 
REMARK    5  A    between atoms: O_7  and  C_6 
REMARK    6  A    between atoms: C_9  and  O_7 
ROOT
ATOM      1  C   UNL d   1       0.050   0.163   0.000  0.00  0.00     0.330 C 
ATOM      2  N   UNL d   1       0.758   0.573   0.000  0.00  0.00    -0.362 NA
ATOM      3  O   UNL d   1       0.050  -0.653   0.000  0.00  0.00    -0.251 OA
ENDROOT
BRANCH   1   4
ATOM      4  C   UNL d   1      -0.653   0.573   0.000  0.00  0.00     0.103 C 
BRANCH   4   5
ATOM      5  C   UNL d   1      -1.369   0.151   0.000  0.00  0.00     0.129 C 
BRANCH   5   6
ATOM      6  O   UNL d   1      -2.093   0.565   0.000  0.00  0.00    -0.305 OA
BRANCH   6   7
ATOM      7  C   UNL d   1      -2.809   0.151   0.000  0.00  0.00     0.100 A 
ATOM      8  C   UNL d   1      -2.809  -0.657   0.000  0.00  0.00     0.025 A 
ATOM      9  C   UNL d   1      -3.529  -1.084   0.000  0.00  0.00     0.002 A 
ATOM     10  C   UNL d   1      -4.240  -0.657   0.000  0.00  0.00     0.000 A 
ATOM     11  C   UNL d   1      -4.240   0.151   0.000  0.00  0.00     0.002 A 
ATOM     12  C   UNL d   1      -3.529   0.565   0.000  0.00  0.00     0.025 A 
ENDBRANCH   6   7
ENDBRANCH   5   6
ENDBRANCH   4   5
ENDBRANCH   1   4
BRANCH   2  13
ATOM     13  C   UNL d   1       1.461   1.000   0.000  0.00  0.00     0.165 C 
BRANCH  13  14
ATOM     14  C   UNL d   1       1.461   1.821   0.000  0.00  0.00     0.032 A 
ATOM     15  C   UNL d   1       2.177   2.231   0.000  0.00  0.00     0.003 A 
ATOM     16  C   UNL d   1       2.177   3.064   0.000  0.00  0.00     0.000 A 
ATOM     17  C   UNL d   1       1.461   3.478   0.000  0.00  0.00     0.000 A 
ATOM     18  C   UNL d   1       0.753   3.064   0.000  0.00  0.00     0.000 A 
ATOM     19  C   UNL d   1       0.753   2.231   0.000  0.00  0.00     0.003 A 
ENDBRANCH  13  14
ENDBRANCH   2  13
TORSDOF 6
