REMARK  4 active torsions:
REMARK  status: ('A' for Active; 'I' for Inactive)
REMARK    1  A    between atoms: C_2  and  C_1 
REMARK    2  A    between atoms: C_3  and  C_1 
REMARK    3  A    between atoms: C_9  and  C_1 
REMARK    4  A    between atoms: N_4  and  C_10 
ROOT
ATOM      1  C   UNL d   1       0.450   0.090   0.000  0.00  0.00     0.012 C 
ENDROOT
BRANCH   1   2
ATOM      2  C   UNL d   1       0.087  -0.655   0.000  0.00  0.00     0.077 A 
ATOM      3  C   UNL d   1       0.549  -1.341   0.000  0.00  0.00     0.195 A 
ATOM      4  C   UNL d   1       0.189  -2.085   0.000  0.00  0.00     0.019 A 
ATOM      5  O   UNL d   1       1.378  -1.278   0.000  0.00  0.00    -0.287 OA
ATOM      6  C   UNL d   1      -0.642  -2.144   0.000  0.00  0.00     0.043 A 
ATOM      7  C   UNL d   1      -1.095  -1.455   0.000  0.00  0.00     0.019 A 
ATOM      8  C   UNL d   1      -1.403  -2.442   0.000  0.00  0.00     0.009 C 
ATOM      9  C   UNL d   1      -0.332  -2.904   0.000  0.00  0.00     0.009 C 
ATOM     10  C   UNL d   1      -0.745  -0.711   0.000  0.00  0.00     0.195 A 
ATOM     11  O   UNL d   1      -1.216  -0.022   0.000  0.00  0.00    -0.287 OA
ENDBRANCH   1   2
BRANCH   1  12
ATOM     12  C   UNL d   1       0.149   0.856   0.000  0.00  0.00     0.077 A 
ATOM     13  C   UNL d   1       0.655   1.505   0.000  0.00  0.00     0.195 A 
ATOM     14  C   UNL d   1       0.372   2.268   0.000  0.00  0.00     0.019 A 
ATOM     15  O   UNL d   1       1.465   1.378   0.000  0.00  0.00    -0.287 OA
ATOM     16  C   UNL d   1      -0.447   2.389   0.000  0.00  0.00     0.043 A 
ATOM     17  C   UNL d   1      -0.978   1.750   0.000  0.00  0.00     0.019 A 
ATOM     18  C   UNL d   1      -0.149   3.150   0.000  0.00  0.00     0.009 C 
ATOM     19  C   UNL d   1      -1.226   2.696   0.000  0.00  0.00     0.009 C 
ATOM     20  C   UNL d   1      -0.667   0.978   0.000  0.00  0.00     0.195 A 
ATOM     21  O   UNL d   1      -1.201   0.344   0.000  0.00  0.00    -0.287 OA
ENDBRANCH   1  12
BRANCH   1  22
ATOM     22  C   UNL d   1       1.269   0.090   0.000  0.00  0.00     0.002 A 
ATOM     23  C   UNL d   1       1.676  -0.636   0.000  0.00  0.00     0.024 A 
ATOM     24  C   UNL d   1       2.495  -0.636   0.000  0.00  0.00     0.127 A 
ATOM     25  C   UNL d   1       2.908   0.090   0.000  0.00  0.00     0.024 A 
ATOM     26  C   UNL d   1       2.507   0.791   0.000  0.00  0.00     0.002 A 
ATOM     27  C   UNL d   1       1.676   0.791   0.000  0.00  0.00     0.000 A 
BRANCH  24  28
ATOM     28  N   UNL d   1       2.895  -1.368   0.000  0.00  0.00    -0.114 N 
ATOM     29  O   UNL d   1       2.479  -2.070   0.000  0.00  0.00    -0.532 OA
ATOM     30  O   UNL d   1       3.727  -1.399   0.000  0.00  0.00    -0.532 OA
ENDBRANCH  24  28
ENDBRANCH   1  22
TORSDOF 4
