REMARK  4 active torsions:
REMARK  status: ('A' for Active; 'I' for Inactive)
REMARK    1  A    between atoms: C_3  and  C_1 
REMARK    2  A    between atoms: C_2  and  C_3 
REMARK    3  A    between atoms: C_6  and  C_2 
REMARK    4  A    between atoms: C_4  and  C_6 
ROOT
ATOM      1  C   UNL d   1      -1.224  -0.215   0.000  0.00  0.00     0.043 C 
ENDROOT
BRANCH   1   2
ATOM      2  C   UNL d   1      -1.396  -1.016   0.000  0.00  0.00     0.202 C 
ATOM      3  O   UNL d   1      -0.818  -1.597   0.000  0.00  0.00    -0.286 OA
BRANCH   2   4
ATOM      4  C   UNL d   1      -2.193  -1.292   0.000  0.00  0.00     0.068 A 
ATOM      5  S   UNL d   1      -2.455  -2.071   0.000  0.00  0.00    -0.083 SA
ATOM      6  C   UNL d   1      -3.269  -2.092   0.000  0.00  0.00     0.035 A 
ATOM      7  C   UNL d   1      -3.517  -1.296   0.000  0.00  0.00     0.008 A 
ATOM      8  C   UNL d   1      -2.882  -0.800   0.000  0.00  0.00     0.010 A 
ENDBRANCH   2   4
ENDBRANCH   1   2
BRANCH   1   9
ATOM      9  C   UNL d   1      -0.431   0.018   0.000  0.00  0.00     0.010 C 
BRANCH   9  10
ATOM     10  C   UNL d   1      -0.258   0.829   0.000  0.00  0.00     0.030 A 
ATOM     11  S   UNL d   1       0.445   1.245   0.000  0.00  0.00    -0.086 SA
ATOM     12  C   UNL d   1       0.258   2.053   0.000  0.00  0.00     0.035 A 
ATOM     13  C   UNL d   1      -0.513   2.107   0.000  0.00  0.00     0.007 A 
ATOM     14  C   UNL d   1      -0.858   1.396   0.000  0.00  0.00     0.007 A 
ENDBRANCH   9  10
ENDBRANCH   1   9
TORSDOF 4
