REMARK  6 active torsions:
REMARK  status: ('A' for Active; 'I' for Inactive)
REMARK    1  A    between atoms: C_3  and  C_1 
REMARK    2  A    between atoms: C_2  and  C_4 
REMARK    3  A    between atoms: C_9  and  C_3 
REMARK    4  A    between atoms: C_4  and  C_10 
REMARK    5  A    between atoms: C_17  and  C_9 
REMARK    6  A    between atoms: C_10  and  C_17 
ROOT
ATOM      1  C   UNL d   1      -0.740  -0.713   0.000  0.00  0.00     0.006 C 
ATOM      2  C   UNL d   1      -0.089  -1.255   0.000  0.00  0.00     0.000 C 
ENDROOT
BRANCH   1   3
ATOM      3  C   UNL d   1      -0.569   0.093   0.000  0.00  0.00     0.043 C 
BRANCH   3   4
ATOM      4  C   UNL d   1       0.201   0.372   0.000  0.00  0.00     0.202 C 
ATOM      5  O   UNL d   1       0.372   1.193   0.000  0.00  0.00    -0.286 OA
BRANCH   4   6
ATOM      6  C   UNL d   1       0.836  -0.155   0.000  0.00  0.00     0.068 A 
ATOM      7  S   UNL d   1       1.626   0.093   0.000  0.00  0.00    -0.083 SA
ATOM      8  C   UNL d   1       2.118  -0.561   0.000  0.00  0.00     0.035 A 
ATOM      9  C   UNL d   1       1.630  -1.235   0.000  0.00  0.00     0.008 A 
ATOM     10  C   UNL d   1       0.852  -0.976   0.000  0.00  0.00     0.010 A 
ENDBRANCH   4   6
ENDBRANCH   3   4
ENDBRANCH   1   3
BRANCH   1  11
ATOM     11  C   UNL d   1      -1.518  -0.976   0.000  0.00  0.00     0.043 C 
BRANCH  11  12
ATOM     12  C   UNL d   1      -1.684  -1.812   0.000  0.00  0.00     0.202 C 
ATOM     13  O   UNL d   1      -1.069  -2.350   0.000  0.00  0.00    -0.286 OA
BRANCH  12  14
ATOM     14  C   UNL d   1      -2.482  -2.072   0.000  0.00  0.00     0.068 A 
ATOM     15  S   UNL d   1      -2.742  -2.881   0.000  0.00  0.00    -0.083 SA
ATOM     16  C   UNL d   1      -3.562  -2.881   0.000  0.00  0.00     0.035 A 
ATOM     17  C   UNL d   1      -3.822  -2.091   0.000  0.00  0.00     0.008 A 
ATOM     18  C   UNL d   1      -3.171  -1.607   0.000  0.00  0.00     0.010 A 
ENDBRANCH  12  14
ENDBRANCH  11  12
ENDBRANCH   1  11
TORSDOF 6
