REMARK  5 active torsions:
REMARK  status: ('A' for Active; 'I' for Inactive)
REMARK       I    between atoms: N_2  and  C_1 
REMARK    1  A    between atoms: C_3  and  C_1 
REMARK    2  A    between atoms: C_5  and  N_2 
REMARK    3  A    between atoms: C_6  and  C_3 
REMARK    4  A    between atoms: C_7  and  C_3 
REMARK    5  A    between atoms: C_9  and  C_5 
ROOT
ATOM      1  C   UNL d   1      -2.043   0.136   0.000  0.00  0.00     0.058 C 
ENDROOT
BRANCH   1   2
ATOM      2  C   UNL d   1      -1.025   0.000   0.000  0.00  0.00     0.275 C 
ATOM      3  N   UNL d   1      -0.277   0.187   0.000  0.00  0.00    -0.231 NA
ATOM      4  O   UNL d   1      -1.248  -0.752   0.000  0.00  0.00    -0.266 OA
BRANCH   3   5
ATOM      5  C   UNL d   1      -0.047   0.955   0.000  0.00  0.00     0.146 C 
ATOM      6  C   UNL d   1       0.706   0.733   0.000  0.00  0.00     0.033 C 
ATOM      7  C   UNL d   1      -0.815   1.166   0.000  0.00  0.00     0.033 C 
BRANCH   5   8
ATOM      8  C   UNL d   1       0.168   1.727   0.000  0.00  0.00     0.229 C 
ATOM      9  O   UNL d   1      -0.405   2.288   0.000  0.00  0.00    -0.286 OA
ENDBRANCH   5   8
ENDBRANCH   3   5
ENDBRANCH   1   2
BRANCH   1  10
ATOM     10  C   UNL d   1      -2.526  -0.515   0.000  0.00  0.00     0.005 A 
ATOM     11  C   UNL d   1      -2.211  -1.263   0.000  0.00  0.00     0.000 A 
ATOM     12  C   UNL d   1      -2.709  -1.922   0.000  0.00  0.00     0.000 A 
ATOM     13  C   UNL d   1      -3.528  -1.825   0.000  0.00  0.00     0.000 A 
ATOM     14  C   UNL d   1      -3.848  -1.057   0.000  0.00  0.00     0.000 A 
ATOM     15  C   UNL d   1      -3.353  -0.402   0.000  0.00  0.00     0.000 A 
ENDBRANCH   1  10
BRANCH   1  16
ATOM     16  C   UNL d   1      -2.499   0.807   0.000  0.00  0.00     0.005 A 
ATOM     17  C   UNL d   1      -2.148   1.556   0.000  0.00  0.00     0.000 A 
ATOM     18  C   UNL d   1      -2.616   2.246   0.000  0.00  0.00     0.000 A 
ATOM     19  C   UNL d   1      -3.446   2.183   0.000  0.00  0.00     0.000 A 
ATOM     20  C   UNL d   1      -3.801   1.423   0.000  0.00  0.00     0.000 A 
ATOM     21  C   UNL d   1      -3.322   0.745   0.000  0.00  0.00     0.000 A 
ENDBRANCH   1  16
TORSDOF 5
