REMARK  3 active torsions:
REMARK  status: ('A' for Active; 'I' for Inactive)
REMARK    1  A    between atoms: N_4  and  C_1 
REMARK    2  A    between atoms: C_5  and  C_3 
REMARK       I    between atoms: C_8  and  N_4 
REMARK    3  A    between atoms: C_9  and  C_8 
ROOT
ATOM      1  C   UNL d   1      -2.114   1.414   0.000  0.00  0.00     0.204 A 
ATOM      2  S   UNL d   1      -2.722   0.975   0.000  0.00  0.00    -0.031 SA
ATOM      3  C   UNL d   1      -3.449   1.492   0.000  0.00  0.00     0.119 A 
ATOM      4  N   UNL d   1      -2.349   2.251   0.000  0.00  0.00    -0.123 NA
ATOM      5  N   UNL d   1      -3.135   2.271   0.000  0.00  0.00    -0.143 NA
ENDROOT
BRANCH   3   6
ATOM      6  C   UNL d   1      -4.195   1.250   0.000  0.00  0.00     0.081 A 
ATOM      7  C   UNL d   1      -4.666   2.199   0.000  0.00  0.00     0.023 A 
ATOM      8  C   UNL d   1      -5.491   2.173   0.000  0.00  0.00     0.045 A 
ATOM      9  C   UNL d   1      -5.864   1.387   0.000  0.00  0.00    -0.022 A 
ATOM     10  C   UNL d   1      -6.354   1.335   0.000  0.00  0.00    -0.022 A 
ATOM     11  C   UNL d   1      -5.530   0.661   0.000  0.00  0.00    -0.008 A 
ATOM     12  C   UNL d   1      -4.509   0.491   0.000  0.00  0.00    -0.017 A 
ATOM     13  C   UNL d   1      -5.890  -0.046   0.000  0.00  0.00    -0.001 A 
ATOM     14  C   UNL d   1      -5.766   0.759   0.000  0.00  0.00    -0.008 A 
ATOM     15  C   UNL d   1      -4.941   0.785   0.000  0.00  0.00    -0.017 A 
ENDBRANCH   3   6
BRANCH   1  16
ATOM     16  N   UNL d   1      -1.309   1.256   0.000  0.00  0.00    -0.248 N 
ATOM     17  C   UNL d   1      -0.726   1.839   0.000  0.00  0.00     0.289 C 
ATOM     18  O   UNL d   1      -0.962   2.644   0.000  0.00  0.00    -0.264 OA
ATOM     19  C   UNL d   1      -1.073   0.504   0.000  0.00  0.00     0.104 C 
BRANCH  17  20
ATOM     20  C   UNL d   1       0.079   1.643   0.000  0.00  0.00     0.156 A 
ATOM     21  O   UNL d   1       0.478   0.916   0.000  0.00  0.00    -0.300 OA
ATOM     22  C   UNL d   1       1.315   1.093   0.000  0.00  0.00     0.123 A 
ATOM     23  C   UNL d   1       1.414   1.878   0.000  0.00  0.00     0.029 A 
ATOM     24  C   UNL d   1       0.674   2.232   0.000  0.00  0.00     0.032 A 
ENDBRANCH  17  20
ENDBRANCH   1  16
TORSDOF 3
