REMARK  3 active torsions:
REMARK  status: ('A' for Active; 'I' for Inactive)
REMARK    1  A    between atoms: S_5  and  C_1 
REMARK    2  A    between atoms: N_3  and  C_2 
REMARK    3  A    between atoms: C_4  and  S_5 
ROOT
ATOM      1  C   UNL d   1      -3.375  -1.691   0.000  0.00  0.00     0.140 A 
ATOM      2  C   UNL d   1      -4.073  -2.082   0.000  0.00  0.00     0.188 A 
ATOM      3  N   UNL d   1      -2.664  -2.082   0.000  0.00  0.00    -0.216 NA
ATOM      4  C   UNL d   1      -4.073  -2.921   0.000  0.00  0.00     0.209 A 
ATOM      5  N   UNL d   1      -3.375  -3.311   0.000  0.00  0.00    -0.202 NA
ATOM      6  C   UNL d   1      -2.664  -2.921   0.000  0.00  0.00     0.201 A 
ATOM      7  N   UNL d   1      -4.611  -3.254   0.000  0.00  0.00    -0.125 N 
ENDROOT
BRANCH   1   8
ATOM      8  S   UNL d   1      -3.375  -0.852   0.000  0.00  0.00    -0.028 SA
BRANCH   8   9
ATOM      9  C   UNL d   1      -2.632  -0.429   0.000  0.00  0.00     0.196 A 
ATOM     10  N   UNL d   1      -1.921  -0.845   0.000  0.00  0.00    -0.221 NA
ATOM     11  C   UNL d   1      -1.223  -0.391   0.000  0.00  0.00     0.085 A 
ATOM     12  C   UNL d   1      -0.480  -0.845   0.000  0.00  0.00     0.021 C 
ATOM     13  C   UNL d   1      -1.223   0.416   0.000  0.00  0.00     0.038 A 
ATOM     14  C   UNL d   1      -1.921   0.820   0.000  0.00  0.00     0.085 A 
ATOM     15  N   UNL d   1      -2.664   0.384   0.000  0.00  0.00    -0.221 NA
ATOM     16  C   UNL d   1      -1.921   1.646   0.000  0.00  0.00     0.021 C 
ENDBRANCH   8   9
ENDBRANCH   1   8
BRANCH   2  17
ATOM     17  N   UNL d   1      -4.784  -1.691   0.000  0.00  0.00    -0.108 N 
ATOM     18  O   UNL d   1      -4.874  -0.845   0.000  0.00  0.00    -0.532 OA
ATOM     19  O   UNL d   1      -5.527  -2.075   0.000  0.00  0.00    -0.532 OA
ENDBRANCH   2  17
TORSDOF 3
