REMARK  5 active torsions:
REMARK  status: ('A' for Active; 'I' for Inactive)
REMARK    1  A    between atoms: N_7  and  C_1 
REMARK    2  A    between atoms: C_4  and  C_3 
REMARK       I    between atoms: C_8  and  N_7 
REMARK    3  A    between atoms: C_15  and  C_8 
REMARK    4  A    between atoms: O_20  and  C_15 
REMARK    5  A    between atoms: C_22  and  O_20 
ROOT
ATOM      1  C   UNL d   1       0.428   0.105   0.000  0.00  0.00     0.204 A 
ATOM      2  S   UNL d   1      -0.223  -0.397   0.000  0.00  0.00    -0.031 SA
ATOM      3  C   UNL d   1      -0.912   0.074   0.000  0.00  0.00     0.119 A 
ATOM      4  N   UNL d   1       0.155   0.887   0.000  0.00  0.00    -0.123 NA
ATOM      5  N   UNL d   1      -0.670   0.850   0.000  0.00  0.00    -0.143 NA
ENDROOT
BRANCH   1   6
ATOM      6  N   UNL d   1       1.235  -0.074   0.000  0.00  0.00    -0.248 N 
ATOM      7  C   UNL d   1       1.793   0.589   0.000  0.00  0.00     0.291 C 
ATOM      8  O   UNL d   1       1.495   1.390   0.000  0.00  0.00    -0.264 OA
ATOM      9  C   UNL d   1       1.495  -0.844   0.000  0.00  0.00     0.104 C 
BRANCH   7  10
ATOM     10  C   UNL d   1       2.606   0.441   0.000  0.00  0.00     0.184 C 
BRANCH  10  11
ATOM     11  O   UNL d   1       3.133   1.092   0.000  0.00  0.00    -0.300 OA
BRANCH  11  12
ATOM     12  C   UNL d   1       3.946   0.912   0.000  0.00  0.00     0.100 A 
ATOM     13  C   UNL d   1       4.244   0.143   0.000  0.00  0.00     0.025 A 
ATOM     14  C   UNL d   1       5.044  -0.006   0.000  0.00  0.00     0.002 A 
ATOM     15  C   UNL d   1       5.609   0.614   0.000  0.00  0.00     0.000 A 
ATOM     16  C   UNL d   1       5.311   1.415   0.000  0.00  0.00     0.002 A 
ATOM     17  C   UNL d   1       4.473   1.563   0.000  0.00  0.00     0.025 A 
ENDBRANCH  11  12
ENDBRANCH  10  11
ENDBRANCH   7  10
ENDBRANCH   1   6
BRANCH   3  18
ATOM     18  C   UNL d   1      -1.712  -0.130   0.000  0.00  0.00     0.081 A 
ATOM     19  C   UNL d   1      -2.227  -0.751   0.000  0.00  0.00    -0.017 A 
ATOM     20  C   UNL d   1      -2.997  -0.602   0.000  0.00  0.00    -0.008 A 
ATOM     21  C   UNL d   1      -3.499  -1.266   0.000  0.00  0.00    -0.001 A 
ATOM     22  C   UNL d   1      -3.121   0.199   0.000  0.00  0.00    -0.022 A 
ATOM     23  C   UNL d   1      -3.176  -0.521   0.000  0.00  0.00    -0.008 A 
ATOM     24  C   UNL d   1      -2.401  -0.546   0.000  0.00  0.00    -0.017 A 
ATOM     25  C   UNL d   1      -3.350   0.441   0.000  0.00  0.00    -0.022 A 
ATOM     26  C   UNL d   1      -2.674   0.912   0.000  0.00  0.00     0.045 A 
ATOM     27  C   UNL d   1      -1.892   0.670   0.000  0.00  0.00     0.023 A 
ENDBRANCH   3  18
TORSDOF 5
