REMARK  3 active torsions:
REMARK  status: ('A' for Active; 'I' for Inactive)
REMARK    1  A    between atoms: C_4  and  C_1 
REMARK    2  A    between atoms: C_13  and  N_2 
REMARK    3  A    between atoms: C_10  and  C_13 
ROOT
ATOM      1  C   UNL d   1       2.942   3.374   0.000  0.00  0.00     0.171 A 
ATOM      2  N   UNL d   1       2.404   2.647   0.000  0.00  0.00    -0.286 N 
ATOM      3  N   UNL d   1       2.404   4.101   0.000  0.00  0.00    -0.225 NA
ATOM      4  C   UNL d   1       1.548   2.920   0.000  0.00  0.00     0.083 A 
ATOM      5  C   UNL d   1       1.548   3.836   0.000  0.00  0.00     0.099 A 
ATOM      6  C   UNL d   1       0.768   2.457   0.000  0.00  0.00     0.019 A 
ATOM      7  C   UNL d   1       0.768   4.273   0.000  0.00  0.00     0.021 A 
ATOM      8  C   UNL d   1       0.000   2.920   0.000  0.00  0.00     0.002 A 
ATOM      9  C   UNL d   1       0.000   3.836   0.000  0.00  0.00     0.002 A 
ENDROOT
BRANCH   2  10
ATOM     10  C   UNL d   1       2.003   1.990   0.000  0.00  0.00     0.106 C 
BRANCH  10  11
ATOM     11  C   UNL d   1       2.404   1.286   0.000  0.00  0.00     0.118 A 
ATOM     12  O   UNL d   1       3.185   1.187   0.000  0.00  0.00    -0.299 OA
ATOM     13  C   UNL d   1       3.374   0.402   0.000  0.00  0.00     0.134 A 
ATOM     14 BR   UNL d   1       4.071   0.000   0.000  0.00  0.00    -0.022 Br
ATOM     15  C   UNL d   1       2.677   0.000   0.000  0.00  0.00     0.034 A 
ATOM     16  C   UNL d   1       2.061   0.535   0.000  0.00  0.00     0.029 A 
ENDBRANCH  10  11
ENDBRANCH   2  10
BRANCH   1  17
ATOM     17  C   UNL d   1       3.836   3.374   0.000  0.00  0.00     0.135 A 
ATOM     18  O   UNL d   1       4.291   4.048   0.000  0.00  0.00    -0.297 OA
ATOM     19  C   UNL d   1       5.064   3.788   0.000  0.00  0.00     0.134 A 
ATOM     20 BR   UNL d   1       5.849   3.993   0.000  0.00  0.00    -0.022 Br
ATOM     21  C   UNL d   1       5.064   2.973   0.000  0.00  0.00     0.034 A 
ATOM     22  C   UNL d   1       4.291   2.730   0.000  0.00  0.00     0.030 A 
ENDBRANCH   1  17
TORSDOF 3
