REMARK  4 active torsions:
REMARK  status: ('A' for Active; 'I' for Inactive)
REMARK    1  A    between atoms: C_6  and  C_1 
REMARK    2  A    between atoms: C_7  and  C_4 
REMARK    3  A    between atoms: O_10  and  C_6 
REMARK    4  A    between atoms: C_13  and  O_10 
ROOT
ATOM      1  C   UNL d   1      -1.206   1.644   0.000  0.00  0.00     0.112 A 
ATOM      2  S   UNL d   1      -1.827   1.081   0.000  0.00  0.00    -0.080 SA
ATOM      3  C   UNL d   1      -1.552   2.393   0.000  0.00  0.00     0.115 A 
ATOM      4  C   UNL d   1      -2.542   1.503   0.000  0.00  0.00     0.031 A 
ATOM      5  C   UNL d   1      -2.359   2.302   0.000  0.00  0.00     0.028 A 
ATOM      6  N   UNL d   1      -1.138   3.124   0.000  0.00  0.00    -0.147 N 
ENDROOT
BRANCH   4   7
ATOM      7  C   UNL d   1      -3.253   1.081   0.000  0.00  0.00     0.006 A 
ATOM      8  C   UNL d   1      -3.969   1.503   0.000  0.00  0.00     0.001 A 
ATOM      9  C   UNL d   1      -4.677   1.081   0.000  0.00  0.00     0.000 A 
ATOM     10  C   UNL d   1      -4.677   0.259   0.000  0.00  0.00     0.000 A 
ATOM     11  C   UNL d   1      -3.969  -0.152   0.000  0.00  0.00     0.000 A 
ATOM     12  C   UNL d   1      -3.253   0.259   0.000  0.00  0.00     0.001 A 
ENDBRANCH   4   7
BRANCH   1  13
ATOM     13  C   UNL d   1      -0.384   1.480   0.000  0.00  0.00     0.308 C 
ATOM     14  O   UNL d   1      -0.091   0.696   0.000  0.00  0.00    -0.258 OA
BRANCH  13  15
ATOM     15  O   UNL d   1       0.152   2.119   0.000  0.00  0.00    -0.271 OA
BRANCH  15  16
ATOM     16  C   UNL d   1      -0.133   2.907   0.000  0.00  0.00     0.126 C 
ATOM     17  C   UNL d   1       0.411   3.527   0.000  0.00  0.00     0.029 C 
ENDBRANCH  15  16
ENDBRANCH  13  15
ENDBRANCH   1  13
TORSDOF 4
