REMARK  5 active torsions:
REMARK  status: ('A' for Active; 'I' for Inactive)
REMARK    1  A    between atoms: C_6  and  C_1 
REMARK    2  A    between atoms: C_8  and  N_3 
REMARK    3  A    between atoms: C_7  and  C_6 
REMARK    4  A    between atoms: C_9  and  C_7 
REMARK    5  A    between atoms: C_14  and  C_8 
ROOT
ATOM      1  C   UNL d   1       3.002   2.840   0.000  0.00  0.00     0.148 A 
ATOM      2  N   UNL d   1       2.454   3.572   0.000  0.00  0.00    -0.227 NA
ATOM      3  N   UNL d   1       2.454   2.110   0.000  0.00  0.00    -0.289 N 
ATOM      4  C   UNL d   1       1.575   2.382   0.000  0.00  0.00     0.083 A 
ATOM      5  C   UNL d   1       1.575   3.303   0.000  0.00  0.00     0.099 A 
ATOM      6  C   UNL d   1       0.781   1.920   0.000  0.00  0.00     0.019 A 
ATOM      7  C   UNL d   1       0.781   3.742   0.000  0.00  0.00     0.021 A 
ATOM      8  C   UNL d   1       0.000   2.382   0.000  0.00  0.00     0.002 A 
ATOM      9  C   UNL d   1       0.000   3.303   0.000  0.00  0.00     0.002 A 
ENDROOT
BRANCH   1  10
ATOM     10  C   UNL d   1       3.688   2.467   0.000  0.00  0.00     0.037 C 
BRANCH  10  11
ATOM     11  C   UNL d   1       4.410   2.840   0.000  0.00  0.00     0.003 C 
BRANCH  11  12
ATOM     12  C   UNL d   1       5.120   2.442   0.000  0.00  0.00     0.000 A 
ATOM     13  C   UNL d   1       5.829   2.840   0.000  0.00  0.00     0.000 A 
ATOM     14  C   UNL d   1       6.538   2.442   0.000  0.00  0.00     0.000 A 
ATOM     15  C   UNL d   1       6.538   1.617   0.000  0.00  0.00     0.000 A 
ATOM     16  C   UNL d   1       5.829   1.208   0.000  0.00  0.00     0.000 A 
ATOM     17  C   UNL d   1       5.120   1.617   0.000  0.00  0.00     0.000 A 
ENDBRANCH  11  12
ENDBRANCH  10  11
ENDBRANCH   1  10
BRANCH   3  18
ATOM     18  C   UNL d   1       2.038   1.426   0.000  0.00  0.00     0.082 C 
BRANCH  18  19
ATOM     19  C   UNL d   1       2.454   0.709   0.000  0.00  0.00     0.019 C 
ATOM     20  C   UNL d   1       2.038   0.000   0.000  0.00  0.00     0.002 C 
ENDBRANCH  18  19
ENDBRANCH   3  18
TORSDOF 5
