REMARK  7 active torsions:
REMARK  status: ('A' for Active; 'I' for Inactive)
REMARK    1  A    between atoms: N_6  and  C_1 
REMARK    2  A    between atoms: S_9  and  C_3 
REMARK       I    between atoms: C_7  and  N_6 
REMARK    3  A    between atoms: C_14  and  C_7 
REMARK    4  A    between atoms: C_8  and  C_13 
REMARK       I    between atoms: N_10  and  C_8 
REMARK    5  A    between atoms: C_13  and  S_9 
REMARK    6  A    between atoms: C_15  and  N_10 
REMARK    7  A    between atoms: C_22  and  C_14 
ROOT
ATOM      1  C   UNL d   1      -1.156   0.955   0.000  0.00  0.00     0.219 A 
ATOM      2  S   UNL d   1      -1.826   0.486   0.000  0.00  0.00    -0.019 SA
ATOM      3  C   UNL d   1      -2.457   0.955   0.000  0.00  0.00     0.165 A 
ATOM      4  N   UNL d   1      -1.424   1.742   0.000  0.00  0.00    -0.120 NA
ATOM      5  N   UNL d   1      -2.206   1.742   0.000  0.00  0.00    -0.133 NA
ENDROOT
BRANCH   3   6
ATOM      6  S   UNL d   1      -3.233   0.620   0.000  0.00  0.00    -0.054 SA
BRANCH   6   7
ATOM      7  C   UNL d   1      -3.328  -0.201   0.000  0.00  0.00     0.100 C 
BRANCH   7   8
ATOM      8  C   UNL d   1      -4.082  -0.536   0.000  0.00  0.00     0.286 C 
ATOM      9  N   UNL d   1      -4.736  -0.067   0.000  0.00  0.00    -0.208 NA
ATOM     10  O   UNL d   1      -4.171  -1.379   0.000  0.00  0.00    -0.265 OA
BRANCH   9  11
ATOM     11  C   UNL d   1      -4.641   0.782   0.000  0.00  0.00     0.085 A 
ATOM     12  C   UNL d   1      -5.322   1.234   0.000  0.00  0.00     0.021 A 
ATOM     13  C   UNL d   1      -5.244   2.055   0.000  0.00  0.00     0.031 A 
ATOM     14  C   UNL d   1      -4.518   2.413   0.000  0.00  0.00     0.140 A 
ATOM     15  C   UNL d   1      -3.820   1.943   0.000  0.00  0.00     0.031 A 
ATOM     16  F   UNL d   1      -4.451   3.166   0.000  0.00  0.00    -0.204 F 
ATOM     17  C   UNL d   1      -3.887   1.117   0.000  0.00  0.00     0.021 A 
ENDBRANCH   9  11
ENDBRANCH   7   8
ENDBRANCH   6   7
ENDBRANCH   3   6
BRANCH   1  18
ATOM     18  N   UNL d   1      -0.352   0.732   0.000  0.00  0.00    -0.181 NA
ATOM     19  C   UNL d   1       0.452   1.000   0.000  0.00  0.00     0.281 C 
ATOM     20  O   UNL d   1       0.603   1.809   0.000  0.00  0.00    -0.265 OA
BRANCH  19  21
ATOM     21  C   UNL d   1       1.145   0.553   0.000  0.00  0.00     0.063 C 
BRANCH  21  22
ATOM     22  C   UNL d   1       1.927   1.000   0.000  0.00  0.00     0.005 C 
ATOM     23  C   UNL d   1       2.619   0.530   0.000  0.00  0.00     0.000 C 
ATOM     24  C   UNL d   1       2.050   1.675   0.000  0.00  0.00     0.000 C 
ENDBRANCH  21  22
ENDBRANCH  19  21
ENDBRANCH   1  18
TORSDOF 7
