REMARK  6 active torsions:
REMARK  status: ('A' for Active; 'I' for Inactive)
REMARK    1  A    between atoms: N_3  and  C_1 
REMARK       I    between atoms: C_7  and  N_3 
REMARK    2  A    between atoms: S_14  and  C_4 
REMARK    3  A    between atoms: C_8  and  C_7 
REMARK    4  A    between atoms: C_11  and  N_13 
REMARK    5  A    between atoms: C_12  and  C_21 
REMARK       I    between atoms: N_13  and  C_12 
REMARK    6  A    between atoms: C_21  and  S_14 
ROOT
ATOM      1  S   UNL d   1      -2.879   0.238   0.000  0.00  0.00    -0.054 SA
ENDROOT
BRANCH   1   2
ATOM      2  C   UNL d   1      -2.147   0.602   0.000  0.00  0.00     0.165 A 
ATOM      3  S   UNL d   1      -1.491   0.157   0.000  0.00  0.00    -0.019 SA
ATOM      4  C   UNL d   1      -0.797   0.602   0.000  0.00  0.00     0.219 A 
ATOM      5  N   UNL d   1      -1.106   1.361   0.000  0.00  0.00    -0.120 NA
ATOM      6  N   UNL d   1      -1.914   1.345   0.000  0.00  0.00    -0.133 NA
BRANCH   4   7
ATOM      7  N   UNL d   1      -0.130   0.450   0.000  0.00  0.00    -0.181 NA
ATOM      8  C   UNL d   1       0.689   0.694   0.000  0.00  0.00     0.281 C 
ATOM      9  O   UNL d   1       0.819   1.513   0.000  0.00  0.00    -0.265 OA
BRANCH   8  10
ATOM     10  C   UNL d   1       1.307   0.173   0.000  0.00  0.00     0.058 A 
ATOM     11  C   UNL d   1       2.131   0.065   0.000  0.00  0.00     0.005 A 
ATOM     12  C   UNL d   1       1.518  -0.569   0.000  0.00  0.00     0.005 A 
ENDBRANCH   8  10
ENDBRANCH   4   7
ENDBRANCH   1   2
BRANCH   1  13
ATOM     13  C   UNL d   1      -2.988  -0.586   0.000  0.00  0.00     0.100 C 
BRANCH  13  14
ATOM     14  C   UNL d   1      -3.736  -0.949   0.000  0.00  0.00     0.286 C 
ATOM     15  N   UNL d   1      -4.419  -0.504   0.000  0.00  0.00    -0.208 NA
ATOM     16  O   UNL d   1      -3.833  -1.778   0.000  0.00  0.00    -0.265 OA
BRANCH  15  17
ATOM     17  C   UNL d   1      -4.338   0.342   0.000  0.00  0.00     0.085 A 
ATOM     18  C   UNL d   1      -5.037   0.743   0.000  0.00  0.00     0.019 A 
ATOM     19  C   UNL d   1      -5.005   1.524   0.000  0.00  0.00     0.002 A 
ATOM     20  C   UNL d   1      -5.623   2.012   0.000  0.00  0.00     0.000 C 
ATOM     21  C   UNL d   1      -4.273   1.946   0.000  0.00  0.00     0.000 A 
ATOM     22  C   UNL d   1      -3.541   1.491   0.000  0.00  0.00     0.002 A 
ATOM     23  C   UNL d   1      -3.579   0.667   0.000  0.00  0.00     0.019 A 
ATOM     24  C   UNL d   1      -2.863   1.903   0.000  0.00  0.00     0.000 C 
ENDBRANCH  15  17
ENDBRANCH  13  14
ENDBRANCH   1  13
TORSDOF 6
