REMARK  3 active torsions:
REMARK  status: ('A' for Active; 'I' for Inactive)
REMARK    1  A    between atoms: S_4  and  C_1 
REMARK    2  A    between atoms: N_3  and  C_2 
REMARK    3  A    between atoms: C_5  and  S_4 
ROOT
ATOM      1  C   UNL d   1       1.188   0.813   0.000  0.00  0.00     0.139 A 
ATOM      2  C   UNL d   1       1.898   0.392   0.000  0.00  0.00     0.188 A 
ATOM      3  N   UNL d   1       0.474   0.367   0.000  0.00  0.00    -0.216 NA
ATOM      4  C   UNL d   1       1.947  -0.396   0.000  0.00  0.00     0.209 A 
ATOM      5  N   UNL d   1       1.242  -0.879   0.000  0.00  0.00    -0.202 NA
ATOM      6  C   UNL d   1       0.499  -0.462   0.000  0.00  0.00     0.201 A 
ATOM      7  N   UNL d   1       2.640  -0.879   0.000  0.00  0.00    -0.125 N 
ENDROOT
BRANCH   1   8
ATOM      8  S   UNL d   1       1.139   1.584   0.000  0.00  0.00    -0.047 SA
BRANCH   8   9
ATOM      9  C   UNL d   1       0.227   1.832   0.000  0.00  0.00     0.115 A 
ATOM     10  N   UNL d   1      -0.318   1.188   0.000  0.00  0.00    -0.217 NA
ATOM     11  C   UNL d   1      -1.139   1.357   0.000  0.00  0.00     0.200 A 
ATOM     12  N   UNL d   1      -1.407   2.129   0.000  0.00  0.00    -0.224 NA
ATOM     13  C   UNL d   1      -0.854   2.772   0.000  0.00  0.00     0.085 A 
ATOM     14  C   UNL d   1      -0.050   2.620   0.000  0.00  0.00     0.045 A 
ATOM     15  C   UNL d   1      -1.101   3.424   0.000  0.00  0.00     0.021 C 
ENDBRANCH   8   9
ENDBRANCH   1   8
BRANCH   2  16
ATOM     16  N   UNL d   1       2.611   0.842   0.000  0.00  0.00    -0.108 N 
ATOM     17  O   UNL d   1       3.370   0.528   0.000  0.00  0.00    -0.532 OA
ATOM     18  O   UNL d   1       2.611   1.679   0.000  0.00  0.00    -0.532 OA
ENDBRANCH   2  16
TORSDOF 3
