REMARK  2 active torsions:
REMARK  status: ('A' for Active; 'I' for Inactive)
REMARK    1  A    between atoms: C_5  and  C_1 
REMARK       I    between atoms: N_7  and  C_5 
REMARK    2  A    between atoms: C_9  and  N_7 
ROOT
ATOM      1  C   UNL d   1       2.598  -0.383   0.000  0.00  0.00     0.161 A 
ATOM      2  C   UNL d   1       2.215   0.320   0.000  0.00  0.00     0.072 A 
ATOM      3  O   UNL d   1       3.458  -0.410   0.000  0.00  0.00    -0.302 OA
ATOM      4  C   UNL d   1       2.625   1.027   0.000  0.00  0.00     0.200 A 
ATOM      5  C   UNL d   1       3.458   1.027   0.000  0.00  0.00     0.062 A 
ATOM      6  C   UNL d   1       3.854   0.320   0.000  0.00  0.00     0.103 A 
ATOM      7  O   UNL d   1       2.193   1.743   0.000  0.00  0.00    -0.286 OA
ATOM      8  C   UNL d   1       3.890   1.743   0.000  0.00  0.00     0.005 A 
ATOM      9  C   UNL d   1       4.701   0.320   0.000  0.00  0.00     0.025 A 
ATOM     10  C   UNL d   1       4.719   1.724   0.000  0.00  0.00     0.000 A 
ATOM     11  C   UNL d   1       5.111   1.027   0.000  0.00  0.00     0.002 A 
ENDROOT
BRANCH   1  12
ATOM     12  C   UNL d   1       2.125  -1.099   0.000  0.00  0.00     0.302 C 
ATOM     13  N   UNL d   1       1.301  -1.058   0.000  0.00  0.00    -0.206 NA
ATOM     14  O   UNL d   1       2.517  -1.837   0.000  0.00  0.00    -0.263 OA
BRANCH  13  15
ATOM     15  C   UNL d   1       0.937  -0.324   0.000  0.00  0.00     0.085 A 
ATOM     16  C   UNL d   1       0.113  -0.275   0.000  0.00  0.00     0.018 A 
ATOM     17  C   UNL d   1      -0.266   0.446   0.000  0.00  0.00     0.002 A 
ATOM     18  C   UNL d   1      -0.347  -0.991   0.000  0.00  0.00     0.002 C 
ATOM     19  C   UNL d   1       0.180   1.135   0.000  0.00  0.00     0.000 A 
ATOM     20  C   UNL d   1       1.004   1.094   0.000  0.00  0.00     0.002 A 
ATOM     21  C   UNL d   1      -0.198   1.891   0.000  0.00  0.00     0.000 C 
ATOM     22  C   UNL d   1       1.369   0.360   0.000  0.00  0.00     0.019 A 
ENDBRANCH  13  15
ENDBRANCH   1  12
TORSDOF 2
