REMARK  5 active torsions:
REMARK  status: ('A' for Active; 'I' for Inactive)
REMARK    1  A    between atoms: N_4  and  C_1 
REMARK       I    between atoms: C_3  and  N_4 
REMARK    2  A    between atoms: C_8  and  C_3 
REMARK    3  A    between atoms: S_9  and  C_5 
REMARK    4  A    between atoms: C_12  and  S_9 
REMARK    5  A    between atoms: C_15  and  C_12 
ROOT
ATOM      1  C   UNL d   1       0.483  -0.092   0.000  0.00  0.00     0.219 A 
ATOM      2  S   UNL d   1      -0.207  -0.604   0.000  0.00  0.00    -0.019 SA
ATOM      3  C   UNL d   1      -0.897  -0.075   0.000  0.00  0.00     0.165 A 
ATOM      4  N   UNL d   1       0.213   0.569   0.000  0.00  0.00    -0.120 NA
ATOM      5  N   UNL d   1      -0.649   0.569   0.000  0.00  0.00    -0.133 NA
ENDROOT
BRANCH   1   6
ATOM      6  N   UNL d   1       1.362  -0.368   0.000  0.00  0.00    -0.181 NA
ATOM      7  C   UNL d   1       2.000   0.201   0.000  0.00  0.00     0.282 C 
ATOM      8  O   UNL d   1       1.833   0.874   0.000  0.00  0.00    -0.265 OA
BRANCH   7   9
ATOM      9  C   UNL d   1       2.811   0.086   0.000  0.00  0.00     0.069 A 
ATOM     10  C   UNL d   1       3.104  -0.672   0.000  0.00  0.00     0.062 A 
ATOM     11 CL   UNL d   1       2.552  -1.379   0.000  0.00  0.00    -0.082 Cl
ATOM     12  C   UNL d   1       3.914  -0.799   0.000  0.00  0.00     0.012 A 
ATOM     13  C   UNL d   1       4.437  -0.161   0.000  0.00  0.00     0.001 A 
ATOM     14  C   UNL d   1       4.138   0.615   0.000  0.00  0.00     0.000 A 
ATOM     15  C   UNL d   1       3.316   0.736   0.000  0.00  0.00     0.006 A 
ENDBRANCH   7   9
ENDBRANCH   1   6
BRANCH   3  16
ATOM     16  S   UNL d   1      -1.793  -0.213   0.000  0.00  0.00    -0.059 SA
BRANCH  16  17
ATOM     17  C   UNL d   1      -2.167   0.431   0.000  0.00  0.00     0.037 C 
BRANCH  17  18
ATOM     18  C   UNL d   1      -2.983   0.431   0.000  0.00  0.00     0.007 A 
ATOM     19  C   UNL d   1      -3.408   1.132   0.000  0.00  0.00     0.001 A 
ATOM     20  C   UNL d   1      -4.236   1.132   0.000  0.00  0.00     0.007 A 
ATOM     21  C   UNL d   1      -4.638   0.408   0.000  0.00  0.00     0.035 A 
ATOM     22  C   UNL d   1      -4.207  -0.316   0.000  0.00  0.00     0.007 A 
ATOM     23 BR   UNL d   1      -5.546   0.373   0.000  0.00  0.00    -0.049 Br
ATOM     24  C   UNL d   1      -3.374  -0.276   0.000  0.00  0.00     0.001 A 
ENDBRANCH  17  18
ENDBRANCH  16  17
ENDBRANCH   3  16
TORSDOF 5
