REMARK  5 active torsions:
REMARK  status: ('A' for Active; 'I' for Inactive)
REMARK    1  A    between atoms: C_7  and  N_1 
REMARK    2  A    between atoms: C_6  and  C_2 
REMARK    3  A    between atoms: C_8  and  C_6 
REMARK    4  A    between atoms: C_12  and  C_7 
REMARK    5  A    between atoms: C_9  and  C_8 
ROOT
ATOM      1  N   UNL d   1       2.460   2.103   0.000  0.00  0.00    -0.289 N 
ATOM      2  C   UNL d   1       3.000   2.831   0.000  0.00  0.00     0.148 A 
ATOM      3  N   UNL d   1       2.460   3.569   0.000  0.00  0.00    -0.227 NA
ATOM      4  C   UNL d   1       1.571   2.380   0.000  0.00  0.00     0.083 A 
ATOM      5  C   UNL d   1       1.571   3.300   0.000  0.00  0.00     0.099 A 
ATOM      6  C   UNL d   1       0.779   1.919   0.000  0.00  0.00     0.019 A 
ATOM      7  C   UNL d   1       0.779   3.738   0.000  0.00  0.00     0.021 A 
ATOM      8  C   UNL d   1       0.000   2.380   0.000  0.00  0.00     0.002 A 
ATOM      9  C   UNL d   1       0.000   3.300   0.000  0.00  0.00     0.002 A 
ENDROOT
BRANCH   2  10
ATOM     10  C   UNL d   1       3.689   2.460   0.000  0.00  0.00     0.037 C 
BRANCH  10  11
ATOM     11  C   UNL d   1       4.396   2.831   0.000  0.00  0.00     0.003 C 
BRANCH  11  12
ATOM     12  C   UNL d   1       5.106   2.437   0.000  0.00  0.00     0.000 A 
ATOM     13  C   UNL d   1       5.106   1.611   0.000  0.00  0.00     0.000 A 
ATOM     14  C   UNL d   1       5.821   1.207   0.000  0.00  0.00     0.000 A 
ATOM     15  C   UNL d   1       6.528   1.611   0.000  0.00  0.00     0.000 A 
ATOM     16  C   UNL d   1       6.528   2.437   0.000  0.00  0.00     0.000 A 
ATOM     17  C   UNL d   1       5.821   2.831   0.000  0.00  0.00     0.000 A 
ENDBRANCH  11  12
ENDBRANCH  10  11
ENDBRANCH   2  10
BRANCH   1  18
ATOM     18  C   UNL d   1       2.039   1.422   0.000  0.00  0.00     0.082 C 
BRANCH  18  19
ATOM     19  C   UNL d   1       2.460   0.707   0.000  0.00  0.00     0.018 C 
ATOM     20  C   UNL d   1       2.039   0.000   0.000  0.00  0.00     0.002 C 
ATOM     21  C   UNL d   1       3.167   0.305   0.000  0.00  0.00     0.002 C 
ENDBRANCH  18  19
ENDBRANCH   1  18
TORSDOF 5
