REMARK  3 active torsions:
REMARK  status: ('A' for Active; 'I' for Inactive)
REMARK    1  A    between atoms: C_12  and  C_5 
REMARK    2  A    between atoms: C_14  and  C_12 
REMARK    3  A    between atoms: C_15  and  C_14 
ROOT
ATOM      1  C   UNL d   1      -0.436  -0.708   0.000  0.00  0.00     0.206 A 
ATOM      2  C   UNL d   1      -0.436   0.117   0.000  0.00  0.00     0.063 A 
ATOM      3  C   UNL d   1       0.983   0.117   0.000  0.00  0.00     0.111 A 
ATOM      4  C   UNL d   1       0.983  -0.704   0.000  0.00  0.00     0.214 A 
ATOM      5  C   UNL d   1       0.268   0.528   0.000  0.00  0.00     0.018 A 
ATOM      6  O   UNL d   1       0.268  -1.115   0.000  0.00  0.00    -0.268 OA
ATOM      7  N   UNL d   1      -1.188  -0.968   0.000  0.00  0.00    -0.123 NA
ATOM      8  N   UNL d   1      -1.683  -0.334   0.000  0.00  0.00    -0.146 NA
ATOM      9  C   UNL d   1      -1.228   0.348   0.000  0.00  0.00     0.106 A 
ATOM     10  C   UNL d   1       1.698   0.528   0.000  0.00  0.00     0.105 C 
ATOM     11  N   UNL d   1       2.402   0.935   0.000  0.00  0.00    -0.191 NA
ATOM     12  N   UNL d   1       1.672  -1.100   0.000  0.00  0.00    -0.120 N 
ATOM     13  C   UNL d   1      -1.646   1.162   0.000  0.00  0.00     0.023 C 
ENDROOT
BRANCH   5  14
ATOM     14  C   UNL d   1       0.268   1.338   0.000  0.00  0.00     0.001 C 
BRANCH  14  15
ATOM     15  C   UNL d   1      -0.440   1.943   0.000  0.00  0.00     0.000 C 
BRANCH  15  16
ATOM     16  C   UNL d   1      -0.396   2.768   0.000  0.00  0.00     0.000 A 
ATOM     17  C   UNL d   1      -1.096   3.230   0.000  0.00  0.00     0.000 A 
ATOM     18  C   UNL d   1      -1.041   4.041   0.000  0.00  0.00     0.000 A 
ATOM     19  C   UNL d   1      -0.293   4.415   0.000  0.00  0.00     0.000 A 
ATOM     20  C   UNL d   1       0.396   3.960   0.000  0.00  0.00     0.000 A 
ATOM     21  C   UNL d   1       0.334   3.135   0.000  0.00  0.00     0.000 A 
ENDBRANCH  15  16
ENDBRANCH  14  15
ENDBRANCH   5  14
TORSDOF 3
