REMARK  9 active torsions:
REMARK  status: ('A' for Active; 'I' for Inactive)
REMARK    1  A    between atoms: S_10  and  C_2 
REMARK    2  A    between atoms: C_7  and  C_5 
REMARK    3  A    between atoms: C_9  and  C_6 
REMARK    4  A    between atoms: O_19  and  C_9 
REMARK    5  A    between atoms: C_17  and  S_10 
REMARK    6  A    between atoms: C_13  and  C_17 
REMARK    7  A    between atoms: O_20  and  C_14 
REMARK    8  A    between atoms: C_23  and  O_19 
REMARK    9  A    between atoms: C_24  and  O_20 
ROOT
ATOM      1  C   UNL d   1       3.033  -1.364   0.000  0.00  0.00     0.092 A 
ATOM      2  C   UNL d   1       3.033  -2.201   0.000  0.00  0.00     0.124 A 
ATOM      3  C   UNL d   1       1.611  -2.201   0.000  0.00  0.00     0.285 A 
ATOM      4  N   UNL d   1       2.324  -2.609   0.000  0.00  0.00    -0.201 NA
ATOM      5  C   UNL d   1       2.324  -0.956   0.000  0.00  0.00     0.023 A 
ATOM      6  C   UNL d   1       1.611  -1.364   0.000  0.00  0.00     0.122 A 
ATOM      7  C   UNL d   1       3.738  -0.956   0.000  0.00  0.00     0.103 C 
ATOM      8  N   UNL d   1       4.442  -0.556   0.000  0.00  0.00    -0.191 NA
ATOM      9  O   UNL d   1       0.808  -2.600   0.000  0.00  0.00    -0.265 OA
ENDROOT
BRANCH   2  10
ATOM     10  S   UNL d   1       3.812  -2.576   0.000  0.00  0.00    -0.062 SA
BRANCH  10  11
ATOM     11  C   UNL d   1       4.599  -2.201   0.000  0.00  0.00     0.101 C 
BRANCH  11  12
ATOM     12  C   UNL d   1       5.308  -2.699   0.000  0.00  0.00     0.303 C 
ATOM     13  O   UNL d   1       5.291  -3.227   0.000  0.00  0.00    -0.263 OA
ATOM     14  N   UNL d   1       6.070  -2.242   0.000  0.00  0.00    -0.102 N 
ENDBRANCH  11  12
ENDBRANCH  10  11
ENDBRANCH   2  10
BRANCH   5  15
ATOM     15  C   UNL d   1       2.324  -0.140   0.000  0.00  0.00     0.024 A 
ATOM     16  C   UNL d   1       1.611   0.268   0.000  0.00  0.00     0.100 A 
ATOM     17  C   UNL d   1       1.611   1.096   0.000  0.00  0.00     0.025 A 
ATOM     18  C   UNL d   1       2.324   1.508   0.000  0.00  0.00     0.002 A 
ATOM     19  C   UNL d   1       3.033   1.096   0.000  0.00  0.00     0.000 A 
ATOM     20  C   UNL d   1       3.033   0.268   0.000  0.00  0.00     0.002 A 
BRANCH  16  21
ATOM     21  O   UNL d   1       0.969  -0.004   0.000  0.00  0.00    -0.305 OA
BRANCH  21  22
ATOM     22  C   UNL d   1       0.400   0.717   0.000  0.00  0.00     0.123 C 
ATOM     23  C   UNL d   1      -0.639   0.420   0.000  0.00  0.00     0.029 C 
ENDBRANCH  21  22
ENDBRANCH  16  21
ENDBRANCH   5  15
BRANCH   6  24
ATOM     24  C   UNL d   1       0.894  -0.956   0.000  0.00  0.00     0.305 C 
ATOM     25  O   UNL d   1       0.890  -0.556   0.000  0.00  0.00    -0.259 OA
BRANCH  24  26
ATOM     26  O   UNL d   1       0.140  -1.327   0.000  0.00  0.00    -0.271 OA
BRANCH  26  27
ATOM     27  C   UNL d   1      -0.618  -0.882   0.000  0.00  0.00     0.126 C 
ATOM     28  C   UNL d   1      -1.146  -1.574   0.000  0.00  0.00     0.029 C 
ENDBRANCH  26  27
ENDBRANCH  24  26
ENDBRANCH   6  24
TORSDOF 9
