REMARK  8 active torsions:
REMARK  status: ('A' for Active; 'I' for Inactive)
REMARK    1  A    between atoms: S_10  and  C_2 
REMARK    2  A    between atoms: C_7  and  C_4 
REMARK    3  A    between atoms: C_17  and  S_10 
REMARK    4  A    between atoms: C_14  and  C_17 
REMARK    5  A    between atoms: O_18  and  C_14 
REMARK    6  A    between atoms: O_19  and  C_15 
REMARK    7  A    between atoms: C_22  and  O_18 
REMARK    8  A    between atoms: C_23  and  O_19 
ROOT
ATOM      1  C   UNL d   1      -0.792  -1.104   0.000  0.00  0.00     0.093 A 
ATOM      2  C   UNL d   1      -0.792  -1.937   0.000  0.00  0.00     0.124 A 
ATOM      3  N   UNL d   1      -1.508  -2.348   0.000  0.00  0.00    -0.200 NA
ATOM      4  C   UNL d   1      -1.508  -0.693   0.000  0.00  0.00     0.028 A 
ATOM      5  C   UNL d   1      -2.220  -1.104   0.000  0.00  0.00     0.127 A 
ATOM      6  C   UNL d   1      -2.220  -1.937   0.000  0.00  0.00     0.289 A 
ATOM      7  C   UNL d   1      -0.084  -0.693   0.000  0.00  0.00     0.103 C 
ATOM      8  C   UNL d   1      -2.935  -0.693   0.000  0.00  0.00     0.106 C 
ATOM      9  N   UNL d   1       0.620  -0.290   0.000  0.00  0.00    -0.191 NA
ATOM     10  N   UNL d   1      -3.639  -0.290   0.000  0.00  0.00    -0.191 NA
ATOM     11  O   UNL d   1      -3.023  -2.337   0.000  0.00  0.00    -0.264 OA
ENDROOT
BRANCH   2  12
ATOM     12  S   UNL d   1      -0.011  -2.315   0.000  0.00  0.00    -0.061 SA
BRANCH  12  13
ATOM     13  C   UNL d   1       0.774  -1.937   0.000  0.00  0.00     0.105 C 
BRANCH  13  14
ATOM     14  C   UNL d   1       1.486  -2.436   0.000  0.00  0.00     0.307 C 
ATOM     15  O   UNL d   1       1.468  -2.964   0.000  0.00  0.00    -0.258 OA
BRANCH  14  16
ATOM     16  O   UNL d   1       2.249  -1.985   0.000  0.00  0.00    -0.271 OA
BRANCH  16  17
ATOM     17  C   UNL d   1       2.997  -2.491   0.000  0.00  0.00     0.126 C 
ATOM     18  C   UNL d   1       3.731  -1.908   0.000  0.00  0.00     0.029 C 
ENDBRANCH  16  17
ENDBRANCH  14  16
ENDBRANCH  13  14
ENDBRANCH  12  13
ENDBRANCH   2  12
BRANCH   4  19
ATOM     19  C   UNL d   1      -1.508   0.128   0.000  0.00  0.00     0.024 A 
ATOM     20  C   UNL d   1      -2.220   0.539   0.000  0.00  0.00     0.100 A 
ATOM     21  C   UNL d   1      -2.220   1.365   0.000  0.00  0.00     0.025 A 
ATOM     22  C   UNL d   1      -1.508   1.779   0.000  0.00  0.00     0.002 A 
ATOM     23  C   UNL d   1      -0.792   1.365   0.000  0.00  0.00     0.000 A 
ATOM     24  C   UNL d   1      -0.792   0.539   0.000  0.00  0.00     0.002 A 
BRANCH  20  25
ATOM     25  O   UNL d   1      -2.861   0.264   0.000  0.00  0.00    -0.305 OA
BRANCH  25  26
ATOM     26  C   UNL d   1      -3.452   0.811   0.000  0.00  0.00     0.123 C 
ATOM     27  C   UNL d   1      -4.322   0.484   0.000  0.00  0.00     0.029 C 
ENDBRANCH  25  26
ENDBRANCH  20  25
ENDBRANCH   4  19
TORSDOF 8
