REMARK  8 active torsions:
REMARK  status: ('A' for Active; 'I' for Inactive)
REMARK    1  A    between atoms: S_10  and  C_2 
REMARK    2  A    between atoms: C_7  and  C_4 
REMARK    3  A    between atoms: C_17  and  S_10 
REMARK    4  A    between atoms: C_14  and  C_17 
REMARK    5  A    between atoms: O_18  and  C_14 
REMARK    6  A    between atoms: O_19  and  C_15 
REMARK    7  A    between atoms: C_22  and  O_18 
REMARK    8  A    between atoms: C_24  and  C_22 
ROOT
ATOM      1  C   UNL d   1      -0.792  -1.104   0.000  0.00  0.00     0.093 A 
ATOM      2  C   UNL d   1      -0.792  -1.937   0.000  0.00  0.00     0.124 A 
ATOM      3  N   UNL d   1      -1.507  -2.347   0.000  0.00  0.00    -0.200 NA
ATOM      4  C   UNL d   1      -1.507  -0.693   0.000  0.00  0.00     0.028 A 
ATOM      5  C   UNL d   1      -2.219  -1.104   0.000  0.00  0.00     0.127 A 
ATOM      6  C   UNL d   1      -2.219  -1.937   0.000  0.00  0.00     0.289 A 
ATOM      7  C   UNL d   1      -0.084  -0.693   0.000  0.00  0.00     0.103 C 
ATOM      8  C   UNL d   1      -2.934  -0.693   0.000  0.00  0.00     0.106 C 
ATOM      9  N   UNL d   1       0.620  -0.290   0.000  0.00  0.00    -0.191 NA
ATOM     10  N   UNL d   1      -3.638  -0.290   0.000  0.00  0.00    -0.191 NA
ATOM     11  O   UNL d   1      -3.022  -2.336   0.000  0.00  0.00    -0.264 OA
ENDROOT
BRANCH   2  12
ATOM     12  S   UNL d   1      -0.011  -2.314   0.000  0.00  0.00    -0.061 SA
BRANCH  12  13
ATOM     13  C   UNL d   1       0.774  -1.937   0.000  0.00  0.00     0.105 C 
BRANCH  13  14
ATOM     14  C   UNL d   1       1.485  -2.435   0.000  0.00  0.00     0.307 C 
ATOM     15  O   UNL d   1       1.467  -2.963   0.000  0.00  0.00    -0.258 OA
BRANCH  14  16
ATOM     16  O   UNL d   1       2.248  -1.984   0.000  0.00  0.00    -0.271 OA
BRANCH  16  17
ATOM     17  C   UNL d   1       2.997  -2.490   0.000  0.00  0.00     0.126 C 
BRANCH  17  18
ATOM     18  C   UNL d   1       3.730  -1.907   0.000  0.00  0.00     0.027 C 
ATOM     19  C   UNL d   1       4.478  -2.410   0.000  0.00  0.00     0.002 C 
ENDBRANCH  17  18
ENDBRANCH  16  17
ENDBRANCH  14  16
ENDBRANCH  13  14
ENDBRANCH  12  13
ENDBRANCH   2  12
BRANCH   4  20
ATOM     20  C   UNL d   1      -1.507   0.128   0.000  0.00  0.00     0.024 A 
ATOM     21  C   UNL d   1      -2.219   0.539   0.000  0.00  0.00     0.094 A 
ATOM     22  C   UNL d   1      -2.219   1.364   0.000  0.00  0.00     0.024 A 
ATOM     23  C   UNL d   1      -1.507   1.779   0.000  0.00  0.00     0.002 A 
ATOM     24  C   UNL d   1      -0.792   1.364   0.000  0.00  0.00     0.000 A 
ATOM     25  C   UNL d   1      -0.792   0.539   0.000  0.00  0.00     0.002 A 
BRANCH  21  26
ATOM     26  O   UNL d   1      -2.861   0.264   0.000  0.00  0.00    -0.328 OA
ATOM     27  C   UNL d   1      -3.550   0.766   0.000  0.00  0.00     0.181 C 
ENDBRANCH  21  26
ENDBRANCH   4  20
TORSDOF 8
