REMARK  5 active torsions:
REMARK  status: ('A' for Active; 'I' for Inactive)
REMARK    1  A    between atoms: N_7  and  C_1 
REMARK    2  A    between atoms: C_12  and  C_2 
REMARK       I    between atoms: C_8  and  N_7 
REMARK    3  A    between atoms: C_10  and  C_8 
REMARK    4  A    between atoms: N_9  and  C_16 
REMARK    5  A    between atoms: C_16  and  C_10 
ROOT
ATOM      1  C   UNL d   1       5.110  -4.300   0.000  0.00  0.00     0.142 A 
ATOM      2  C   UNL d   1       4.399  -4.723   0.000  0.00  0.00     0.024 A 
ATOM      3  C   UNL d   1       5.110  -3.494   0.000  0.00  0.00     0.297 A 
ATOM      4  C   UNL d   1       3.689  -4.304   0.000  0.00  0.00     0.020 A 
ATOM      5  N   UNL d   1       4.399  -3.070   0.000  0.00  0.00    -0.207 NA
ATOM      6  C   UNL d   1       3.689  -3.481   0.000  0.00  0.00     0.085 A 
ATOM      7  C   UNL d   1       2.978  -4.723   0.000  0.00  0.00     0.008 A 
ATOM      8  O   UNL d   1       5.832  -3.082   0.000  0.00  0.00    -0.264 OA
ATOM      9  C   UNL d   1       2.978  -3.070   0.000  0.00  0.00     0.020 A 
ATOM     10  C   UNL d   1       2.260  -4.300   0.000  0.00  0.00     0.035 A 
ATOM     11  C   UNL d   1       2.260  -3.494   0.000  0.00  0.00     0.008 A 
ATOM     12 BR   UNL d   1       1.537  -4.702   0.000  0.00  0.00    -0.049 Br
ENDROOT
BRANCH   1  13
ATOM     13  N   UNL d   1       5.832  -4.702   0.000  0.00  0.00    -0.203 NA
ATOM     14  C   UNL d   1       5.862  -5.525   0.000  0.00  0.00     0.281 C 
ATOM     15  O   UNL d   1       5.558  -6.372   0.000  0.00  0.00    -0.265 OA
BRANCH  14  16
ATOM     16  C   UNL d   1       6.580  -5.924   0.000  0.00  0.00     0.082 C 
BRANCH  16  17
ATOM     17  C   UNL d   1       6.618  -6.742   0.000  0.00  0.00     0.085 C 
BRANCH  17  18
ATOM     18  N   UNL d   1       7.332  -7.145   0.000  0.00  0.00    -0.299 N 
ATOM     19  C   UNL d   1       7.370  -7.968   0.000  0.00  0.00     0.107 A 
ATOM     20  C   UNL d   1       8.088  -8.354   0.000  0.00  0.00     0.142 A 
ATOM     21  O   UNL d   1       8.799  -7.914   0.000  0.00  0.00    -0.300 OA
ATOM     22  C   UNL d   1       8.765  -7.116   0.000  0.00  0.00     0.142 A 
ATOM     23  C   UNL d   1       8.043  -6.705   0.000  0.00  0.00     0.107 A 
ENDBRANCH  17  18
ENDBRANCH  16  17
ENDBRANCH  14  16
ENDBRANCH   1  13
BRANCH   2  24
ATOM     24  C   UNL d   1       4.399  -5.537   0.000  0.00  0.00     0.002 A 
ATOM     25  C   UNL d   1       3.689  -5.957   0.000  0.00  0.00     0.000 A 
ATOM     26  C   UNL d   1       3.689  -6.784   0.000  0.00  0.00     0.000 A 
ATOM     27  C   UNL d   1       4.399  -7.183   0.000  0.00  0.00     0.000 A 
ATOM     28  C   UNL d   1       5.110  -6.792   0.000  0.00  0.00     0.000 A 
ATOM     29  C   UNL d   1       5.110  -5.957   0.000  0.00  0.00     0.000 A 
ENDBRANCH   2  24
TORSDOF 5
