REMARK  4 active torsions:
REMARK  status: ('A' for Active; 'I' for Inactive)
REMARK    1  A    between atoms: C_6  and  S_1 
REMARK    2  A    between atoms: N_9  and  S_1 
REMARK    3  A    between atoms: C_17  and  N_9 
REMARK       I    between atoms: C_13  and  N_15 
REMARK    4  A    between atoms: N_15  and  C_18 
ROOT
ATOM      1  C   UNL d   1      -0.155  -1.407   0.000  0.00  0.00     0.054 A 
ATOM      2  C   UNL d   1      -0.602  -2.084   0.000  0.00  0.00     0.196 A 
ATOM      3  C   UNL d   1       0.640  -1.413   0.000  0.00  0.00     0.043 A 
ATOM      4  C   UNL d   1       1.045  -2.111   0.000  0.00  0.00     0.196 A 
ATOM      5  C   UNL d   1      -0.528  -0.640   0.000  0.00  0.00     0.108 A 
ATOM      6  C   UNL d   1      -0.218  -2.815   0.000  0.00  0.00     0.042 A 
ATOM      7  C   UNL d   1       0.597  -2.820   0.000  0.00  0.00     0.042 A 
ATOM      8  O   UNL d   1      -1.450  -2.004   0.000  0.00  0.00    -0.286 OA
ATOM      9  O   UNL d   1       1.893  -2.111   0.000  0.00  0.00    -0.287 OA
ATOM     10  C   UNL d   1       1.093  -0.704   0.000  0.00  0.00     0.003 A 
ATOM     11  C   UNL d   1      -0.080   0.027   0.000  0.00  0.00     0.013 A 
ATOM     12  C   UNL d   1      -0.640  -3.524   0.000  0.00  0.00     0.003 A 
ATOM     13  C   UNL d   1       1.024  -3.582   0.000  0.00  0.00     0.003 A 
ATOM     14  C   UNL d   1       0.709   0.027   0.000  0.00  0.00     0.001 A 
ATOM     15  C   UNL d   1      -0.256  -4.227   0.000  0.00  0.00     0.000 A 
ATOM     16  C   UNL d   1       0.576  -4.259   0.000  0.00  0.00     0.000 A 
ENDROOT
BRANCH   5  17
ATOM     17  S   UNL d   1      -1.386  -0.576   0.000  0.00  0.00     0.285 S 
ATOM     18  O   UNL d   1      -1.322   0.234   0.000  0.00  0.00    -0.198 OA
ATOM     19  O   UNL d   1      -1.434  -1.429   0.000  0.00  0.00    -0.198 OA
BRANCH  17  20
ATOM     20  N   UNL d   1      -2.191  -0.517   0.000  0.00  0.00    -0.158 NA
BRANCH  20  21
ATOM     21  C   UNL d   1      -2.665  -1.215   0.000  0.00  0.00     0.094 A 
ATOM     22  C   UNL d   1      -2.319  -1.956   0.000  0.00  0.00     0.021 A 
ATOM     23  C   UNL d   1      -2.793  -2.644   0.000  0.00  0.00     0.021 A 
ATOM     24  C   UNL d   1      -3.641  -2.580   0.000  0.00  0.00     0.085 A 
ATOM     25  C   UNL d   1      -3.982  -1.812   0.000  0.00  0.00     0.021 A 
ATOM     26  C   UNL d   1      -3.518  -1.151   0.000  0.00  0.00     0.021 A 
BRANCH  24  27
ATOM     27  N   UNL d   1      -4.089  -3.268   0.000  0.00  0.00    -0.208 NA
ATOM     28  C   UNL d   1      -4.920  -3.263   0.000  0.00  0.00     0.279 C 
ATOM     29  O   UNL d   1      -5.304  -2.495   0.000  0.00  0.00    -0.265 OA
ATOM     30  C   UNL d   1      -5.400  -3.939   0.000  0.00  0.00     0.068 C 
ENDBRANCH  24  27
ENDBRANCH  20  21
ENDBRANCH  17  20
ENDBRANCH   5  17
TORSDOF 4
