REMARK  4 active torsions:
REMARK  status: ('A' for Active; 'I' for Inactive)
REMARK    1  A    between atoms: N_7  and  C_1 
REMARK    2  A    between atoms: C_11  and  C_2 
REMARK       I    between atoms: C_8  and  N_7 
REMARK    3  A    between atoms: C_13  and  C_8 
REMARK    4  A    between atoms: N_9  and  C_13 
ROOT
ATOM      1  C   UNL d   1       0.464   1.508   0.000  0.00  0.00     0.142 A 
ATOM      2  C   UNL d   1      -0.248   1.106   0.000  0.00  0.00     0.024 A 
ATOM      3  C   UNL d   1       0.464   2.333   0.000  0.00  0.00     0.297 A 
ATOM      4  C   UNL d   1      -0.964   1.508   0.000  0.00  0.00     0.020 A 
ATOM      5  N   UNL d   1      -0.248   2.756   0.000  0.00  0.00    -0.207 NA
ATOM      6  C   UNL d   1      -0.964   2.333   0.000  0.00  0.00     0.085 A 
ATOM      7  C   UNL d   1      -1.672   1.106   0.000  0.00  0.00     0.008 A 
ATOM      8  O   UNL d   1       1.183   2.756   0.000  0.00  0.00    -0.264 OA
ATOM      9  C   UNL d   1      -1.672   2.756   0.000  0.00  0.00     0.020 A 
ATOM     10  C   UNL d   1      -2.384   1.508   0.000  0.00  0.00     0.035 A 
ATOM     11  C   UNL d   1      -2.384   2.333   0.000  0.00  0.00     0.008 A 
ATOM     12 BR   UNL d   1      -3.121   1.106   0.000  0.00  0.00    -0.049 Br
ENDROOT
BRANCH   1  13
ATOM     13  N   UNL d   1       1.197   1.106   0.000  0.00  0.00    -0.202 NA
ATOM     14  C   UNL d   1       1.197   0.263   0.000  0.00  0.00     0.297 C 
ATOM     15  O   UNL d   1       0.617  -0.044   0.000  0.00  0.00    -0.264 OA
BRANCH  14  16
ATOM     16  C   UNL d   1       1.916  -0.131   0.000  0.00  0.00     0.144 C 
BRANCH  16  17
ATOM     17  N   UNL d   1       1.916  -0.967   0.000  0.00  0.00    -0.295 N 
ATOM     18  C   UNL d   1       2.628  -1.373   0.000  0.00  0.00     0.107 A 
ATOM     19  C   UNL d   1       2.628  -2.216   0.000  0.00  0.00     0.142 A 
ATOM     20  O   UNL d   1       1.916  -2.628   0.000  0.00  0.00    -0.300 OA
ATOM     21  C   UNL d   1       1.183  -2.194   0.000  0.00  0.00     0.142 A 
ATOM     22  C   UNL d   1       1.197  -1.373   0.000  0.00  0.00     0.107 A 
ENDBRANCH  16  17
ENDBRANCH  14  16
ENDBRANCH   1  13
BRANCH   2  23
ATOM     23  C   UNL d   1      -0.248   0.263   0.000  0.00  0.00     0.002 A 
ATOM     24  C   UNL d   1       0.464  -0.146   0.000  0.00  0.00     0.000 A 
ATOM     25  C   UNL d   1       0.464  -0.967   0.000  0.00  0.00     0.000 A 
ATOM     26  C   UNL d   1      -0.248  -1.402   0.000  0.00  0.00     0.000 A 
ATOM     27  C   UNL d   1      -0.964  -0.967   0.000  0.00  0.00     0.000 A 
ATOM     28  C   UNL d   1      -0.964  -0.146   0.000  0.00  0.00     0.000 A 
ENDBRANCH   2  23
TORSDOF 4
