REMARK  3 active torsions:
REMARK  status: ('A' for Active; 'I' for Inactive)
REMARK    1  A    between atoms: N_2  and  S_1 
REMARK    2  A    between atoms: C_8  and  S_1 
REMARK    3  A    between atoms: C_3  and  N_2 
ROOT
ATOM      1  C   UNL d   1      -1.194   0.702   0.000  0.00  0.00     0.094 A 
ATOM      2  C   UNL d   1      -1.194  -0.137   0.000  0.00  0.00     0.021 A 
ATOM      3  C   UNL d   1      -0.482  -0.473   0.000  0.00  0.00     0.040 A 
ATOM      4  C   UNL d   1       0.234  -0.102   0.000  0.00  0.00     0.196 A 
ATOM      5  C   UNL d   1      -0.507   1.135   0.000  0.00  0.00     0.023 A 
ATOM      6  C   UNL d   1       0.234   0.741   0.000  0.00  0.00     0.044 A 
ATOM      7  O   UNL d   1       0.999  -0.526   0.000  0.00  0.00    -0.287 OA
ATOM      8  C   UNL d   1      -1.866  -0.526   0.000  0.00  0.00     0.002 A 
ATOM      9  C   UNL d   1      -0.409  -1.306   0.000  0.00  0.00     0.003 A 
ATOM     10  C   UNL d   1      -1.126  -1.754   0.000  0.00  0.00     0.000 A 
ATOM     11  C   UNL d   1      -1.866  -1.350   0.000  0.00  0.00     0.000 A 
ENDROOT
BRANCH   1  12
ATOM     12  N   UNL d   1      -1.871   1.077   0.000  0.00  0.00    -0.158 NA
BRANCH  12  13
ATOM     13  S   UNL d   1      -2.587   0.643   0.000  0.00  0.00     0.285 S 
ATOM     14  O   UNL d   1      -3.021   1.384   0.000  0.00  0.00    -0.198 OA
ATOM     15  O   UNL d   1      -2.159  -0.019   0.000  0.00  0.00    -0.198 OA
BRANCH  13  16
ATOM     16  C   UNL d   1      -3.313   0.214   0.000  0.00  0.00     0.105 A 
ATOM     17  C   UNL d   1      -4.030   0.643   0.000  0.00  0.00     0.013 A 
ATOM     18  C   UNL d   1      -4.731   0.258   0.000  0.00  0.00     0.001 A 
ATOM     19  C   UNL d   1      -4.751  -0.531   0.000  0.00  0.00     0.000 A 
ATOM     20  C   UNL d   1      -4.030  -0.970   0.000  0.00  0.00     0.001 A 
ATOM     21  C   UNL d   1      -3.313  -0.560   0.000  0.00  0.00     0.013 A 
ENDBRANCH  13  16
ENDBRANCH  12  13
ENDBRANCH   1  12
TORSDOF 3
