REMARK  9 active torsions:
REMARK  status: ('A' for Active; 'I' for Inactive)
REMARK    1  A    between atoms: C_17  and  N_4 
REMARK    2  A    between atoms: S_16  and  C_7 
REMARK    3  A    between atoms: S_15  and  C_8 
REMARK    4  A    between atoms: C_10  and  C_19 
REMARK    5  A    between atoms: C_22  and  S_15 
REMARK    6  A    between atoms: C_19  and  S_16 
REMARK    7  A    between atoms: C_20  and  C_22 
REMARK    8  A    between atoms: O_24  and  C_20 
REMARK    9  A    between atoms: C_28  and  O_24 
ROOT
ATOM      1  N   UNL d   1       0.513  -0.342   0.000  0.00  0.00    -0.269 N 
ATOM      2  C   UNL d   1       1.310  -0.176   0.000  0.00  0.00     0.201 A 
ATOM      3  C   UNL d   1       0.062   0.365   0.000  0.00  0.00     0.177 A 
ATOM      4  N   UNL d   1       1.386   0.641   0.000  0.00  0.00    -0.121 NA
ATOM      5  N   UNL d   1       0.627   0.983   0.000  0.00  0.00    -0.127 NA
ENDROOT
BRANCH   3   6
ATOM      6  C   UNL d   1      -0.755   0.365   0.000  0.00  0.00     0.078 C 
BRANCH   6   7
ATOM      7  S   UNL d   1      -1.163   1.078   0.000  0.00  0.00    -0.045 SA
BRANCH   7   8
ATOM      8  C   UNL d   1      -1.994   1.083   0.000  0.00  0.00     0.198 A 
ATOM      9  N   UNL d   1      -2.445   1.818   0.000  0.00  0.00    -0.183 NA
ATOM     10  C   UNL d   1      -3.271   1.818   0.000  0.00  0.00     0.283 A 
ATOM     11  C   UNL d   1      -3.684   1.083   0.000  0.00  0.00     0.082 A 
ATOM     12  O   UNL d   1      -3.698   2.530   0.000  0.00  0.00    -0.265 OA
ATOM     13  C   UNL d   1      -3.247   0.365   0.000  0.00  0.00     0.117 A 
ATOM     14  C   UNL d   1      -4.496   0.907   0.000  0.00  0.00     0.013 A 
ATOM     15  N   UNL d   1      -2.417   0.365   0.000  0.00  0.00    -0.214 NA
ATOM     16  S   UNL d   1      -3.812  -0.247   0.000  0.00  0.00    -0.068 SA
ATOM     17  C   UNL d   1      -4.581   0.095   0.000  0.00  0.00     0.031 A 
ATOM     18  C   UNL d   1      -5.313  -0.285   0.000  0.00  0.00     0.006 A 
ATOM     19  C   UNL d   1      -6.006   0.195   0.000  0.00  0.00     0.001 A 
ATOM     20  C   UNL d   1      -5.920   1.026   0.000  0.00  0.00     0.000 A 
ATOM     21  C   UNL d   1      -5.165   1.382   0.000  0.00  0.00     0.001 A 
ENDBRANCH   7   8
ENDBRANCH   6   7
ENDBRANCH   3   6
BRANCH   1  22
ATOM     22  C   UNL d   1       0.204  -1.116   0.000  0.00  0.00     0.067 A 
ATOM     23  C   UNL d   1       0.717  -1.766   0.000  0.00  0.00     0.018 A 
ATOM     24  C   UNL d   1       0.418  -2.526   0.000  0.00  0.00     0.002 A 
ATOM     25  C   UNL d   1      -0.394  -2.654   0.000  0.00  0.00     0.000 A 
ATOM     26  C   UNL d   1      -0.907  -2.027   0.000  0.00  0.00     0.002 A 
ATOM     27  C   UNL d   1      -0.608  -1.253   0.000  0.00  0.00     0.018 A 
ENDBRANCH   1  22
BRANCH   2  28
ATOM     28  S   UNL d   1       1.937  -0.717   0.000  0.00  0.00    -0.042 SA
BRANCH  28  29
ATOM     29  C   UNL d   1       2.697  -0.456   0.000  0.00  0.00     0.107 C 
BRANCH  29  30
ATOM     30  C   UNL d   1       3.323  -0.988   0.000  0.00  0.00     0.307 C 
ATOM     31  O   UNL d   1       3.167  -1.799   0.000  0.00  0.00    -0.258 OA
BRANCH  30  32
ATOM     32  O   UNL d   1       4.102  -0.741   0.000  0.00  0.00    -0.271 OA
BRANCH  32  33
ATOM     33  C   UNL d   1       4.729  -1.258   0.000  0.00  0.00     0.126 C 
ATOM     34  C   UNL d   1       5.488  -1.026   0.000  0.00  0.00     0.029 C 
ENDBRANCH  32  33
ENDBRANCH  30  32
ENDBRANCH  29  30
ENDBRANCH  28  29
ENDBRANCH   2  28
TORSDOF 9
