REMARK  2 active torsions:
REMARK  status: ('A' for Active; 'I' for Inactive)
REMARK    1  A    between atoms: C_9  and  C_1 
REMARK    2  A    between atoms: N_7  and  C_2 
ROOT
ATOM      1  C   UNL d   1      -1.356   1.159   0.000  0.00  0.00     0.022 A 
ATOM      2  C   UNL d   1      -0.649   1.573   0.000  0.00  0.00     0.123 A 
ATOM      3  C   UNL d   1      -0.649   2.384   0.000  0.00  0.00     0.295 A 
ATOM      4  C   UNL d   1      -2.083   1.573   0.000  0.00  0.00     0.020 A 
ATOM      5  N   UNL d   1      -1.356   2.801   0.000  0.00  0.00    -0.207 NA
ATOM      6  C   UNL d   1      -2.083   2.384   0.000  0.00  0.00     0.085 A 
ATOM      7  C   UNL d   1      -2.782   1.159   0.000  0.00  0.00     0.013 A 
ATOM      8  O   UNL d   1       0.097   2.778   0.000  0.00  0.00    -0.264 OA
ATOM      9  C   UNL d   1      -2.782   2.801   0.000  0.00  0.00     0.020 A 
ATOM     10  C   UNL d   1      -3.509   1.573   0.000  0.00  0.00     0.058 A 
ATOM     11  C   UNL d   1      -3.509   2.384   0.000  0.00  0.00     0.013 A 
ATOM     12 CL   UNL d   1      -4.250   1.179   0.000  0.00  0.00    -0.082 Cl
ENDROOT
BRANCH   1  13
ATOM     13  C   UNL d   1      -1.356   0.325   0.000  0.00  0.00     0.002 A 
ATOM     14  C   UNL d   1      -2.060  -0.085   0.000  0.00  0.00     0.000 A 
ATOM     15  C   UNL d   1      -2.060  -0.908   0.000  0.00  0.00     0.000 A 
ATOM     16  C   UNL d   1      -1.341  -1.314   0.000  0.00  0.00     0.000 A 
ATOM     17  C   UNL d   1      -0.634  -0.908   0.000  0.00  0.00     0.000 A 
ATOM     18  C   UNL d   1      -0.634  -0.073   0.000  0.00  0.00     0.000 A 
ENDBRANCH   1  13
BRANCH   2  19
ATOM     19  N   UNL d   1       0.046   1.159   0.000  0.00  0.00    -0.296 N 
ATOM     20  C   UNL d   1       0.769   1.573   0.000  0.00  0.00     0.107 A 
ATOM     21  C   UNL d   1       1.488   1.159   0.000  0.00  0.00     0.142 A 
ATOM     22  O   UNL d   1       1.484   0.325   0.000  0.00  0.00    -0.300 OA
ATOM     23  C   UNL d   1       0.769  -0.081   0.000  0.00  0.00     0.142 A 
ATOM     24  C   UNL d   1       0.046   0.325   0.000  0.00  0.00     0.107 A 
ENDBRANCH   2  19
TORSDOF 2
