REMARK  1 active torsions:
REMARK  status: ('A' for Active; 'I' for Inactive)
REMARK    1  A    between atoms: C_9  and  C_5 
ROOT
ATOM      1  C   UNL d   1      -2.631   2.483   0.000  0.00  0.00     0.062 A 
ATOM      2  C   UNL d   1      -3.340   2.874   0.000  0.00  0.00     0.197 A 
ATOM      3  C   UNL d   1      -2.631   1.633   0.000  0.00  0.00     0.044 A 
ATOM      4  C   UNL d   1      -1.921   2.919   0.000  0.00  0.00     0.112 A 
ATOM      5  C   UNL d   1      -1.212   2.483   0.000  0.00  0.00     0.084 A 
ATOM      6  C   UNL d   1      -3.340   1.212   0.000  0.00  0.00     0.196 A 
ATOM      7  C   UNL d   1      -4.079   2.453   0.000  0.00  0.00     0.042 A 
ATOM      8  C   UNL d   1      -4.079   1.633   0.000  0.00  0.00     0.042 A 
ATOM      9  C   UNL d   1      -1.921   1.212   0.000  0.00  0.00     0.004 A 
ATOM     10  C   UNL d   1      -1.212   1.596   0.000  0.00  0.00     0.008 A 
ATOM     11  O   UNL d   1      -3.340   3.724   0.000  0.00  0.00    -0.286 OA
ATOM     12  O   UNL d   1      -3.340   0.355   0.000  0.00  0.00    -0.287 OA
ATOM     13  N   UNL d   1      -1.921   3.724   0.000  0.00  0.00    -0.148 N 
ATOM     14  C   UNL d   1      -4.788   2.874   0.000  0.00  0.00     0.003 A 
ATOM     15  C   UNL d   1      -4.788   1.212   0.000  0.00  0.00     0.003 A 
ATOM     16  C   UNL d   1      -5.498   2.483   0.000  0.00  0.00     0.000 A 
ATOM     17  C   UNL d   1      -5.498   1.633   0.000  0.00  0.00     0.000 A 
ENDROOT
BRANCH   5  18
ATOM     18  C   UNL d   1      -0.525   2.926   0.000  0.00  0.00     0.212 C 
ATOM     19  O   UNL d   1       0.177   2.520   0.000  0.00  0.00    -0.644 OA
ATOM     20  O   UNL d   1      -0.569   3.761   0.000  0.00  0.00    -0.644 OA
ENDBRANCH   5  18
TORSDOF 1
