REMARK  4 active torsions:
REMARK  status: ('A' for Active; 'I' for Inactive)
REMARK    1  A    between atoms: S_2  and  C_1 
REMARK    2  A    between atoms: C_7  and  S_2 
REMARK    3  A    between atoms: O_13  and  C_6 
REMARK    4  A    between atoms: C_17  and  O_13 
ROOT
ATOM      1  S   UNL d   1      -0.853  -0.792   0.000  0.00  0.00     0.228 S 
ATOM      2  O   UNL d   1      -0.242  -1.325   0.000  0.00  0.00    -0.216 OA
ATOM      3  O   UNL d   1      -1.430  -0.198   0.000  0.00  0.00    -0.216 OA
ENDROOT
BRANCH   1   4
ATOM      4  C   UNL d   1      -1.403  -1.359   0.000  0.00  0.00     0.188 A 
ATOM      5  N   UNL d   1      -2.222  -1.325   0.000  0.00  0.00    -0.203 NA
ATOM      6  C   UNL d   1      -2.486  -2.118   0.000  0.00  0.00     0.217 A 
ATOM      7  S   UNL d   1      -1.875  -2.596   0.000  0.00  0.00    -0.029 SA
ATOM      8  C   UNL d   1      -1.188  -2.151   0.000  0.00  0.00     0.119 A 
ATOM      9 CL   UNL d   1      -0.396  -2.442   0.000  0.00  0.00    -0.073 Cl
BRANCH   6  10
ATOM     10  O   UNL d   1      -3.300  -2.381   0.000  0.00  0.00    -0.282 OA
BRANCH  10  11
ATOM     11  C   UNL d   1      -3.910  -1.853   0.000  0.00  0.00     0.125 C 
ATOM     12  C   UNL d   1      -4.681  -2.118   0.000  0.00  0.00     0.029 C 
ENDBRANCH  10  11
ENDBRANCH   6  10
ENDBRANCH   1   4
BRANCH   1  13
ATOM     13  C   UNL d   1      -0.264  -0.171   0.000  0.00  0.00     0.089 A 
ATOM     14  C   UNL d   1      -0.478   0.638   0.000  0.00  0.00     0.011 A 
ATOM     15  C   UNL d   1       0.088   1.216   0.000  0.00  0.00     0.001 A 
ATOM     16  C   UNL d   1       0.880   0.985   0.000  0.00  0.00     0.000 A 
ATOM     17  C   UNL d   1       1.095   0.214   0.000  0.00  0.00     0.001 A 
ATOM     18  C   UNL d   1       1.490   1.562   0.000  0.00  0.00     0.000 C 
ATOM     19  C   UNL d   1       0.533  -0.396   0.000  0.00  0.00     0.011 A 
ENDBRANCH   1  13
TORSDOF 4
