REMARK  4 active torsions:
REMARK  status: ('A' for Active; 'I' for Inactive)
REMARK    1  A    between atoms: N_2  and  C_1 
REMARK    2  A    between atoms: C_4  and  C_8 
REMARK       I    between atoms: N_5  and  C_4 
REMARK    3  A    between atoms: C_9  and  C_7 
REMARK    4  A    between atoms: C_8  and  C_9 
ROOT
ATOM      1  C   UNL d   1       0.846   0.097   0.000  0.00  0.00     0.062 C 
ENDROOT
BRANCH   1   2
ATOM      2  C   UNL d   1       0.040   0.080   0.000  0.00  0.00     0.265 C 
ATOM      3  N   UNL d   1      -0.388   0.779   0.000  0.00  0.00    -0.272 N 
ATOM      4  C   UNL d   1       0.003   1.502   0.000  0.00  0.00     0.083 A 
ATOM      5  C   UNL d   1      -1.221   0.763   0.000  0.00  0.00     0.083 A 
ATOM      6  C   UNL d   1      -0.418   2.208   0.000  0.00  0.00     0.019 A 
ATOM      7  C   UNL d   1      -1.241   2.195   0.000  0.00  0.00     0.003 A 
ATOM      8  C   UNL d   1      -1.643   1.472   0.000  0.00  0.00     0.019 A 
ATOM      9  O   UNL d   1      -0.348  -0.642   0.000  0.00  0.00    -0.267 OA
ENDBRANCH   1   2
BRANCH   1  10
ATOM     10  C   UNL d   1       1.244   0.870   0.000  0.00  0.00     0.011 C 
BRANCH  10  11
ATOM     11  C   UNL d   1       2.087   0.923   0.000  0.00  0.00     0.031 A 
ATOM     12  S   UNL d   1       2.583   0.298   0.000  0.00  0.00    -0.064 SA
ATOM     13  C   UNL d   1       3.355   0.599   0.000  0.00  0.00     0.156 A 
ATOM     14  C   UNL d   1       3.292   1.422   0.000  0.00  0.00     0.031 A 
ATOM     15  C   UNL d   1       2.529   1.606   0.000  0.00  0.00     0.009 A 
BRANCH  13  16
ATOM     16  N   UNL d   1       4.078   0.161   0.000  0.00  0.00    -0.107 N 
ATOM     17  O   UNL d   1       4.058  -0.682   0.000  0.00  0.00    -0.531 OA
ATOM     18  O   UNL d   1       4.821   0.559   0.000  0.00  0.00    -0.531 OA
ENDBRANCH  13  16
ENDBRANCH  10  11
ENDBRANCH   1  10
TORSDOF 4
