REMARK  5 active torsions:
REMARK  status: ('A' for Active; 'I' for Inactive)
REMARK    1  A    between atoms: N_2  and  C_1 
REMARK    2  A    between atoms: C_8  and  C_5 
REMARK    3  A    between atoms: C_6  and  C_9 
REMARK       I    between atoms: N_12  and  C_6 
REMARK    4  A    between atoms: C_9  and  C_8 
REMARK    5  A    between atoms: C_13  and  N_12 
ROOT
ATOM      1  C   UNL d   1      -0.387   0.474   0.000  0.00  0.00     0.279 C 
ATOM      2  N   UNL d   1      -0.799   1.183   0.000  0.00  0.00    -0.208 NA
ATOM      3  O   UNL d   1      -0.799  -0.260   0.000  0.00  0.00    -0.265 OA
ENDROOT
BRANCH   1   4
ATOM      4  C   UNL d   1       0.438   0.474   0.000  0.00  0.00     0.063 C 
BRANCH   4   5
ATOM      5  C   UNL d   1       0.839  -0.260   0.000  0.00  0.00     0.011 C 
BRANCH   5   6
ATOM      6  C   UNL d   1       1.675  -0.260   0.000  0.00  0.00     0.031 A 
ATOM      7  S   UNL d   1       2.228  -0.868   0.000  0.00  0.00    -0.064 SA
ATOM      8  C   UNL d   1       2.955  -0.521   0.000  0.00  0.00     0.156 A 
ATOM      9  C   UNL d   1       2.868   0.300   0.000  0.00  0.00     0.031 A 
ATOM     10  C   UNL d   1       2.083   0.474   0.000  0.00  0.00     0.009 A 
BRANCH   8  11
ATOM     11  N   UNL d   1       3.689  -0.926   0.000  0.00  0.00    -0.107 N 
ATOM     12  O   UNL d   1       3.704  -1.740   0.000  0.00  0.00    -0.531 OA
ATOM     13  O   UNL d   1       4.398  -0.492   0.000  0.00  0.00    -0.531 OA
ENDBRANCH   8  11
ENDBRANCH   5   6
ENDBRANCH   4   5
ENDBRANCH   1   4
BRANCH   2  14
ATOM     14  C   UNL d   1      -1.617   1.183   0.000  0.00  0.00     0.085 A 
ATOM     15  C   UNL d   1      -2.036   0.474   0.000  0.00  0.00     0.019 A 
ATOM     16  C   UNL d   1      -2.850   0.474   0.000  0.00  0.00     0.002 A 
ATOM     17  C   UNL d   1      -3.266  -0.260   0.000  0.00  0.00     0.000 C 
ATOM     18  C   UNL d   1      -3.266   1.183   0.000  0.00  0.00     0.000 A 
ATOM     19  C   UNL d   1      -2.850   1.895   0.000  0.00  0.00     0.002 A 
ATOM     20  C   UNL d   1      -2.036   1.895   0.000  0.00  0.00     0.019 A 
ENDBRANCH   2  14
TORSDOF 5
