REMARK  3 active torsions:
REMARK  status: ('A' for Active; 'I' for Inactive)
REMARK    1  A    between atoms: N_2  and  C_12 
REMARK    2  A    between atoms: N_10  and  C_6 
REMARK       I    between atoms: C_11  and  N_10 
REMARK    3  A    between atoms: C_12  and  C_11 
ROOT
ATOM      1  C   UNL d   1      -1.878  -3.849   0.000  0.00  0.00     0.283 A 
ATOM      2  N   UNL d   1      -2.680  -4.117   0.000  0.00  0.00    -0.169 NA
ATOM      3  C   UNL d   1      -1.945  -2.994   0.000  0.00  0.00     0.080 A 
ATOM      4  C   UNL d   1      -3.161  -3.475   0.000  0.00  0.00     0.282 A 
ATOM      5  C   UNL d   1      -1.363  -2.413   0.000  0.00  0.00     0.089 A 
ATOM      6  C   UNL d   1      -2.747  -2.807   0.000  0.00  0.00     0.064 A 
ATOM      7  O   UNL d   1      -1.143  -4.277   0.000  0.00  0.00    -0.265 OA
ATOM      8  O   UNL d   1      -4.003  -3.535   0.000  0.00  0.00    -0.265 OA
ATOM      9  C   UNL d   1      -1.597  -1.611   0.000  0.00  0.00     0.019 A 
ATOM     10  C   UNL d   1      -2.967  -2.005   0.000  0.00  0.00     0.005 A 
ATOM     11  C   UNL d   1      -2.399  -1.444   0.000  0.00  0.00     0.002 A 
ENDROOT
BRANCH   5  12
ATOM     12  N   UNL d   1      -0.501  -2.613   0.000  0.00  0.00    -0.207 NA
ATOM     13  C   UNL d   1       0.027  -1.972   0.000  0.00  0.00     0.297 C 
ATOM     14  O   UNL d   1      -0.214  -1.203   0.000  0.00  0.00    -0.264 OA
BRANCH  13  15
ATOM     15  C   UNL d   1       0.829  -2.165   0.000  0.00  0.00     0.148 C 
BRANCH  15  16
ATOM     16  N   UNL d   1       1.370  -1.550   0.000  0.00  0.00    -0.236 N 
ATOM     17  C   UNL d   1       1.250  -0.722   0.000  0.00  0.00     0.267 A 
ATOM     18  C   UNL d   1       2.012  -0.368   0.000  0.00  0.00     0.066 A 
ATOM     19  O   UNL d   1       0.508  -0.321   0.000  0.00  0.00    -0.267 OA
ATOM     20  C   UNL d   1       2.566  -0.969   0.000  0.00  0.00     0.066 A 
ATOM     21  C   UNL d   1       2.165  -1.711   0.000  0.00  0.00     0.267 A 
ATOM     22  O   UNL d   1       2.486  -2.486   0.000  0.00  0.00    -0.267 OA
ENDBRANCH  15  16
ENDBRANCH  13  15
ENDBRANCH   5  12
TORSDOF 3
