REMARK  4 active torsions:
REMARK  status: ('A' for Active; 'I' for Inactive)
REMARK    1  A    between atoms: N_2  and  S_1 
REMARK    2  A    between atoms: C_6  and  S_1 
REMARK    3  A    between atoms: C_3  and  C_11 
REMARK       I    between atoms: N_4  and  C_3 
REMARK    4  A    between atoms: C_17  and  N_5 
ROOT
ATOM      1  C   UNL d   1      -1.185   1.569   0.000  0.00  0.00     0.104 A 
ATOM      2  C   UNL d   1       0.426   1.107   0.000  0.00  0.00     0.057 A 
ATOM      3  C   UNL d   1      -0.568   2.151   0.000  0.00  0.00     0.013 A 
ATOM      4  C   UNL d   1      -0.958   0.788   0.000  0.00  0.00     0.013 A 
ATOM      5  C   UNL d   1       0.220   1.931   0.000  0.00  0.00     0.005 A 
ATOM      6  C   UNL d   1      -0.163   0.568   0.000  0.00  0.00     0.005 A 
ENDROOT
BRANCH   2   7
ATOM      7  C   UNL d   1       1.193   0.909   0.000  0.00  0.00     0.265 C 
ATOM      8  N   UNL d   1       1.370   0.121   0.000  0.00  0.00    -0.269 N 
ATOM      9  C   UNL d   1       2.158  -0.085   0.000  0.00  0.00     0.102 A 
ATOM     10  C   UNL d   1       0.795  -0.476   0.000  0.00  0.00     0.102 A 
ATOM     11  C   UNL d   1       2.392  -0.880   0.000  0.00  0.00     0.100 A 
ATOM     12  N   UNL d   1       1.817  -1.455   0.000  0.00  0.00    -0.301 N 
ATOM     13  C   UNL d   1       1.029  -1.278   0.000  0.00  0.00     0.100 A 
ATOM     14  O   UNL d   1       1.789   1.484   0.000  0.00  0.00    -0.267 OA
BRANCH  12  15
ATOM     15  C   UNL d   1       2.051  -2.243   0.000  0.00  0.00     0.064 A 
ATOM     16  C   UNL d   1       2.840  -2.470   0.000  0.00  0.00     0.018 A 
ATOM     17  C   UNL d   1       3.067  -3.237   0.000  0.00  0.00     0.002 A 
ATOM     18  C   UNL d   1       2.470  -3.833   0.000  0.00  0.00     0.000 A 
ATOM     19  C   UNL d   1       1.711  -3.606   0.000  0.00  0.00     0.002 A 
ATOM     20  C   UNL d   1       1.477  -2.818   0.000  0.00  0.00     0.018 A 
ENDBRANCH  12  15
ENDBRANCH   2   7
BRANCH   1  21
ATOM     21  S   UNL d   1      -1.959   1.789   0.000  0.00  0.00     0.271 S 
ATOM     22  O   UNL d   1      -2.186   1.015   0.000  0.00  0.00    -0.200 OA
ATOM     23  O   UNL d   1      -1.725   2.612   0.000  0.00  0.00    -0.200 OA
BRANCH  21  24
ATOM     24  N   UNL d   1      -2.761   2.016   0.000  0.00  0.00    -0.229 N 
ATOM     25  C   UNL d   1      -3.322   1.441   0.000  0.00  0.00     0.092 A 
ATOM     26  C   UNL d   1      -4.124   1.654   0.000  0.00  0.00     0.018 A 
ATOM     27  C   UNL d   1      -4.742   1.100   0.000  0.00  0.00     0.002 C 
ATOM     28  C   UNL d   1      -4.337   2.463   0.000  0.00  0.00     0.003 A 
ATOM     29  C   UNL d   1      -3.748   3.059   0.000  0.00  0.00     0.018 A 
ATOM     30  C   UNL d   1      -2.974   2.832   0.000  0.00  0.00     0.092 A 
ATOM     31  C   UNL d   1      -3.940   3.869   0.000  0.00  0.00     0.002 C 
ENDBRANCH  21  24
ENDBRANCH   1  21
TORSDOF 4
