REMARK  3 active torsions:
REMARK  status: ('A' for Active; 'I' for Inactive)
REMARK    1  A    between atoms: C_5  and  N_1 
REMARK    2  A    between atoms: C_4  and  C_5 
REMARK       I    between atoms: N_6  and  C_4 
REMARK    3  A    between atoms: C_12  and  N_6 
ROOT
ATOM      1  C   UNL d   1      -1.819   1.493   0.000  0.00  0.00     0.297 C 
ATOM      2  N   UNL d   1      -2.539   1.918   0.000  0.00  0.00    -0.207 NA
ATOM      3  O   UNL d   1      -1.133   1.961   0.000  0.00  0.00    -0.264 OA
ENDROOT
BRANCH   1   4
ATOM      4  C   UNL d   1      -1.754   0.654   0.000  0.00  0.00     0.148 C 
BRANCH   4   5
ATOM      5  N   UNL d   1      -1.035   0.294   0.000  0.00  0.00    -0.236 N 
ATOM      6  C   UNL d   1      -0.262   0.654   0.000  0.00  0.00     0.267 A 
ATOM      7  C   UNL d   1       0.262   0.054   0.000  0.00  0.00     0.066 A 
ATOM      8  O   UNL d   1      -0.163   1.525   0.000  0.00  0.00    -0.267 OA
ATOM      9  C   UNL d   1      -0.120  -0.654   0.000  0.00  0.00     0.066 A 
ATOM     10  C   UNL d   1      -0.904  -0.523   0.000  0.00  0.00     0.267 A 
ATOM     11  O   UNL d   1      -1.525  -1.046   0.000  0.00  0.00    -0.267 OA
ENDBRANCH   4   5
ENDBRANCH   1   4
BRANCH   2  12
ATOM     12  C   UNL d   1      -2.604   2.702   0.000  0.00  0.00     0.085 A 
ATOM     13  C   UNL d   1      -3.323   3.127   0.000  0.00  0.00     0.020 A 
ATOM     14  C   UNL d   1      -3.389   3.912   0.000  0.00  0.00     0.008 A 
ATOM     15  C   UNL d   1      -2.702   4.369   0.000  0.00  0.00     0.035 A 
ATOM     16  C   UNL d   1      -1.961   4.010   0.000  0.00  0.00     0.008 A 
ATOM     17 BR   UNL d   1      -2.746   5.219   0.000  0.00  0.00    -0.049 Br
ATOM     18  C   UNL d   1      -1.918   3.171   0.000  0.00  0.00     0.020 A 
ENDBRANCH   2  12
TORSDOF 3
