REMARK  5 active torsions:
REMARK  status: ('A' for Active; 'I' for Inactive)
REMARK    1  A    between atoms: N_2  and  C_1 
REMARK    2  A    between atoms: C_9  and  C_5 
REMARK    3  A    between atoms: C_6  and  C_10 
REMARK       I    between atoms: N_11  and  C_6 
REMARK    4  A    between atoms: C_8  and  N_11 
REMARK    5  A    between atoms: C_10  and  C_9 
ROOT
ATOM      1  C   UNL d   1      -3.816   1.860   0.000  0.00  0.00     0.279 C 
ATOM      2  N   UNL d   1      -4.223   2.583   0.000  0.00  0.00    -0.208 NA
ATOM      3  O   UNL d   1      -4.223   1.141   0.000  0.00  0.00    -0.265 OA
ENDROOT
BRANCH   1   4
ATOM      4  C   UNL d   1      -3.001   1.860   0.000  0.00  0.00     0.063 C 
BRANCH   4   5
ATOM      5  C   UNL d   1      -2.594   1.141   0.000  0.00  0.00     0.011 C 
BRANCH   5   6
ATOM      6  C   UNL d   1      -1.762   1.141   0.000  0.00  0.00     0.031 A 
ATOM      7  S   UNL d   1      -1.208   0.540   0.000  0.00  0.00    -0.064 SA
ATOM      8  C   UNL d   1      -0.458   0.866   0.000  0.00  0.00     0.156 A 
ATOM      9  C   UNL d   1      -0.557   1.680   0.000  0.00  0.00     0.031 A 
ATOM     10  C   UNL d   1      -1.355   1.860   0.000  0.00  0.00     0.009 A 
BRANCH   8  11
ATOM     11  N   UNL d   1       0.268   0.458   0.000  0.00  0.00    -0.107 N 
ATOM     12  O   UNL d   1       0.268  -0.367   0.000  0.00  0.00    -0.531 OA
ATOM     13  O   UNL d   1       0.981   0.883   0.000  0.00  0.00    -0.531 OA
ENDBRANCH   8  11
ENDBRANCH   5   6
ENDBRANCH   4   5
ENDBRANCH   1   4
BRANCH   2  14
ATOM     14  C   UNL d   1      -5.051   2.583   0.000  0.00  0.00     0.085 A 
ATOM     15  C   UNL d   1      -5.459   3.283   0.000  0.00  0.00     0.019 A 
ATOM     16  C   UNL d   1      -6.277   3.283   0.000  0.00  0.00     0.002 A 
ATOM     17  C   UNL d   1      -6.705   3.996   0.000  0.00  0.00     0.000 C 
ATOM     18  C   UNL d   1      -6.671   2.583   0.000  0.00  0.00     0.000 A 
ATOM     19  C   UNL d   1      -6.274   1.860   0.000  0.00  0.00     0.002 A 
ATOM     20  C   UNL d   1      -5.459   1.860   0.000  0.00  0.00     0.019 A 
ATOM     21  C   UNL d   1      -6.684   1.141   0.000  0.00  0.00     0.000 C 
ENDBRANCH   2  14
TORSDOF 5
