REMARK  6 active torsions:
REMARK  status: ('A' for Active; 'I' for Inactive)
REMARK    1  A    between atoms: C_7  and  C_1 
REMARK    2  A    between atoms: C_10  and  C_2 
REMARK    3  A    between atoms: C_8  and  C_7 
REMARK    4  A    between atoms: C_9  and  C_8 
REMARK    5  A    between atoms: C_13  and  C_9 
REMARK    6  A    between atoms: O_20  and  C_16 
ROOT
ATOM      1  C   UNL d   1      -0.609   0.175   0.000  0.00  0.00     0.097 A 
ATOM      2  C   UNL d   1      -1.325  -0.234   0.000  0.00  0.00     0.009 A 
ATOM      3  C   UNL d   1      -0.609   1.004   0.000  0.00  0.00     0.282 A 
ATOM      4  C   UNL d   1      -2.043   0.175   0.000  0.00  0.00     0.018 A 
ATOM      5  N   UNL d   1      -1.325   1.401   0.000  0.00  0.00    -0.208 NA
ATOM      6  C   UNL d   1      -2.043   1.004   0.000  0.00  0.00     0.085 A 
ATOM      7  C   UNL d   1      -2.744  -0.234   0.000  0.00  0.00     0.008 A 
ATOM      8  O   UNL d   1       0.102   1.419   0.000  0.00  0.00    -0.265 OA
ATOM      9  C   UNL d   1      -2.744   1.401   0.000  0.00  0.00     0.020 A 
ATOM     10  C   UNL d   1      -3.466   0.175   0.000  0.00  0.00     0.035 A 
ATOM     11  C   UNL d   1      -3.466   1.004   0.000  0.00  0.00     0.008 A 
ATOM     12 BR   UNL d   1      -4.200  -0.234   0.000  0.00  0.00    -0.049 Br
ENDROOT
BRANCH   1  13
ATOM     13  C   UNL d   1       0.131  -0.234   0.000  0.00  0.00     0.200 C 
ATOM     14  O   UNL d   1       0.131  -1.055   0.000  0.00  0.00    -0.286 OA
BRANCH  13  15
ATOM     15  C   UNL d   1       0.832   0.175   0.000  0.00  0.00     0.042 C 
BRANCH  15  16
ATOM     16  C   UNL d   1       0.832   1.004   0.000  0.00  0.00     0.005 C 
BRANCH  16  17
ATOM     17  C   UNL d   1       1.533   1.419   0.000  0.00  0.00     0.022 A 
ATOM     18  C   UNL d   1       2.237   1.004   0.000  0.00  0.00     0.094 A 
ATOM     19  C   UNL d   1       2.959   1.419   0.000  0.00  0.00     0.024 A 
ATOM     20  C   UNL d   1       2.938   2.244   0.000  0.00  0.00     0.002 A 
ATOM     21  C   UNL d   1       2.233   2.646   0.000  0.00  0.00     0.000 A 
ATOM     22  C   UNL d   1       1.533   2.244   0.000  0.00  0.00     0.002 A 
BRANCH  18  23
ATOM     23  O   UNL d   1       2.259   0.175   0.000  0.00  0.00    -0.328 OA
ATOM     24  C   UNL d   1       2.978  -0.219   0.000  0.00  0.00     0.181 C 
ENDBRANCH  18  23
ENDBRANCH  16  17
ENDBRANCH  15  16
ENDBRANCH  13  15
ENDBRANCH   1  13
BRANCH   2  25
ATOM     25  C   UNL d   1      -1.325  -1.077   0.000  0.00  0.00     0.000 A 
ATOM     26  C   UNL d   1      -2.043  -1.489   0.000  0.00  0.00     0.000 A 
ATOM     27  C   UNL d   1      -2.043  -2.321   0.000  0.00  0.00     0.000 A 
ATOM     28  C   UNL d   1      -1.325  -2.719   0.000  0.00  0.00     0.000 A 
ATOM     29  C   UNL d   1      -0.609  -2.303   0.000  0.00  0.00     0.000 A 
ATOM     30  C   UNL d   1      -0.609  -1.489   0.000  0.00  0.00     0.000 A 
ENDBRANCH   2  25
TORSDOF 6
