REMARK  5 active torsions:
REMARK  status: ('A' for Active; 'I' for Inactive)
REMARK    1  A    between atoms: N_2  and  C_1 
REMARK    2  A    between atoms: C_9  and  C_5 
REMARK       I    between atoms: N_6  and  C_7 
REMARK    3  A    between atoms: C_11  and  N_6 
REMARK    4  A    between atoms: C_7  and  C_10 
REMARK    5  A    between atoms: C_10  and  C_9 
ROOT
ATOM      1  N   UNL d   1      -0.784   1.106   0.000  0.00  0.00    -0.208 NA
ATOM      2  C   UNL d   1      -0.388   0.410   0.000  0.00  0.00     0.279 C 
ATOM      3  O   UNL d   1      -0.784  -0.305   0.000  0.00  0.00    -0.265 OA
ENDROOT
BRANCH   2   4
ATOM      4  C   UNL d   1       0.439   0.410   0.000  0.00  0.00     0.063 C 
BRANCH   4   5
ATOM      5  C   UNL d   1       0.871  -0.305   0.000  0.00  0.00     0.011 C 
BRANCH   5   6
ATOM      6  C   UNL d   1       1.680  -0.305   0.000  0.00  0.00     0.031 A 
ATOM      7  S   UNL d   1       2.235  -0.914   0.000  0.00  0.00    -0.064 SA
ATOM      8  C   UNL d   1       2.964  -0.570   0.000  0.00  0.00     0.156 A 
ATOM      9  C   UNL d   1       2.877   0.236   0.000  0.00  0.00     0.031 A 
ATOM     10  C   UNL d   1       2.093   0.410   0.000  0.00  0.00     0.009 A 
BRANCH   8  11
ATOM     11  N   UNL d   1       3.682  -1.001   0.000  0.00  0.00    -0.107 N 
ATOM     12  O   UNL d   1       3.700  -1.810   0.000  0.00  0.00    -0.531 OA
ATOM     13  O   UNL d   1       4.397  -0.570   0.000  0.00  0.00    -0.531 OA
ENDBRANCH   8  11
ENDBRANCH   5   6
ENDBRANCH   4   5
ENDBRANCH   2   4
BRANCH   1  14
ATOM     14  C   UNL d   1      -1.607   1.106   0.000  0.00  0.00     0.085 A 
ATOM     15  C   UNL d   1      -2.021   1.825   0.000  0.00  0.00     0.018 A 
ATOM     16  C   UNL d   1      -1.607   2.536   0.000  0.00  0.00     0.002 C 
ATOM     17  C   UNL d   1      -2.841   1.825   0.000  0.00  0.00     0.002 A 
ATOM     18  C   UNL d   1      -3.261   1.106   0.000  0.00  0.00     0.000 A 
ATOM     19  C   UNL d   1      -2.841   0.392   0.000  0.00  0.00     0.002 A 
ATOM     20  C   UNL d   1      -2.021   0.392   0.000  0.00  0.00     0.019 A 
ENDBRANCH   1  14
TORSDOF 5
