REMARK  6 active torsions:
REMARK  status: ('A' for Active; 'I' for Inactive)
REMARK    1  A    between atoms: N_2  and  C_1 
REMARK    2  A    between atoms: C_8  and  C_5 
REMARK    3  A    between atoms: C_6  and  C_9 
REMARK       I    between atoms: N_13  and  C_6 
REMARK    4  A    between atoms: C_9  and  C_8 
REMARK    5  A    between atoms: C_14  and  C_11 
REMARK    6  A    between atoms: C_16  and  N_13 
ROOT
ATOM      1  C   UNL d   1      -3.760   2.133   0.000  0.00  0.00     0.279 C 
ATOM      2  N   UNL d   1      -4.360   2.689   0.000  0.00  0.00    -0.208 NA
ATOM      3  O   UNL d   1      -3.967   1.326   0.000  0.00  0.00    -0.265 OA
ENDROOT
BRANCH   1   4
ATOM      4  C   UNL d   1      -2.983   2.362   0.000  0.00  0.00     0.063 C 
BRANCH   4   5
ATOM      5  C   UNL d   1      -2.383   1.784   0.000  0.00  0.00     0.011 C 
BRANCH   5   6
ATOM      6  C   UNL d   1      -1.570   2.016   0.000  0.00  0.00     0.031 A 
ATOM      7  S   UNL d   1      -0.868   1.581   0.000  0.00  0.00    -0.064 SA
ATOM      8  C   UNL d   1      -0.258   2.111   0.000  0.00  0.00     0.156 A 
ATOM      9  C   UNL d   1      -0.563   2.874   0.000  0.00  0.00     0.031 A 
ATOM     10  C   UNL d   1      -1.391   2.808   0.000  0.00  0.00     0.009 A 
BRANCH   8  11
ATOM     11  N   UNL d   1       0.567   1.929   0.000  0.00  0.00    -0.107 N 
ATOM     12  O   UNL d   1       0.810   1.130   0.000  0.00  0.00    -0.531 OA
ATOM     13  O   UNL d   1       1.134   2.529   0.000  0.00  0.00    -0.531 OA
ENDBRANCH   8  11
ENDBRANCH   5   6
ENDBRANCH   4   5
ENDBRANCH   1   4
BRANCH   2  14
ATOM     14  C   UNL d   1      -5.152   2.471   0.000  0.00  0.00     0.085 A 
ATOM     15  C   UNL d   1      -5.737   3.026   0.000  0.00  0.00     0.022 A 
ATOM     16  C   UNL d   1      -6.540   2.801   0.000  0.00  0.00     0.041 A 
ATOM     17  C   UNL d   1      -6.740   2.002   0.000  0.00  0.00     0.003 A 
ATOM     18  C   UNL d   1      -6.129   1.439   0.000  0.00  0.00     0.002 A 
ATOM     19  C   UNL d   1      -5.345   1.668   0.000  0.00  0.00     0.019 A 
BRANCH  16  20
ATOM     20  C   UNL d   1      -7.139   3.368   0.000  0.00  0.00     0.196 C 
ATOM     21  O   UNL d   1      -6.947   4.156   0.000  0.00  0.00    -0.287 OA
ATOM     22  C   UNL d   1      -7.949   3.146   0.000  0.00  0.00     0.045 C 
ENDBRANCH  16  20
ENDBRANCH   2  14
TORSDOF 6
