REMARK  5 active torsions:
REMARK  status: ('A' for Active; 'I' for Inactive)
REMARK    1  A    between atoms: N_2  and  C_1 
REMARK    2  A    between atoms: C_8  and  C_5 
REMARK    3  A    between atoms: C_6  and  C_9 
REMARK       I    between atoms: N_12  and  C_6 
REMARK    4  A    between atoms: C_9  and  C_8 
REMARK    5  A    between atoms: C_14  and  N_12 
ROOT
ATOM      1  C   UNL d   1      -3.448   3.016   0.000  0.00  0.00     0.279 C 
ATOM      2  N   UNL d   1      -3.858   3.725   0.000  0.00  0.00    -0.208 NA
ATOM      3  O   UNL d   1      -3.858   2.304   0.000  0.00  0.00    -0.265 OA
ENDROOT
BRANCH   1   4
ATOM      4  C   UNL d   1      -2.617   3.016   0.000  0.00  0.00     0.063 C 
BRANCH   4   5
ATOM      5  C   UNL d   1      -2.200   2.304   0.000  0.00  0.00     0.011 C 
BRANCH   5   6
ATOM      6  C   UNL d   1      -1.355   2.304   0.000  0.00  0.00     0.031 A 
ATOM      7  S   UNL d   1      -0.805   1.690   0.000  0.00  0.00    -0.064 SA
ATOM      8  C   UNL d   1      -0.061   2.028   0.000  0.00  0.00     0.156 A 
ATOM      9  C   UNL d   1      -0.129   2.844   0.000  0.00  0.00     0.031 A 
ATOM     10  C   UNL d   1      -0.946   3.016   0.000  0.00  0.00     0.009 A 
BRANCH   8  11
ATOM     11  N   UNL d   1       0.647   1.596   0.000  0.00  0.00    -0.107 N 
ATOM     12  O   UNL d   1       0.647   0.773   0.000  0.00  0.00    -0.531 OA
ATOM     13  O   UNL d   1       1.363   2.013   0.000  0.00  0.00    -0.531 OA
ENDBRANCH   8  11
ENDBRANCH   5   6
ENDBRANCH   4   5
ENDBRANCH   1   4
BRANCH   2  14
ATOM     14  C   UNL d   1      -4.688   3.725   0.000  0.00  0.00     0.085 A 
ATOM     15  C   UNL d   1      -5.102   4.447   0.000  0.00  0.00     0.019 A 
ATOM     16  C   UNL d   1      -5.914   4.469   0.000  0.00  0.00     0.002 A 
ATOM     17  C   UNL d   1      -6.331   3.725   0.000  0.00  0.00     0.000 A 
ATOM     18  C   UNL d   1      -5.914   3.016   0.000  0.00  0.00     0.002 A 
ATOM     19  C   UNL d   1      -7.162   3.703   0.000  0.00  0.00     0.000 C 
ATOM     20  C   UNL d   1      -5.102   3.016   0.000  0.00  0.00     0.019 A 
ENDBRANCH   2  14
TORSDOF 5
