REMARK  5 active torsions:
REMARK  status: ('A' for Active; 'I' for Inactive)
REMARK    1  A    between atoms: N_2  and  C_1 
REMARK    2  A    between atoms: C_10  and  C_5 
REMARK       I    between atoms: N_6  and  C_7 
REMARK    3  A    between atoms: C_8  and  N_6 
REMARK    4  A    between atoms: C_7  and  C_11 
REMARK    5  A    between atoms: C_11  and  C_10 
ROOT
ATOM      1  N   UNL d   1      -3.832   3.232   0.000  0.00  0.00    -0.208 NA
ATOM      2  C   UNL d   1      -3.425   2.514   0.000  0.00  0.00     0.279 C 
ATOM      3  O   UNL d   1      -3.832   1.811   0.000  0.00  0.00    -0.265 OA
ENDROOT
BRANCH   2   4
ATOM      4  C   UNL d   1      -2.600   2.514   0.000  0.00  0.00     0.063 C 
BRANCH   4   5
ATOM      5  C   UNL d   1      -2.186   1.811   0.000  0.00  0.00     0.011 C 
BRANCH   5   6
ATOM      6  C   UNL d   1      -1.346   1.811   0.000  0.00  0.00     0.031 A 
ATOM      7  S   UNL d   1      -0.800   1.196   0.000  0.00  0.00    -0.064 SA
ATOM      8  C   UNL d   1      -0.061   1.539   0.000  0.00  0.00     0.156 A 
ATOM      9  C   UNL d   1      -0.129   2.343   0.000  0.00  0.00     0.031 A 
ATOM     10  C   UNL d   1      -0.939   2.514   0.000  0.00  0.00     0.009 A 
BRANCH   8  11
ATOM     11  N   UNL d   1       0.643   1.111   0.000  0.00  0.00    -0.107 N 
ATOM     12  O   UNL d   1       0.643   0.286   0.000  0.00  0.00    -0.531 OA
ATOM     13  O   UNL d   1       1.354   1.518   0.000  0.00  0.00    -0.531 OA
ENDBRANCH   8  11
ENDBRANCH   5   6
ENDBRANCH   4   5
ENDBRANCH   2   4
BRANCH   1  14
ATOM     14  C   UNL d   1      -4.657   3.232   0.000  0.00  0.00     0.085 A 
ATOM     15  C   UNL d   1      -5.068   2.514   0.000  0.00  0.00     0.018 A 
ATOM     16  C   UNL d   1      -5.875   2.514   0.000  0.00  0.00     0.002 A 
ATOM     17  C   UNL d   1      -4.639   1.796   0.000  0.00  0.00     0.002 C 
ATOM     18  C   UNL d   1      -6.289   3.232   0.000  0.00  0.00     0.000 A 
ATOM     19  C   UNL d   1      -5.875   3.957   0.000  0.00  0.00     0.002 A 
ATOM     20  C   UNL d   1      -7.114   3.214   0.000  0.00  0.00     0.000 C 
ATOM     21  C   UNL d   1      -5.068   3.936   0.000  0.00  0.00     0.019 A 
ENDBRANCH   1  14
TORSDOF 5
