REMARK  3 active torsions:
REMARK  status: ('A' for Active; 'I' for Inactive)
REMARK    1  A    between atoms: C_4  and  C_1 
REMARK    2  A    between atoms: N_2  and  C_9 
REMARK       I    between atoms: N_7  and  C_4 
REMARK    3  A    between atoms: C_11  and  N_7 
ROOT
ATOM      1  C   UNL d   1      -1.052  -0.224   0.000  0.00  0.00     0.087 A 
ATOM      2  S   UNL d   1      -0.572  -0.895   0.000  0.00  0.00    -0.082 SA
ATOM      3  C   UNL d   1      -0.572   0.436   0.000  0.00  0.00     0.012 A 
ATOM      4  C   UNL d   1       0.220   0.187   0.000  0.00  0.00     0.008 A 
ATOM      5  C   UNL d   1       0.220  -0.660   0.000  0.00  0.00     0.030 A 
ATOM      6  C   UNL d   1       1.632   0.187   0.000  0.00  0.00     0.127 A 
ATOM      7  C   UNL d   1       0.924   0.590   0.000  0.00  0.00     0.024 A 
ATOM      8  C   UNL d   1       0.924  -1.056   0.000  0.00  0.00     0.008 A 
ATOM      9  C   UNL d   1       1.632  -0.660   0.000  0.00  0.00     0.024 A 
ENDROOT
BRANCH   1  10
ATOM     10  C   UNL d   1      -1.877  -0.224   0.000  0.00  0.00     0.286 C 
ATOM     11  N   UNL d   1      -2.299   0.484   0.000  0.00  0.00    -0.189 NA
ATOM     12  O   UNL d   1      -2.299  -0.950   0.000  0.00  0.00    -0.265 OA
BRANCH  11  13
ATOM     13  C   UNL d   1      -3.124   0.502   0.000  0.00  0.00     0.166 A 
ATOM     14  N   UNL d   1      -3.538  -0.224   0.000  0.00  0.00    -0.225 NA
ATOM     15  C   UNL d   1      -4.363  -0.224   0.000  0.00  0.00     0.101 A 
ATOM     16  C   UNL d   1      -4.781   0.502   0.000  0.00  0.00     0.021 A 
ATOM     17  C   UNL d   1      -4.374   1.206   0.000  0.00  0.00     0.005 A 
ATOM     18  C   UNL d   1      -3.538   1.206   0.000  0.00  0.00     0.039 A 
ENDBRANCH  11  13
ENDBRANCH   1  10
BRANCH   6  19
ATOM     19  N   UNL d   1       2.376   0.590   0.000  0.00  0.00    -0.114 N 
ATOM     20  O   UNL d   1       3.080   0.187   0.000  0.00  0.00    -0.532 OA
ATOM     21  O   UNL d   1       2.376   1.419   0.000  0.00  0.00    -0.532 OA
ENDBRANCH   6  19
TORSDOF 3
