REMARK  2 active torsions:
REMARK  status: ('A' for Active; 'I' for Inactive)
REMARK    1  A    between atoms: C_4  and  C_1 
REMARK    2  A    between atoms: N_2  and  C_9 
REMARK       I    between atoms: N_7  and  C_4 
ROOT
ATOM      1  C   UNL d   1       0.885   0.107   0.000  0.00  0.00     0.086 A 
ATOM      2  S   UNL d   1       1.341  -0.547   0.000  0.00  0.00    -0.082 SA
ATOM      3  C   UNL d   1       1.341   0.781   0.000  0.00  0.00     0.012 A 
ATOM      4  C   UNL d   1       2.133   0.540   0.000  0.00  0.00     0.008 A 
ATOM      5  C   UNL d   1       2.133  -0.285   0.000  0.00  0.00     0.030 A 
ATOM      6  C   UNL d   1       3.564   0.540   0.000  0.00  0.00     0.127 A 
ATOM      7  C   UNL d   1       2.840   0.942   0.000  0.00  0.00     0.024 A 
ATOM      8  C   UNL d   1       2.840  -0.708   0.000  0.00  0.00     0.008 A 
ATOM      9  C   UNL d   1       3.564  -0.285   0.000  0.00  0.00     0.024 A 
ENDROOT
BRANCH   1  10
ATOM     10  C   UNL d   1       0.040   0.090   0.000  0.00  0.00     0.271 C 
ATOM     11  N   UNL d   1      -0.389   0.781   0.000  0.00  0.00    -0.272 N 
ATOM     12  C   UNL d   1       0.003   1.506   0.000  0.00  0.00     0.083 A 
ATOM     13  C   UNL d   1      -1.224   0.764   0.000  0.00  0.00     0.083 A 
ATOM     14  C   UNL d   1      -0.419   2.213   0.000  0.00  0.00     0.019 A 
ATOM     15  C   UNL d   1      -1.244   2.200   0.000  0.00  0.00     0.003 A 
ATOM     16  C   UNL d   1      -1.646   1.475   0.000  0.00  0.00     0.019 A 
ATOM     17  O   UNL d   1      -0.339  -0.644   0.000  0.00  0.00    -0.266 OA
ENDBRANCH   1  10
BRANCH   6  18
ATOM     18  N   UNL d   1       4.289   0.962   0.000  0.00  0.00    -0.114 N 
ATOM     19  O   UNL d   1       5.013   0.540   0.000  0.00  0.00    -0.532 OA
ATOM     20  O   UNL d   1       4.289   1.781   0.000  0.00  0.00    -0.532 OA
ENDBRANCH   6  18
TORSDOF 2
