REMARK  6 active torsions:
REMARK  status: ('A' for Active; 'I' for Inactive)
REMARK    1  A    between atoms: C_7  and  C_1 
REMARK    2  A    between atoms: C_10  and  C_2 
REMARK    3  A    between atoms: C_8  and  C_7 
REMARK    4  A    between atoms: C_9  and  C_8 
REMARK    5  A    between atoms: C_13  and  C_9 
REMARK    6  A    between atoms: O_20  and  C_16 
ROOT
ATOM      1  C   UNL d   1      -0.776   0.134   0.000  0.00  0.00     0.097 A 
ATOM      2  C   UNL d   1      -1.488  -0.282   0.000  0.00  0.00     0.009 A 
ATOM      3  C   UNL d   1      -0.776   0.954   0.000  0.00  0.00     0.282 A 
ATOM      4  C   UNL d   1      -2.201   0.134   0.000  0.00  0.00     0.019 A 
ATOM      5  N   UNL d   1      -1.488   1.366   0.000  0.00  0.00    -0.208 NA
ATOM      6  C   UNL d   1      -2.201   0.954   0.000  0.00  0.00     0.085 A 
ATOM      7  C   UNL d   1      -2.913  -0.282   0.000  0.00  0.00     0.013 A 
ATOM      8  O   UNL d   1      -0.030   1.347   0.000  0.00  0.00    -0.265 OA
ATOM      9  C   UNL d   1      -2.913   1.366   0.000  0.00  0.00     0.020 A 
ATOM     10  C   UNL d   1      -3.626   0.134   0.000  0.00  0.00     0.058 A 
ATOM     11  C   UNL d   1      -3.626   0.954   0.000  0.00  0.00     0.013 A 
ATOM     12 CL   UNL d   1      -4.361  -0.267   0.000  0.00  0.00    -0.082 Cl
ENDROOT
BRANCH   1  13
ATOM     13  C   UNL d   1      -0.030  -0.267   0.000  0.00  0.00     0.200 C 
ATOM     14  O   UNL d   1      -0.011  -1.084   0.000  0.00  0.00    -0.286 OA
BRANCH  13  15
ATOM     15  C   UNL d   1       0.668   0.174   0.000  0.00  0.00     0.042 C 
BRANCH  15  16
ATOM     16  C   UNL d   1       0.638   0.991   0.000  0.00  0.00     0.005 C 
BRANCH  16  17
ATOM     17  C   UNL d   1       1.336   1.421   0.000  0.00  0.00     0.022 A 
ATOM     18  C   UNL d   1       2.064   1.024   0.000  0.00  0.00     0.094 A 
ATOM     19  C   UNL d   1       2.776   1.455   0.000  0.00  0.00     0.024 A 
ATOM     20  C   UNL d   1       2.743   2.271   0.000  0.00  0.00     0.002 A 
ATOM     21  C   UNL d   1       2.008   2.691   0.000  0.00  0.00     0.000 A 
ATOM     22  C   UNL d   1       1.318   2.257   0.000  0.00  0.00     0.002 A 
BRANCH  18  23
ATOM     23  O   UNL d   1       2.097   0.189   0.000  0.00  0.00    -0.328 OA
ATOM     24  C   UNL d   1       2.810  -0.193   0.000  0.00  0.00     0.181 C 
ENDBRANCH  18  23
ENDBRANCH  16  17
ENDBRANCH  15  16
ENDBRANCH  13  15
ENDBRANCH   1  13
BRANCH   2  25
ATOM     25  C   UNL d   1      -1.488  -1.113   0.000  0.00  0.00     0.000 A 
ATOM     26  C   UNL d   1      -0.776  -1.514   0.000  0.00  0.00     0.000 A 
ATOM     27  C   UNL d   1      -0.776  -2.361   0.000  0.00  0.00     0.000 A 
ATOM     28  C   UNL d   1      -1.488  -2.761   0.000  0.00  0.00     0.000 A 
ATOM     29  C   UNL d   1      -2.182  -2.364   0.000  0.00  0.00     0.000 A 
ATOM     30  C   UNL d   1      -2.201  -1.529   0.000  0.00  0.00     0.000 A 
ENDBRANCH   2  25
TORSDOF 6
