REMARK  4 active torsions:
REMARK  status: ('A' for Active; 'I' for Inactive)
REMARK    1  A    between atoms: C_2  and  S_1 
REMARK    2  A    between atoms: N_3  and  S_1 
REMARK    3  A    between atoms: C_12  and  N_3 
REMARK    4  A    between atoms: N_4  and  C_8 
ROOT
ATOM      1  S   UNL d   1       2.406  -0.626   0.000  0.00  0.00     0.285 S 
ATOM      2  O   UNL d   1       2.120  -1.434   0.000  0.00  0.00    -0.198 OA
ATOM      3  O   UNL d   1       2.681   0.139   0.000  0.00  0.00    -0.198 OA
ENDROOT
BRANCH   1   4
ATOM      4  C   UNL d   1       1.641  -0.383   0.000  0.00  0.00     0.105 A 
ATOM      5  C   UNL d   1       1.008  -0.908   0.000  0.00  0.00     0.013 A 
ATOM      6  C   UNL d   1       0.219  -0.649   0.000  0.00  0.00     0.001 A 
ATOM      7  C   UNL d   1      -0.394  -1.195   0.000  0.00  0.00     0.000 A 
ATOM      8  C   UNL d   1       0.064   0.155   0.000  0.00  0.00     0.000 A 
ATOM      9  C   UNL d   1      -1.179  -0.936   0.000  0.00  0.00     0.000 A 
ATOM     10  C   UNL d   1      -1.339  -0.100   0.000  0.00  0.00     0.000 A 
ATOM     11  C   UNL d   1      -0.713   0.426   0.000  0.00  0.00     0.000 A 
ATOM     12  C   UNL d   1       0.697   0.701   0.000  0.00  0.00     0.001 A 
ATOM     13  C   UNL d   1       1.482   0.462   0.000  0.00  0.00     0.013 A 
ENDBRANCH   1   4
BRANCH   1  14
ATOM     14  N   UNL d   1       3.203  -0.912   0.000  0.00  0.00    -0.158 NA
BRANCH  14  15
ATOM     15  C   UNL d   1       3.829  -0.399   0.000  0.00  0.00     0.094 A 
ATOM     16  C   UNL d   1       3.729   0.414   0.000  0.00  0.00     0.021 A 
ATOM     17  C   UNL d   1       4.355   0.952   0.000  0.00  0.00     0.019 A 
ATOM     18  C   UNL d   1       5.144   0.641   0.000  0.00  0.00     0.064 A 
ATOM     19  C   UNL d   1       5.259  -0.171   0.000  0.00  0.00     0.019 A 
ATOM     20  C   UNL d   1       4.618  -0.717   0.000  0.00  0.00     0.021 A 
BRANCH  18  21
ATOM     21  N   UNL d   1       5.785   1.167   0.000  0.00  0.00    -0.300 N 
ATOM     22  C   UNL d   1       5.689   1.992   0.000  0.00  0.00     0.107 A 
ATOM     23  C   UNL d   1       6.327   2.498   0.000  0.00  0.00     0.142 A 
ATOM     24  O   UNL d   1       7.092   2.199   0.000  0.00  0.00    -0.300 OA
ATOM     25  C   UNL d   1       7.219   1.383   0.000  0.00  0.00     0.142 A 
ATOM     26  C   UNL d   1       6.566   0.857   0.000  0.00  0.00     0.107 A 
ENDBRANCH  18  21
ENDBRANCH  14  15
ENDBRANCH   1  14
TORSDOF 4
