REMARK  5 active torsions:
REMARK  status: ('A' for Active; 'I' for Inactive)
REMARK    1  A    between atoms: N_2  and  C_1 
REMARK    2  A    between atoms: C_4  and  C_8 
REMARK       I    between atoms: N_7  and  C_4 
REMARK    3  A    between atoms: C_9  and  C_6 
REMARK    4  A    between atoms: C_14  and  N_7 
REMARK    5  A    between atoms: C_8  and  C_9 
ROOT
ATOM      1  C   UNL d   1       0.303  -0.478   0.000  0.00  0.00     0.265 C 
ATOM      2  N   UNL d   1      -0.080   0.235   0.000  0.00  0.00    -0.272 N 
ATOM      3  O   UNL d   1      -0.096  -1.200   0.000  0.00  0.00    -0.267 OA
ATOM      4  C   UNL d   1       0.335   0.941   0.000  0.00  0.00     0.102 C 
ENDROOT
BRANCH   1   5
ATOM      5  C   UNL d   1       1.128  -0.482   0.000  0.00  0.00     0.062 C 
BRANCH   5   6
ATOM      6  C   UNL d   1       1.534   0.259   0.000  0.00  0.00     0.011 C 
BRANCH   6   7
ATOM      7  C   UNL d   1       2.391   0.287   0.000  0.00  0.00     0.031 A 
ATOM      8  S   UNL d   1       2.897  -0.351   0.000  0.00  0.00    -0.064 SA
ATOM      9  C   UNL d   1       3.683  -0.084   0.000  0.00  0.00     0.156 A 
ATOM     10  C   UNL d   1       3.639   0.749   0.000  0.00  0.00     0.031 A 
ATOM     11  C   UNL d   1       2.869   0.957   0.000  0.00  0.00     0.009 A 
BRANCH   9  12
ATOM     12  N   UNL d   1       4.380  -0.530   0.000  0.00  0.00    -0.107 N 
ATOM     13  O   UNL d   1       4.352  -1.391   0.000  0.00  0.00    -0.531 OA
ATOM     14  O   UNL d   1       5.165  -0.191   0.000  0.00  0.00    -0.531 OA
ENDBRANCH   9  12
ENDBRANCH   6   7
ENDBRANCH   5   6
ENDBRANCH   1   5
BRANCH   2  15
ATOM     15  C   UNL d   1      -0.905   0.251   0.000  0.00  0.00     0.067 A 
ATOM     16  C   UNL d   1      -1.303   0.957   0.000  0.00  0.00     0.018 A 
ATOM     17  C   UNL d   1      -2.124   0.941   0.000  0.00  0.00     0.002 A 
ATOM     18  C   UNL d   1      -2.547   0.235   0.000  0.00  0.00     0.000 A 
ATOM     19  C   UNL d   1      -2.104  -0.482   0.000  0.00  0.00     0.002 A 
ATOM     20  C   UNL d   1      -1.303  -0.478   0.000  0.00  0.00     0.018 A 
ENDBRANCH   2  15
TORSDOF 5
