REMARK  4 active torsions:
REMARK  status: ('A' for Active; 'I' for Inactive)
REMARK    1  A    between atoms: N_4  and  C_1 
REMARK       I    between atoms: C_6  and  N_4 
REMARK    2  A    between atoms: C_10  and  C_6 
REMARK    3  A    between atoms: C_8  and  C_11 
REMARK    4  A    between atoms: C_11  and  C_10 
ROOT
ATOM      1  N   UNL d   1       0.533   1.066   0.000  0.00  0.00    -0.187 NA
ATOM      2  C   UNL d   1       0.933   0.342   0.000  0.00  0.00     0.281 C 
ATOM      3  O   UNL d   1       0.533  -0.400   0.000  0.00  0.00    -0.265 OA
ENDROOT
BRANCH   2   4
ATOM      4  C   UNL d   1       1.800   0.342   0.000  0.00  0.00     0.063 C 
BRANCH   4   5
ATOM      5  C   UNL d   1       2.199  -0.400   0.000  0.00  0.00     0.011 C 
BRANCH   5   6
ATOM      6  C   UNL d   1       3.007  -0.400   0.000  0.00  0.00     0.030 A 
ATOM      7  S   UNL d   1       3.457  -1.033   0.000  0.00  0.00    -0.086 SA
ATOM      8  C   UNL d   1       4.257  -0.833   0.000  0.00  0.00     0.035 A 
ATOM      9  C   UNL d   1       4.299  -0.033   0.000  0.00  0.00     0.007 A 
ATOM     10  C   UNL d   1       3.532   0.267   0.000  0.00  0.00     0.007 A 
ENDBRANCH   5   6
ENDBRANCH   4   5
ENDBRANCH   2   4
BRANCH   1  11
ATOM     11  C   UNL d   1      -0.291   1.066   0.000  0.00  0.00     0.194 A 
ATOM     12  N   UNL d   1      -0.841   0.467   0.000  0.00  0.00    -0.107 NA
ATOM     13  O   UNL d   1      -1.566   0.791   0.000  0.00  0.00    -0.210 OA
ATOM     14  C   UNL d   1      -1.524   1.625   0.000  0.00  0.00     0.128 A 
ATOM     15  C   UNL d   1      -0.725   1.791   0.000  0.00  0.00     0.068 A 
ATOM     16  C   UNL d   1      -2.124   2.191   0.000  0.00  0.00     0.029 C 
ENDBRANCH   1  11
TORSDOF 4
