REMARK  5 active torsions:
REMARK  status: ('A' for Active; 'I' for Inactive)
REMARK    1  A    between atoms: N_2  and  C_1 
REMARK       I    between atoms: N_4  and  C_5 
REMARK    2  A    between atoms: C_5  and  C_9 
REMARK    3  A    between atoms: C_18  and  N_6 
REMARK    4  A    between atoms: C_10  and  C_8 
REMARK    5  A    between atoms: C_9  and  C_10 
ROOT
ATOM      1  N   UNL d   1       0.095   0.322   0.000  0.00  0.00    -0.269 N 
ATOM      2  C   UNL d   1       0.733  -0.227   0.000  0.00  0.00     0.265 C 
ATOM      3  N   UNL d   1      -1.181   1.361   0.000  0.00  0.00    -0.301 N 
ATOM      4  C   UNL d   1       0.227   1.137   0.000  0.00  0.00     0.102 A 
ATOM      5  C   UNL d   1      -0.679   0.027   0.000  0.00  0.00     0.102 A 
ATOM      6  C   UNL d   1      -0.404   1.656   0.000  0.00  0.00     0.100 A 
ATOM      7  C   UNL d   1      -1.330   0.546   0.000  0.00  0.00     0.100 A 
ATOM      8  O   UNL d   1       0.584  -1.042   0.000  0.00  0.00    -0.267 OA
ENDROOT
BRANCH   2   9
ATOM      9  C   UNL d   1       1.510   0.058   0.000  0.00  0.00     0.062 C 
BRANCH   9  10
ATOM     10  C   UNL d   1       1.669   0.872   0.000  0.00  0.00     0.011 C 
BRANCH  10  11
ATOM     11  C   UNL d   1       2.443   1.167   0.000  0.00  0.00     0.031 A 
ATOM     12  S   UNL d   1       3.176   0.774   0.000  0.00  0.00    -0.064 SA
ATOM     13  C   UNL d   1       3.760   1.361   0.000  0.00  0.00     0.156 A 
ATOM     14  C   UNL d   1       3.403   2.076   0.000  0.00  0.00     0.031 A 
ATOM     15  C   UNL d   1       2.589   1.982   0.000  0.00  0.00     0.009 A 
BRANCH  13  16
ATOM     16  N   UNL d   1       4.601   1.249   0.000  0.00  0.00    -0.107 N 
ATOM     17  O   UNL d   1       4.899   0.485   0.000  0.00  0.00    -0.531 OA
ATOM     18  O   UNL d   1       5.093   1.914   0.000  0.00  0.00    -0.531 OA
ENDBRANCH  13  16
ENDBRANCH  10  11
ENDBRANCH   9  10
ENDBRANCH   2   9
BRANCH   3  19
ATOM     19  C   UNL d   1      -1.819   1.883   0.000  0.00  0.00     0.064 A 
ATOM     20  C   UNL d   1      -2.582   1.595   0.000  0.00  0.00     0.018 A 
ATOM     21  C   UNL d   1      -3.233   2.127   0.000  0.00  0.00     0.002 A 
ATOM     22  C   UNL d   1      -3.091   2.928   0.000  0.00  0.00     0.000 A 
ATOM     23  C   UNL d   1      -2.321   3.223   0.000  0.00  0.00     0.002 A 
ATOM     24  C   UNL d   1      -1.686   2.697   0.000  0.00  0.00     0.018 A 
ENDBRANCH   3  19
TORSDOF 5
