REMARK  3 active torsions:
REMARK  status: ('A' for Active; 'I' for Inactive)
REMARK    1  A    between atoms: C_6  and  C_1 
REMARK    2  A    between atoms: O_2  and  C_6 
REMARK    3  A    between atoms: C_3  and  O_2 
ROOT
ATOM      1  C   UNL d   1      -0.641   1.710   0.000  0.00  0.00     0.134 A 
ATOM      2  C   UNL d   1      -0.641   0.885   0.000  0.00  0.00     0.218 A 
ATOM      3  O   UNL d   1       0.071   0.469   0.000  0.00  0.00    -0.284 OA
ATOM      4  C   UNL d   1      -1.346   2.126   0.000  0.00  0.00     0.028 A 
ATOM      5  C   UNL d   1      -1.346   0.469   0.000  0.00  0.00     0.044 A 
ATOM      6  C   UNL d   1      -2.066   0.885   0.000  0.00  0.00     0.003 A 
ATOM      7  C   UNL d   1      -2.066   1.710   0.000  0.00  0.00     0.002 A 
ENDROOT
BRANCH   1   8
ATOM      8  O   UNL d   1       0.071   2.126   0.000  0.00  0.00    -0.316 OA
BRANCH   8   9
ATOM      9  C   UNL d   1       0.791   1.710   0.000  0.00  0.00     0.246 C 
BRANCH   9  10
ATOM     10  C   UNL d   1       1.500   2.126   0.000  0.00  0.00     0.217 C 
ATOM     11  O   UNL d   1       1.511   2.944   0.000  0.00  0.00    -0.645 OA
ATOM     12  O   UNL d   1       2.231   1.751   0.000  0.00  0.00    -0.645 OA
ENDBRANCH   9  10
ENDBRANCH   8   9
ENDBRANCH   1   8
TORSDOF 3
