REMARK  6 active torsions:
REMARK  status: ('A' for Active; 'I' for Inactive)
REMARK    1  A    between atoms: N_2  and  S_1 
REMARK    2  A    between atoms: C_6  and  S_1 
REMARK    3  A    between atoms: C_4  and  N_2 
REMARK    4  A    between atoms: C_5  and  C_3 
REMARK    5  A    between atoms: O_12  and  C_5 
REMARK    6  A    between atoms: C_18  and  O_12 
ROOT
ATOM      1  C   UNL d   1      -0.656   1.585   0.000  0.00  0.00     0.082 A 
ATOM      2  C   UNL d   1      -0.656   0.766   0.000  0.00  0.00     0.099 A 
ATOM      3  C   UNL d   1      -1.372   1.996   0.000  0.00  0.00     0.007 A 
ATOM      4  C   UNL d   1      -1.372   0.358   0.000  0.00  0.00     0.020 A 
ATOM      5  C   UNL d   1      -2.084   1.585   0.000  0.00  0.00     0.000 A 
ATOM      6  C   UNL d   1      -2.084   0.766   0.000  0.00  0.00     0.002 A 
ENDROOT
BRANCH   2   7
ATOM      7  N   UNL d   1       0.067   0.340   0.000  0.00  0.00    -0.158 NA
BRANCH   7   8
ATOM      8  S   UNL d   1       0.046  -0.482   0.000  0.00  0.00     0.285 S 
ATOM      9  O   UNL d   1       0.893  -0.510   0.000  0.00  0.00    -0.198 OA
ATOM     10  O   UNL d   1      -0.776  -0.482   0.000  0.00  0.00    -0.198 OA
BRANCH   8  11
ATOM     11  C   UNL d   1       0.046  -1.319   0.000  0.00  0.00     0.105 A 
ATOM     12  C   UNL d   1      -0.677  -1.726   0.000  0.00  0.00     0.013 A 
ATOM     13  C   UNL d   1      -0.677  -2.552   0.000  0.00  0.00     0.001 A 
ATOM     14  C   UNL d   1       0.046  -2.949   0.000  0.00  0.00     0.000 A 
ATOM     15  C   UNL d   1       0.766  -2.552   0.000  0.00  0.00     0.001 A 
ATOM     16  C   UNL d   1       0.067  -3.775   0.000  0.00  0.00     0.000 C 
ATOM     17  C   UNL d   1       0.766  -1.726   0.000  0.00  0.00     0.013 A 
ENDBRANCH   8  11
ENDBRANCH   7   8
ENDBRANCH   2   7
BRANCH   1  18
ATOM     18  C   UNL d   1       0.085   2.010   0.000  0.00  0.00     0.302 C 
ATOM     19  O   UNL d   1       0.085   2.825   0.000  0.00  0.00    -0.259 OA
BRANCH  18  20
ATOM     20  O   UNL d   1       0.808   1.602   0.000  0.00  0.00    -0.271 OA
BRANCH  20  21
ATOM     21  C   UNL d   1       0.808   0.766   0.000  0.00  0.00     0.126 C 
ATOM     22  C   UNL d   1       1.514   0.358   0.000  0.00  0.00     0.029 C 
ENDBRANCH  20  21
ENDBRANCH  18  20
ENDBRANCH   1  18
TORSDOF 6
