REMARK  1 active torsions:
REMARK  status: ('A' for Active; 'I' for Inactive)
REMARK    1  A    between atoms: C_6  and  C_1 
ROOT
ATOM      1  C   UNL d   1      -1.369  -0.093   0.000  0.00  0.00     0.168 A 
ATOM      2  N   UNL d   1      -1.101  -0.893   0.000  0.00  0.00    -0.142 NA
ATOM      3  C   UNL d   1      -2.187  -0.093   0.000  0.00  0.00     0.045 A 
ATOM      4  N   UNL d   1      -1.782  -1.384   0.000  0.00  0.00    -0.148 NA
ATOM      5  C   UNL d   1      -2.455  -0.893   0.000  0.00  0.00     0.105 A 
ATOM      6  C   UNL d   1      -2.853   0.387   0.000  0.00  0.00     0.003 A 
ATOM      7  C   UNL d   1      -3.288  -0.893   0.000  0.00  0.00     0.021 A 
ATOM      8  C   UNL d   1      -3.534  -0.071   0.000  0.00  0.00     0.002 A 
ENDROOT
BRANCH   1   9
ATOM      9  C   UNL d   1      -0.893   0.565   0.000  0.00  0.00     0.231 C 
ATOM     10  O   UNL d   1      -1.216   1.324   0.000  0.00  0.00    -0.643 OA
ATOM     11  O   UNL d   1      -0.063   0.532   0.000  0.00  0.00    -0.643 OA
ENDBRANCH   1   9
TORSDOF 1
