REMARK  6 active torsions:
REMARK  status: ('A' for Active; 'I' for Inactive)
REMARK    1  A    between atoms: N_8  and  C_2 
REMARK    2  A    between atoms: N_7  and  C_3 
REMARK    3  A    between atoms: N_10  and  C_6 
REMARK    4  A    between atoms: C_9  and  N_11 
REMARK    5  A    between atoms: N_13  and  C_9 
REMARK    6  A    between atoms: N_11  and  N_10 
ROOT
ATOM      1  N   UNL d   1      -0.573  -1.985   0.000  0.00  0.00     0.133 NA
ATOM      2  C   UNL d   1       0.115  -1.595   0.000  0.00  0.00     0.766 A 
ATOM      3  C   UNL d   1      -1.288  -1.595   0.000  0.00  0.00     0.766 A 
ATOM      4  N   UNL d   1      -1.288  -0.770   0.000  0.00  0.00     0.135 NA
ATOM      5  N   UNL d   1       0.115  -0.733   0.000  0.00  0.00     0.135 NA
ATOM      6  C   UNL d   1      -0.587  -0.330   0.000  0.00  0.00     0.798 A 
ENDROOT
BRANCH   2   7
ATOM      7  N   UNL d   1       0.830  -1.985   0.000  0.00  0.00    -0.132 N 
ATOM      8  C   UNL d   1       0.830  -2.810   0.000  0.00  0.00     0.125 A 
ATOM      9  C   UNL d   1       1.545  -3.222   0.000  0.00  0.00     0.142 A 
ATOM     10  O   UNL d   1       2.260  -2.810   0.000  0.00  0.00    -0.300 OA
ATOM     11  C   UNL d   1       2.260  -1.985   0.000  0.00  0.00     0.142 A 
ATOM     12  C   UNL d   1       1.545  -1.572   0.000  0.00  0.00     0.125 A 
ENDBRANCH   2   7
BRANCH   3  13
ATOM     13  N   UNL d   1      -2.003  -1.985   0.000  0.00  0.00    -0.132 N 
ATOM     14  C   UNL d   1      -2.718  -1.595   0.000  0.00  0.00     0.125 A 
ATOM     15  C   UNL d   1      -3.433  -1.985   0.000  0.00  0.00     0.142 A 
ATOM     16  O   UNL d   1      -3.433  -2.810   0.000  0.00  0.00    -0.300 OA
ATOM     17  C   UNL d   1      -2.718  -3.245   0.000  0.00  0.00     0.142 A 
ATOM     18  C   UNL d   1      -2.003  -2.810   0.000  0.00  0.00     0.125 A 
ENDBRANCH   3  13
BRANCH   6  19
ATOM     19  N   UNL d   1      -0.587   0.477   0.000  0.00  0.00     0.050 NA
BRANCH  19  20
ATOM     20  N   UNL d   1       0.110   0.894   0.000  0.00  0.00    -0.101 NA
BRANCH  20  21
ATOM     21  C   UNL d   1       0.110   1.719   0.000  0.00  0.00     0.241 C 
ATOM     22  S   UNL d   1       0.802   2.140   0.000  0.00  0.00    -0.035 SA
BRANCH  21  23
ATOM     23  N   UNL d   1      -0.605   2.127   0.000  0.00  0.00    -0.213 NA
ATOM     24  C   UNL d   1      -0.619   2.952   0.000  0.00  0.00     0.122 C 
ENDBRANCH  21  23
ENDBRANCH  20  21
ENDBRANCH  19  20
ENDBRANCH   6  19
TORSDOF 6
