REMARK  3 active torsions:
REMARK  status: ('A' for Active; 'I' for Inactive)
REMARK    1  A    between atoms: C_10  and  C_4 
REMARK    2  A    between atoms: C_11  and  C_6 
REMARK    3  A    between atoms: C_12  and  C_9 
ROOT
ATOM      1  N   UNL d   1      -1.106   2.017   0.000  0.00  0.00    -0.212 N 
ATOM      2  C   UNL d   1      -1.106   1.184   0.000  0.00  0.00     0.166 A 
ATOM      3  N   UNL d   1      -0.323   2.276   0.000  0.00  0.00    -0.158 NA
ATOM      4  C   UNL d   1       0.164   1.598   0.000  0.00  0.00     0.169 A 
ATOM      5  C   UNL d   1      -0.323   0.942   0.000  0.00  0.00     0.066 A 
ATOM      6  C   UNL d   1      -1.825   2.426   0.000  0.00  0.00     0.086 A 
ATOM      7  N   UNL d   1      -1.825   0.765   0.000  0.00  0.00    -0.227 NA
ATOM      8  C   UNL d   1      -2.549   2.017   0.000  0.00  0.00     0.038 A 
ATOM      9  C   UNL d   1      -2.549   1.184   0.000  0.00  0.00     0.085 A 
ENDROOT
BRANCH   6  10
ATOM     10  C   UNL d   1      -2.003   3.237   0.000  0.00  0.00     0.018 A 
ATOM     11  C   UNL d   1      -1.388   3.783   0.000  0.00  0.00     0.002 A 
ATOM     12  C   UNL d   1      -1.543   4.539   0.000  0.00  0.00     0.000 A 
ATOM     13  C   UNL d   1      -2.349   4.825   0.000  0.00  0.00     0.000 A 
ATOM     14  C   UNL d   1      -2.964   4.311   0.000  0.00  0.00     0.000 A 
ATOM     15  C   UNL d   1      -2.786   3.505   0.000  0.00  0.00     0.002 A 
ENDBRANCH   6  10
BRANCH   9  16
ATOM     16  C   UNL d   1      -3.246   0.765   0.000  0.00  0.00     0.018 A 
ATOM     17  C   UNL d   1      -3.246  -0.055   0.000  0.00  0.00     0.002 A 
ATOM     18  C   UNL d   1      -3.947  -0.455   0.000  0.00  0.00     0.000 A 
ATOM     19  C   UNL d   1      -4.693  -0.055   0.000  0.00  0.00     0.000 A 
ATOM     20  C   UNL d   1      -4.693   0.765   0.000  0.00  0.00     0.000 A 
ATOM     21  C   UNL d   1      -3.970   1.184   0.000  0.00  0.00     0.002 A 
ENDBRANCH   9  16
BRANCH   4  22
ATOM     22  C   UNL d   1       0.983   1.598   0.000  0.00  0.00     0.231 C 
ATOM     23  O   UNL d   1       1.384   2.317   0.000  0.00  0.00    -0.643 OA
ATOM     24  O   UNL d   1       1.384   0.874   0.000  0.00  0.00    -0.643 OA
ENDBRANCH   4  22
TORSDOF 3
