REMARK  5 active torsions:
REMARK  status: ('A' for Active; 'I' for Inactive)
REMARK    1  A    between atoms: N_2  and  S_1 
REMARK    2  A    between atoms: C_3  and  S_1 
REMARK    3  A    between atoms: C_13  and  N_2 
REMARK       I    between atoms: C_6  and  N_7 
REMARK    4  A    between atoms: N_7  and  C_14 
REMARK    5  A    between atoms: C_12  and  C_13 
ROOT
ATOM      1  S   UNL d   1      -0.495   0.644   0.000  0.00  0.00     0.285 S 
ATOM      2  O   UNL d   1      -0.800  -0.127   0.000  0.00  0.00    -0.198 OA
ATOM      3  O   UNL d   1      -0.206   1.435   0.000  0.00  0.00    -0.198 OA
ENDROOT
BRANCH   1   4
ATOM      4  N   UNL d   1       0.270   0.352   0.000  0.00  0.00    -0.157 NA
BRANCH   4   5
ATOM      5  C   UNL d   1       0.914   0.886   0.000  0.00  0.00     0.114 C 
BRANCH   5   6
ATOM      6  C   UNL d   1       1.670   0.581   0.000  0.00  0.00     0.039 A 
ATOM      7  C   UNL d   1       1.803  -0.229   0.000  0.00  0.00     0.101 A 
ATOM      8  N   UNL d   1       2.591  -0.508   0.000  0.00  0.00    -0.242 NA
ATOM      9  C   UNL d   1       3.238   0.016   0.000  0.00  0.00     0.099 A 
ATOM     10  C   UNL d   1       3.089   0.838   0.000  0.00  0.00     0.021 A 
ATOM     11  C   UNL d   1       2.324   1.114   0.000  0.00  0.00     0.005 A 
ENDBRANCH   5   6
ENDBRANCH   4   5
ENDBRANCH   1   4
BRANCH   1  12
ATOM     12  C   UNL d   1      -1.292   0.949   0.000  0.00  0.00     0.105 A 
ATOM     13  C   UNL d   1      -1.425   1.768   0.000  0.00  0.00     0.015 A 
ATOM     14  C   UNL d   1      -2.187   2.064   0.000  0.00  0.00     0.020 A 
ATOM     15  C   UNL d   1      -2.829   1.524   0.000  0.00  0.00     0.085 A 
ATOM     16  C   UNL d   1      -2.692   0.721   0.000  0.00  0.00     0.020 A 
ATOM     17  C   UNL d   1      -1.914   0.429   0.000  0.00  0.00     0.015 A 
BRANCH  15  18
ATOM     18  N   UNL d   1      -3.619   1.816   0.000  0.00  0.00    -0.208 NA
ATOM     19  C   UNL d   1      -4.264   1.267   0.000  0.00  0.00     0.279 C 
ATOM     20  O   UNL d   1      -4.111   0.445   0.000  0.00  0.00    -0.265 OA
ATOM     21  C   UNL d   1      -5.023   1.540   0.000  0.00  0.00     0.068 C 
ENDBRANCH  15  18
ENDBRANCH   1  12
TORSDOF 5
