REMARK  2 active torsions:
REMARK  status: ('A' for Active; 'I' for Inactive)
REMARK    1  A    between atoms: C_5  and  CA_2 
REMARK    2  A    between atoms: C_4  and  CA_3 
ROOT
ATOM      1  N   UNL d   1       0.089  -0.341   0.000  0.00  0.00    -0.233 NA
ATOM      2  CA  UNL d   1      -0.628   0.067   0.000  0.00  0.00     0.146 A 
ATOM      3  CA  UNL d   1       0.801   0.067   0.000  0.00  0.00     0.146 A 
ATOM      4  C   UNL d   1       0.801   0.899   0.000  0.00  0.00     0.025 A 
ATOM      5  C   UNL d   1      -0.628   0.899   0.000  0.00  0.00     0.025 A 
ATOM      6  C   UNL d   1       0.089   1.316   0.000  0.00  0.00     0.004 A 
ENDROOT
BRANCH   2   7
ATOM      7  C   UNL d   1      -1.344  -0.341   0.000  0.00  0.00     0.229 C 
ATOM      8  O   UNL d   1      -1.355  -1.164   0.000  0.00  0.00    -0.643 OA
ATOM      9  OXT UNL d   1      -2.074   0.043   0.000  0.00  0.00    -0.643 OA
ENDBRANCH   2   7
BRANCH   3  10
ATOM     10  C   UNL d   1       1.513  -0.341   0.000  0.00  0.00     0.229 C 
ATOM     11  O   UNL d   1       2.237   0.043   0.000  0.00  0.00    -0.643 OA
ATOM     12  OXT UNL d   1       1.537  -1.179   0.000  0.00  0.00    -0.643 OA
ENDBRANCH   3  10
TORSDOF 2
