REMARK  5 active torsions:
REMARK  status: ('A' for Active; 'I' for Inactive)
REMARK    1  A    between atoms: C_2  and  C_1 
REMARK    2  A    between atoms: C_3  and  C_2 
REMARK    3  A    between atoms: C_6  and  C_3 
REMARK    4  A    between atoms: O_15  and  C_12 
REMARK    5  A    between atoms: O_14  and  C_13 
ROOT
ATOM      1  C   UNL d   1      -1.702   0.000   0.000  0.00  0.00     0.143 C 
ATOM      2  C   UNL d   1      -0.872  -0.125   0.000  0.00  0.00     0.107 C 
ATOM      3  N   UNL d   1      -0.047  -0.237   0.000  0.00  0.00    -0.191 NA
ENDROOT
BRANCH   1   4
ATOM      4  C   UNL d   1      -2.011   0.777   0.000  0.00  0.00     0.175 A 
ATOM      5  N   UNL d   1      -1.613   1.489   0.000  0.00  0.00    -0.225 NA
ATOM      6  C   UNL d   1      -2.129   2.082   0.000  0.00  0.00     0.101 A 
ATOM      7  C   UNL d   1      -2.040   2.877   0.000  0.00  0.00     0.021 A 
ATOM      8  C   UNL d   1      -2.894   1.774   0.000  0.00  0.00     0.101 A 
ATOM      9  C   UNL d   1      -2.699   3.393   0.000  0.00  0.00     0.002 A 
ATOM     10  C   UNL d   1      -3.434   3.055   0.000  0.00  0.00     0.002 A 
ATOM     11  C   UNL d   1      -3.517   2.254   0.000  0.00  0.00     0.021 A 
ATOM     12  N   UNL d   1      -2.805   0.943   0.000  0.00  0.00    -0.225 NA
ENDBRANCH   1   4
BRANCH   1  13
ATOM     13  C   UNL d   1      -2.183  -0.664   0.000  0.00  0.00     0.212 C 
ATOM     14  O   UNL d   1      -3.007  -0.569   0.000  0.00  0.00    -0.286 OA
BRANCH  13  15
ATOM     15  C   UNL d   1      -1.868  -1.423   0.000  0.00  0.00     0.084 A 
ATOM     16  C   UNL d   1      -2.378  -2.064   0.000  0.00  0.00     0.099 A 
ATOM     17  C   UNL d   1      -2.064  -2.847   0.000  0.00  0.00     0.024 A 
ATOM     18  C   UNL d   1      -1.240  -2.942   0.000  0.00  0.00     0.004 A 
ATOM     19  C   UNL d   1      -0.730  -2.284   0.000  0.00  0.00     0.024 A 
ATOM     20  C   UNL d   1      -1.068  -1.518   0.000  0.00  0.00     0.099 A 
BRANCH  16  21
ATOM     21  O   UNL d   1      -3.203  -1.993   0.000  0.00  0.00    -0.328 OA
ATOM     22  C   UNL d   1      -3.553  -1.234   0.000  0.00  0.00     0.181 C 
ENDBRANCH  16  21
BRANCH  20  23
ATOM     23  O   UNL d   1      -0.563  -0.860   0.000  0.00  0.00    -0.328 OA
ATOM     24  C   UNL d   1       0.255  -0.949   0.000  0.00  0.00     0.181 C 
ENDBRANCH  20  23
ENDBRANCH  13  15
ENDBRANCH   1  13
TORSDOF 5
