REMARK  3 active torsions:
REMARK  status: ('A' for Active; 'I' for Inactive)
REMARK    1  A    between atoms: N_4  and  C_8 
REMARK    2  A    between atoms: N_12  and  C_6 
REMARK       I    between atoms: C_11  and  N_12 
REMARK    3  A    between atoms: C_14  and  C_11 
ROOT
ATOM      1  C   UNL d   1       3.119  -1.460   0.000  0.00  0.00     0.279 C 
ATOM      2  N   UNL d   1       2.714  -0.777   0.000  0.00  0.00    -0.208 NA
ATOM      3  O   UNL d   1       2.714  -2.207   0.000  0.00  0.00    -0.265 OA
ENDROOT
BRANCH   1   4
ATOM      4  C   UNL d   1       3.942  -1.460   0.000  0.00  0.00     0.059 A 
ATOM      5  C   UNL d   1       4.368  -0.747   0.000  0.00  0.00     0.022 A 
ATOM      6  C   UNL d   1       5.191  -0.760   0.000  0.00  0.00     0.070 A 
ATOM      7  C   UNL d   1       5.626  -1.418   0.000  0.00  0.00     0.018 A 
ATOM      8  C   UNL d   1       5.246  -2.140   0.000  0.00  0.00     0.002 A 
ATOM      9  C   UNL d   1       4.410  -2.203   0.000  0.00  0.00     0.005 A 
BRANCH   6  10
ATOM     10  N   UNL d   1       5.613  -0.004   0.000  0.00  0.00    -0.242 N 
ATOM     11  C   UNL d   1       5.191   0.705   0.000  0.00  0.00     0.267 A 
ATOM     12  C   UNL d   1       5.748   1.312   0.000  0.00  0.00     0.066 A 
ATOM     13  O   UNL d   1       4.309   0.772   0.000  0.00  0.00    -0.267 OA
ATOM     14  C   UNL d   1       6.483   1.000   0.000  0.00  0.00     0.066 A 
ATOM     15  C   UNL d   1       6.411   0.165   0.000  0.00  0.00     0.267 A 
ATOM     16  O   UNL d   1       7.031  -0.422   0.000  0.00  0.00    -0.267 OA
ENDBRANCH   6  10
ENDBRANCH   1   4
BRANCH   2  17
ATOM     17  C   UNL d   1       1.861  -0.777   0.000  0.00  0.00     0.089 A 
ATOM     18  C   UNL d   1       1.422  -0.080   0.000  0.00  0.00     0.080 A 
ATOM     19  C   UNL d   1       1.663   0.734   0.000  0.00  0.00     0.283 A 
ATOM     20  C   UNL d   1       0.549  -0.080   0.000  0.00  0.00     0.064 A 
ATOM     21  N   UNL d   1       0.979   1.203   0.000  0.00  0.00    -0.169 NA
ATOM     22  O   UNL d   1       2.473   1.034   0.000  0.00  0.00    -0.265 OA
ATOM     23  C   UNL d   1       0.295   0.705   0.000  0.00  0.00     0.282 A 
ATOM     24  O   UNL d   1      -0.527   0.945   0.000  0.00  0.00    -0.265 OA
ATOM     25  C   UNL d   1       0.169  -0.802   0.000  0.00  0.00     0.005 A 
ATOM     26  C   UNL d   1       0.582  -1.498   0.000  0.00  0.00     0.002 A 
ATOM     27  C   UNL d   1       1.448  -1.511   0.000  0.00  0.00     0.019 A 
ENDBRANCH   2  17
TORSDOF 3
