REMARK  6 active torsions:
REMARK  status: ('A' for Active; 'I' for Inactive)
REMARK    1  A    between atoms: C_8  and  C_1 
REMARK    2  A    between atoms: N_7  and  C_2 
REMARK    3  A    between atoms: C_10  and  C_4 
REMARK       I    between atoms: C_6  and  N_7 
REMARK       I    between atoms: N_9  and  C_6 
REMARK    4  A    between atoms: O_13  and  C_8 
REMARK    5  A    between atoms: C_14  and  N_9 
REMARK    6  A    between atoms: C_17  and  O_13 
ROOT
ATOM      1  C   UNL d   1       0.971   0.206   0.000  0.00  0.00     0.111 A 
ATOM      2  C   UNL d   1       1.460   0.858   0.000  0.00  0.00     0.098 A 
ATOM      3  S   UNL d   1       0.198   0.485   0.000  0.00  0.00    -0.080 SA
ATOM      4  C   UNL d   1       0.223   1.307   0.000  0.00  0.00     0.031 A 
ATOM      5  C   UNL d   1       1.019   1.537   0.000  0.00  0.00     0.026 A 
ENDROOT
BRANCH   2   6
ATOM      6  N   UNL d   1       2.282   0.789   0.000  0.00  0.00    -0.190 NA
ATOM      7  C   UNL d   1       2.735   1.452   0.000  0.00  0.00     0.369 C 
ATOM      8  N   UNL d   1       3.560   1.404   0.000  0.00  0.00    -0.191 NA
ATOM      9  O   UNL d   1       2.371   2.184   0.000  0.00  0.00    -0.242 OA
BRANCH   8  10
ATOM     10  C   UNL d   1       4.029   2.099   0.000  0.00  0.00     0.086 A 
ATOM     11  C   UNL d   1       3.641   2.836   0.000  0.00  0.00     0.019 A 
ATOM     12  C   UNL d   1       4.094   3.515   0.000  0.00  0.00     0.002 A 
ATOM     13  C   UNL d   1       4.919   3.467   0.000  0.00  0.00     0.000 A 
ATOM     14  C   UNL d   1       5.295   2.739   0.000  0.00  0.00     0.002 A 
ATOM     15  C   UNL d   1       4.854   2.059   0.000  0.00  0.00     0.019 A 
ENDBRANCH   8  10
ENDBRANCH   2   6
BRANCH   1  16
ATOM     16  C   UNL d   1       1.214  -0.599   0.000  0.00  0.00     0.308 C 
ATOM     17  O   UNL d   1       0.659  -1.214   0.000  0.00  0.00    -0.258 OA
BRANCH  16  18
ATOM     18  O   UNL d   1       2.006  -0.781   0.000  0.00  0.00    -0.271 OA
BRANCH  18  19
ATOM     19  C   UNL d   1       2.249  -1.602   0.000  0.00  0.00     0.126 C 
ATOM     20  C   UNL d   1       3.087  -1.764   0.000  0.00  0.00     0.029 C 
ENDBRANCH  18  19
ENDBRANCH  16  18
ENDBRANCH   1  16
BRANCH   4  21
ATOM     21  C   UNL d   1      -0.469   1.731   0.000  0.00  0.00     0.006 A 
ATOM     22  C   UNL d   1      -1.214   1.343   0.000  0.00  0.00     0.001 A 
ATOM     23  C   UNL d   1      -1.913   1.780   0.000  0.00  0.00     0.000 A 
ATOM     24  C   UNL d   1      -1.893   2.573   0.000  0.00  0.00     0.000 A 
ATOM     25  C   UNL d   1      -1.137   2.994   0.000  0.00  0.00     0.000 A 
ATOM     26  C   UNL d   1      -0.449   2.557   0.000  0.00  0.00     0.001 A 
ENDBRANCH   4  21
TORSDOF 6
