REMARK  4 active torsions:
REMARK  status: ('A' for Active; 'I' for Inactive)
REMARK    1  A    between atoms: C_8  and  C_1 
REMARK    2  A    between atoms: C_6  and  C_16 
REMARK    3  A    between atoms: O_13  and  C_8 
REMARK    4  A    between atoms: C_16  and  O_13 
ROOT
ATOM      1  C   UNL d   1       2.762  -1.170   0.000  0.00  0.00     0.305 C 
ATOM      2  O   UNL d   1       2.918  -1.994   0.000  0.00  0.00    -0.259 OA
ENDROOT
BRANCH   1   3
ATOM      3  C   UNL d   1       3.411  -0.587   0.000  0.00  0.00     0.127 A 
ATOM      4  C   UNL d   1       4.207  -0.853   0.000  0.00  0.00     0.305 A 
ATOM      5  O   UNL d   1       4.780  -0.284   0.000  0.00  0.00    -0.273 OA
ATOM      6  O   UNL d   1       4.396  -1.653   0.000  0.00  0.00    -0.259 OA
ATOM      7  C   UNL d   1       4.604   0.507   0.000  0.00  0.00     0.103 A 
ATOM      8  C   UNL d   1       3.809   0.753   0.000  0.00  0.00     0.023 A 
ATOM      9  C   UNL d   1       5.178   1.080   0.000  0.00  0.00     0.025 A 
ATOM     10  C   UNL d   1       3.202   0.185   0.000  0.00  0.00     0.013 A 
ATOM     11  C   UNL d   1       3.600   1.549   0.000  0.00  0.00     0.002 A 
ATOM     12  C   UNL d   1       4.211   2.103   0.000  0.00  0.00     0.000 A 
ATOM     13  C   UNL d   1       5.002   1.876   0.000  0.00  0.00     0.002 A 
ENDBRANCH   1   3
BRANCH   1  14
ATOM     14  O   UNL d   1       1.994  -0.909   0.000  0.00  0.00    -0.269 OA
BRANCH  14  15
ATOM     15  C   UNL d   1       1.383  -1.426   0.000  0.00  0.00     0.152 C 
BRANCH  15  16
ATOM     16  C   UNL d   1       0.602  -1.137   0.000  0.00  0.00     0.136 A 
ATOM     17  N   UNL d   1      -0.114  -1.535   0.000  0.00  0.00    -0.236 NA
ATOM     18  C   UNL d   1      -0.706  -0.966   0.000  0.00  0.00     0.088 A 
ATOM     19  C   UNL d   1      -1.530  -1.023   0.000  0.00  0.00     0.020 A 
ATOM     20  C   UNL d   1      -0.336  -0.227   0.000  0.00  0.00     0.049 A 
ATOM     21  C   UNL d   1      -2.013  -0.341   0.000  0.00  0.00     0.002 A 
ATOM     22  C   UNL d   1      -1.629   0.379   0.000  0.00  0.00     0.001 A 
ATOM     23  C   UNL d   1      -0.791   0.450   0.000  0.00  0.00     0.008 A 
ATOM     24  S   UNL d   1       0.460  -0.341   0.000  0.00  0.00    -0.064 SA
ENDBRANCH  15  16
ENDBRANCH  14  15
ENDBRANCH   1  14
TORSDOF 4
