REMARK  4 active torsions:
REMARK  status: ('A' for Active; 'I' for Inactive)
REMARK    1  A    between atoms: C_3  and  N_1 
REMARK       I    between atoms: C_2  and  N_5 
REMARK       I    between atoms: N_4  and  C_2 
REMARK    2  A    between atoms: C_17  and  N_4 
REMARK    3  A    between atoms: N_5  and  C_16 
REMARK    4  A    between atoms: C_8  and  C_9 
ROOT
ATOM      1  C   UNL d   1       3.595   2.337   0.000  0.00  0.00     0.369 C 
ATOM      2  N   UNL d   1       3.083   3.009   0.000  0.00  0.00    -0.191 NA
ATOM      3  N   UNL d   1       4.394   2.430   0.000  0.00  0.00    -0.191 NA
ATOM      4  O   UNL d   1       3.243   1.598   0.000  0.00  0.00    -0.242 OA
ENDROOT
BRANCH   3   5
ATOM      5  C   UNL d   1       4.874   1.731   0.000  0.00  0.00     0.086 A 
ATOM      6  C   UNL d   1       5.699   1.791   0.000  0.00  0.00     0.021 A 
ATOM      7  C   UNL d   1       6.179   1.119   0.000  0.00  0.00     0.025 A 
ATOM      8  C   UNL d   1       5.799   0.393   0.000  0.00  0.00     0.127 A 
ATOM      9  C   UNL d   1       4.960   0.293   0.000  0.00  0.00     0.025 A 
ATOM     10  C   UNL d   1       4.521   0.992   0.000  0.00  0.00     0.021 A 
BRANCH   8  11
ATOM     11  N   UNL d   1       6.312  -0.320   0.000  0.00  0.00    -0.114 N 
ATOM     12  O   UNL d   1       5.959  -1.065   0.000  0.00  0.00    -0.532 OA
ATOM     13  O   UNL d   1       7.137  -0.240   0.000  0.00  0.00    -0.532 OA
ENDBRANCH   8  11
ENDBRANCH   3   5
BRANCH   2  14
ATOM     14  C   UNL d   1       2.264   2.929   0.000  0.00  0.00     0.086 A 
ATOM     15  C   UNL d   1       1.924   2.177   0.000  0.00  0.00     0.019 A 
ATOM     16  C   UNL d   1       1.119   2.097   0.000  0.00  0.00     0.005 A 
ATOM     17  C   UNL d   1       0.606   2.770   0.000  0.00  0.00     0.039 A 
ATOM     18  C   UNL d   1       0.959   3.509   0.000  0.00  0.00     0.005 A 
ATOM     19  C   UNL d   1       1.784   3.589   0.000  0.00  0.00     0.019 A 
BRANCH  17  20
ATOM     20  C   UNL d   1      -0.193   2.716   0.000  0.00  0.00     0.196 C 
ATOM     21  O   UNL d   1      -0.553   1.997   0.000  0.00  0.00    -0.287 OA
ATOM     22  C   UNL d   1      -0.659   3.389   0.000  0.00  0.00     0.045 C 
ENDBRANCH  17  20
ENDBRANCH   2  14
TORSDOF 4
