REMARK  4 active torsions:
REMARK  status: ('A' for Active; 'I' for Inactive)
REMARK    1  A    between atoms: C_12  and  C_2 
REMARK    2  A    between atoms: C_13  and  C_3 
REMARK    3  A    between atoms: N_8  and  C_6 
REMARK       I    between atoms: C_7  and  N_9 
REMARK    4  A    between atoms: N_9  and  N_8 
ROOT
ATOM      1  C   UNL d   1      -1.320   0.961   0.000  0.00  0.00     0.196 A 
ATOM      2  C   UNL d   1      -1.343   0.120   0.000  0.00  0.00     0.041 A 
ATOM      3  C   UNL d   1      -0.625   1.358   0.000  0.00  0.00     0.041 A 
ATOM      4  C   UNL d   1      -0.625  -0.314   0.000  0.00  0.00     0.024 A 
ATOM      5  C   UNL d   1       0.090   0.943   0.000  0.00  0.00     0.024 A 
ATOM      6  C   UNL d   1       0.090   0.120   0.000  0.00  0.00     0.103 A 
ATOM      7  O   UNL d   1      -2.038   1.432   0.000  0.00  0.00    -0.287 OA
ENDROOT
BRANCH   6   8
ATOM      8  N   UNL d   1       0.823  -0.314   0.000  0.00  0.00    -0.144 NA
BRANCH   8   9
ATOM      9  N   UNL d   1       0.853  -1.148   0.000  0.00  0.00    -0.087 NA
ATOM     10  C   UNL d   1       1.571  -1.571   0.000  0.00  0.00     0.404 C 
ATOM     11  O   UNL d   1       2.289  -1.148   0.000  0.00  0.00    -0.239 OA
ATOM     12  N   UNL d   1       1.571  -2.405   0.000  0.00  0.00    -0.083 N 
ENDBRANCH   8   9
ENDBRANCH   6   8
BRANCH   3  13
ATOM     13  C   UNL d   1      -0.639   2.184   0.000  0.00  0.00     0.003 C 
ATOM     14  C   UNL d   1       0.049   2.603   0.000  0.00  0.00     0.000 C 
ATOM     15  C   UNL d   1      -1.365   2.577   0.000  0.00  0.00     0.000 C 
ENDBRANCH   3  13
BRANCH   2  16
ATOM     16  C   UNL d   1      -2.050  -0.269   0.000  0.00  0.00     0.003 C 
ATOM     17  C   UNL d   1      -2.050  -1.077   0.000  0.00  0.00     0.000 C 
ATOM     18  C   UNL d   1      -2.738   0.135   0.000  0.00  0.00     0.000 C 
ENDBRANCH   2  16
TORSDOF 4
