REMARK  5 active torsions:
REMARK  status: ('A' for Active; 'I' for Inactive)
REMARK    1  A    between atoms: S_10  and  C_6 
REMARK    2  A    between atoms: C_15  and  S_10 
REMARK    3  A    between atoms: C_12  and  C_15 
REMARK       I    between atoms: N_16  and  C_12 
REMARK    4  A    between atoms: C_14  and  C_20 
REMARK    5  A    between atoms: C_20  and  N_16 
ROOT
ATOM      1  C   UNL d   1      -1.278   0.370   0.000  0.00  0.00     0.117 A 
ATOM      2  C   UNL d   1      -1.680   1.079   0.000  0.00  0.00     0.082 A 
ATOM      3  N   UNL d   1      -0.440   0.370   0.000  0.00  0.00    -0.214 NA
ATOM      4  C   UNL d   1      -1.278   1.791   0.000  0.00  0.00     0.283 A 
ATOM      5  N   UNL d   1      -0.440   1.791   0.000  0.00  0.00    -0.183 NA
ATOM      6  C   UNL d   1      -0.037   1.079   0.000  0.00  0.00     0.198 A 
ATOM      7  S   UNL d   1      -1.833  -0.241   0.000  0.00  0.00    -0.068 SA
ATOM      8  C   UNL d   1      -2.481   0.903   0.000  0.00  0.00     0.013 A 
ATOM      9  C   UNL d   1      -2.592   0.079   0.000  0.00  0.00     0.031 A 
ATOM     10  O   UNL d   1      -1.703   2.523   0.000  0.00  0.00    -0.265 OA
ATOM     11  C   UNL d   1      -3.106   1.458   0.000  0.00  0.00     0.001 C 
ATOM     12  C   UNL d   1      -3.328  -0.333   0.000  0.00  0.00     0.007 C 
ENDROOT
BRANCH   6  13
ATOM     13  S   UNL d   1       0.796   1.079   0.000  0.00  0.00    -0.043 SA
BRANCH  13  14
ATOM     14  C   UNL d   1       1.199   0.370   0.000  0.00  0.00     0.101 C 
BRANCH  14  15
ATOM     15  C   UNL d   1       2.055   0.370   0.000  0.00  0.00     0.286 C 
ATOM     16  O   UNL d   1       2.462  -0.352   0.000  0.00  0.00    -0.265 OA
ATOM     17  N   UNL d   1       2.462   1.079   0.000  0.00  0.00    -0.206 NA
BRANCH  17  18
ATOM     18  C   UNL d   1       2.055   1.791   0.000  0.00  0.00     0.102 C 
BRANCH  18  19
ATOM     19  C   UNL d   1       2.462   2.499   0.000  0.00  0.00     0.021 C 
ATOM     20  C   UNL d   1       2.055   3.217   0.000  0.00  0.00     0.002 C 
ENDBRANCH  18  19
ENDBRANCH  17  18
ENDBRANCH  14  15
ENDBRANCH  13  14
ENDBRANCH   6  13
TORSDOF 5
