REMARK  5 active torsions:
REMARK  status: ('A' for Active; 'I' for Inactive)
REMARK    1  A    between atoms: C_7  and  N_1 
REMARK    2  A    between atoms: C_15  and  C_3 
REMARK    3  A    between atoms: N_4  and  C_8 
REMARK    4  A    between atoms: C_10  and  C_11 
REMARK       I    between atoms: C_11  and  N_12 
REMARK    5  A    between atoms: N_12  and  C_15 
ROOT
ATOM      1  C   UNL d   1      -3.163   2.743   0.000  0.00  0.00     0.141 C 
ENDROOT
BRANCH   1   2
ATOM      2  N   UNL d   1      -3.774   2.190   0.000  0.00  0.00    -0.203 NA
ATOM      3  C   UNL d   1      -4.560   2.452   0.000  0.00  0.00     0.279 C 
ATOM      4  O   UNL d   1      -4.722   3.242   0.000  0.00  0.00    -0.265 OA
BRANCH   3   5
ATOM      5  C   UNL d   1      -5.171   1.891   0.000  0.00  0.00     0.059 A 
ATOM      6  C   UNL d   1      -5.956   2.145   0.000  0.00  0.00     0.027 A 
ATOM      7  C   UNL d   1      -6.551   1.596   0.000  0.00  0.00     0.127 A 
ATOM      8  C   UNL d   1      -6.114   2.951   0.000  0.00  0.00     0.002 C 
ATOM      9  C   UNL d   1      -6.384   0.781   0.000  0.00  0.00     0.024 A 
ATOM     10  C   UNL d   1      -5.607   0.519   0.000  0.00  0.00     0.002 A 
ATOM     11  C   UNL d   1      -5.008   1.068   0.000  0.00  0.00     0.005 A 
BRANCH   7  12
ATOM     12  N   UNL d   1      -7.324   1.858   0.000  0.00  0.00    -0.114 N 
ATOM     13  O   UNL d   1      -7.498   2.664   0.000  0.00  0.00    -0.532 OA
ATOM     14  O   UNL d   1      -7.947   1.309   0.000  0.00  0.00    -0.532 OA
ENDBRANCH   7  12
ENDBRANCH   3   5
ENDBRANCH   1   2
BRANCH   1  15
ATOM     15  C   UNL d   1      -2.377   2.490   0.000  0.00  0.00     0.191 A 
ATOM     16  N   UNL d   1      -1.708   2.963   0.000  0.00  0.00    -0.264 N 
ATOM     17  C   UNL d   1      -1.043   2.490   0.000  0.00  0.00     0.227 A 
ATOM     18  N   UNL d   1      -1.297   1.696   0.000  0.00  0.00    -0.117 NA
ATOM     19  S   UNL d   1      -0.262   2.739   0.000  0.00  0.00    -0.036 SA
ATOM     20  N   UNL d   1      -2.128   1.696   0.000  0.00  0.00    -0.126 NA
BRANCH  16  21
ATOM     21  C   UNL d   1      -1.708   3.791   0.000  0.00  0.00     0.068 A 
ATOM     22  C   UNL d   1      -0.993   4.190   0.000  0.00  0.00     0.018 A 
ATOM     23  C   UNL d   1      -0.998   5.017   0.000  0.00  0.00     0.001 A 
ATOM     24  C   UNL d   1      -0.283   5.437   0.000  0.00  0.00     0.000 C 
ATOM     25  C   UNL d   1      -1.717   5.437   0.000  0.00  0.00     0.000 A 
ATOM     26  C   UNL d   1      -2.415   5.017   0.000  0.00  0.00     0.002 A 
ATOM     27  C   UNL d   1      -2.427   4.194   0.000  0.00  0.00     0.018 A 
ENDBRANCH  16  21
ENDBRANCH   1  15
TORSDOF 5
