REMARK  2 active torsions:
REMARK  status: ('A' for Active; 'I' for Inactive)
REMARK    1  A    between atoms: C_6  and  N_2 
REMARK    2  A    between atoms: C_8  and  C_6 
ROOT
ATOM      1  C   UNL d   1       0.741   0.831   0.000  0.00  0.00     0.151 A 
ATOM      2  N   UNL d   1       0.256   0.167   0.000  0.00  0.00    -0.286 N 
ATOM      3  S   UNL d   1       0.256   1.487   0.000  0.00  0.00    -0.057 SA
ATOM      4  C   UNL d   1      -0.514   0.416   0.000  0.00  0.00     0.071 A 
ATOM      5  C   UNL d   1      -0.514   1.233   0.000  0.00  0.00     0.048 A 
ATOM      6  S   UNL d   1       1.560   0.852   0.000  0.00  0.00    -0.052 SA
ATOM      7  C   UNL d   1      -1.229   0.006   0.000  0.00  0.00     0.018 A 
ATOM      8  C   UNL d   1      -1.229   1.649   0.000  0.00  0.00     0.008 A 
ATOM      9  C   UNL d   1      -1.949   0.416   0.000  0.00  0.00     0.002 A 
ATOM     10  C   UNL d   1      -1.949   1.233   0.000  0.00  0.00     0.001 A 
ENDROOT
BRANCH   2  11
ATOM     11  C   UNL d   1       0.531  -0.625   0.000  0.00  0.00     0.152 C 
BRANCH  11  12
ATOM     12  C   UNL d   1       1.339  -0.793   0.000  0.00  0.00     0.230 C 
ATOM     13  O   UNL d   1       1.893  -0.175   0.000  0.00  0.00    -0.643 OA
ATOM     14  O   UNL d   1       1.595  -1.570   0.000  0.00  0.00    -0.643 OA
ENDBRANCH  11  12
ENDBRANCH   2  11
TORSDOF 2
