REMARK  5 active torsions:
REMARK  status: ('A' for Active; 'I' for Inactive)
REMARK    1  A    between atoms: C_2  and  C_1 
REMARK    2  A    between atoms: C_5  and  C_2 
REMARK    3  A    between atoms: C_11  and  C_5 
REMARK    4  A    between atoms: C_10  and  C_12 
REMARK    5  A    between atoms: O_19  and  C_10 
ROOT
ATOM      1  C   UNL d   1      -1.657   1.103   0.000  0.00  0.00     0.131 C 
ATOM      2  C   UNL d   1      -2.070   0.377   0.000  0.00  0.00     0.106 C 
ATOM      3  N   UNL d   1      -2.469  -0.306   0.000  0.00  0.00    -0.191 NA
ENDROOT
BRANCH   1   4
ATOM      4  C   UNL d   1      -0.847   1.103   0.000  0.00  0.00     0.123 A 
ATOM      5  N   UNL d   1      -0.377   0.427   0.000  0.00  0.00    -0.238 NA
ATOM      6  C   UNL d   1       0.427   0.683   0.000  0.00  0.00     0.088 A 
ATOM      7  C   UNL d   1       1.117   0.277   0.000  0.00  0.00     0.020 A 
ATOM      8  C   UNL d   1       0.427   1.508   0.000  0.00  0.00     0.049 A 
ATOM      9  C   UNL d   1       1.821   0.683   0.000  0.00  0.00     0.002 A 
ATOM     10  C   UNL d   1       1.821   1.530   0.000  0.00  0.00     0.001 A 
ATOM     11  C   UNL d   1       1.117   1.935   0.000  0.00  0.00     0.008 A 
ATOM     12  S   UNL d   1      -0.377   1.764   0.000  0.00  0.00    -0.066 SA
ENDBRANCH   1   4
BRANCH   1  13
ATOM     13  C   UNL d   1      -2.070   1.814   0.000  0.00  0.00     0.207 C 
ATOM     14  O   UNL d   1      -1.657   2.533   0.000  0.00  0.00    -0.286 OA
BRANCH  13  15
ATOM     15  C   UNL d   1      -2.924   1.814   0.000  0.00  0.00     0.040 A 
ATOM     16  C   UNL d   1      -3.329   1.103   0.000  0.00  0.00     0.003 A 
ATOM     17  C   UNL d   1      -4.155   1.103   0.000  0.00  0.00     0.005 A 
ATOM     18  C   UNL d   1      -4.560   1.814   0.000  0.00  0.00     0.063 A 
ATOM     19  C   UNL d   1      -4.155   2.533   0.000  0.00  0.00     0.005 A 
ATOM     20  C   UNL d   1      -3.329   2.533   0.000  0.00  0.00     0.003 A 
BRANCH  18  21
ATOM     21  C   UNL d   1      -5.414   1.814   0.000  0.00  0.00     0.296 C 
ATOM     22  O   UNL d   1      -5.826   2.533   0.000  0.00  0.00    -0.259 OA
BRANCH  21  23
ATOM     23  O   UNL d   1      -5.826   1.103   0.000  0.00  0.00    -0.296 OA
ATOM     24  C   UNL d   1      -6.652   1.103   0.000  0.00  0.00     0.185 C 
ENDBRANCH  21  23
ENDBRANCH  18  21
ENDBRANCH  13  15
ENDBRANCH   1  13
TORSDOF 5
