REMARK  2 active torsions:
REMARK  status: ('A' for Active; 'I' for Inactive)
REMARK    1  A    between atoms: C_13  and  C_2 
REMARK    2  A    between atoms: N_12  and  C_8 
ROOT
ATOM      1  N   UNL d   1       1.291  -0.684   0.000  0.00  0.00    -0.301 N 
ATOM      2  C   UNL d   1       2.009   0.553   0.000  0.00  0.00     0.121 A 
ATOM      3  C   UNL d   1       0.586  -0.272   0.000  0.00  0.00     0.092 A 
ATOM      4  C   UNL d   1      -0.141  -0.684   0.000  0.00  0.00     0.134 A 
ATOM      5  C   UNL d   1       0.586   0.553   0.000  0.00  0.00     0.060 A 
ATOM      6  C   UNL d   1       2.009  -0.272   0.000  0.00  0.00     0.090 A 
ATOM      7  C   UNL d   1       1.291   0.957   0.000  0.00  0.00     0.204 A 
ATOM      8  C   UNL d   1      -0.858  -0.272   0.000  0.00  0.00     0.116 A 
ATOM      9  O   UNL d   1      -0.141  -1.518   0.000  0.00  0.00    -0.301 OA
ATOM     10  C   UNL d   1      -0.858   0.553   0.000  0.00  0.00     0.158 A 
ATOM     11  C   UNL d   1      -0.122   0.957   0.000  0.00  0.00     0.036 A 
ATOM     12  C   UNL d   1       1.291  -1.506   0.000  0.00  0.00     0.089 A 
ATOM     13  O   UNL d   1       1.291   1.790   0.000  0.00  0.00    -0.286 OA
ATOM     14  C   UNL d   1       0.586  -1.922   0.000  0.00  0.00     0.140 A 
ATOM     15  F   UNL d   1      -1.575   0.983   0.000  0.00  0.00    -0.203 F 
ATOM     16  C   UNL d   1       2.009  -1.922   0.000  0.00  0.00     0.021 C 
ENDROOT
BRANCH   8  17
ATOM     17  N   UNL d   1      -1.575  -0.681   0.000  0.00  0.00    -0.298 N 
ATOM     18  C   UNL d   1      -2.293  -0.254   0.000  0.00  0.00     0.100 A 
ATOM     19  C   UNL d   1      -3.010  -0.681   0.000  0.00  0.00     0.100 A 
ATOM     20  N   UNL d   1      -3.010  -1.506   0.000  0.00  0.00    -0.299 N 
ATOM     21  C   UNL d   1      -2.275  -1.904   0.000  0.00  0.00     0.100 A 
ATOM     22  C   UNL d   1      -3.727  -1.922   0.000  0.00  0.00     0.100 C 
ATOM     23  C   UNL d   1      -1.575  -1.506   0.000  0.00  0.00     0.100 A 
ENDBRANCH   8  17
BRANCH   2  24
ATOM     24  C   UNL d   1       2.726   0.983   0.000  0.00  0.00     0.215 C 
ATOM     25  O   UNL d   1       2.726   1.817   0.000  0.00  0.00    -0.644 OA
ATOM     26  O   UNL d   1       3.443   0.583   0.000  0.00  0.00    -0.644 OA
ENDBRANCH   2  24
TORSDOF 2
