REMARK  2 active torsions:
REMARK  status: ('A' for Active; 'I' for Inactive)
REMARK    1  A    between atoms: C_6  and  C_2 
REMARK    2  A    between atoms: C_7  and  C_3 
ROOT
ATOM      1  N   UNL d   1       5.432  -4.585   0.000  0.00  0.00    -0.243 NA
ATOM      2  C   UNL d   1       6.234  -4.402   0.000  0.00  0.00     0.104 A 
ATOM      3  C   UNL d   1       6.234  -2.920   0.000  0.00  0.00     0.033 A 
ATOM      4  S   UNL d   1       5.432  -2.741   0.000  0.00  0.00    -0.085 SA
ATOM      5  C   UNL d   1       6.582  -3.642   0.000  0.00  0.00     0.028 A 
ATOM      6  C   UNL d   1       4.788  -4.066   0.000  0.00  0.00     0.087 A 
ATOM      7  C   UNL d   1       4.788  -3.239   0.000  0.00  0.00     0.047 A 
ATOM      8  C   UNL d   1       4.086  -4.485   0.000  0.00  0.00     0.020 A 
ATOM      9  C   UNL d   1       4.086  -2.841   0.000  0.00  0.00     0.008 A 
ATOM     10  C   UNL d   1       3.356  -3.243   0.000  0.00  0.00     0.001 A 
ATOM     11  C   UNL d   1       3.356  -4.066   0.000  0.00  0.00     0.002 A 
ENDROOT
BRANCH   3  12
ATOM     12  C   UNL d   1       6.744  -2.272   0.000  0.00  0.00     0.034 A 
ATOM     13  C   UNL d   1       7.575  -2.392   0.000  0.00  0.00     0.141 A 
ATOM     14  F   UNL d   1       7.874  -3.156   0.000  0.00  0.00    -0.204 F 
ATOM     15  C   UNL d   1       8.077  -1.748   0.000  0.00  0.00     0.030 A 
ATOM     16  C   UNL d   1       7.778  -0.997   0.000  0.00  0.00     0.002 A 
ATOM     17  C   UNL d   1       6.956  -0.851   0.000  0.00  0.00     0.000 A 
ATOM     18  C   UNL d   1       6.445  -1.499   0.000  0.00  0.00     0.003 A 
ENDBRANCH   3  12
BRANCH   2  19
ATOM     19  C   UNL d   1       6.744  -5.050   0.000  0.00  0.00     0.118 A 
ATOM     20  O   UNL d   1       6.528  -5.847   0.000  0.00  0.00    -0.304 OA
ATOM     21  C   UNL d   1       7.226  -6.296   0.000  0.00  0.00     0.123 A 
ATOM     22  C   UNL d   1       7.874  -5.781   0.000  0.00  0.00     0.029 A 
ATOM     23  C   UNL d   1       7.575  -5.013   0.000  0.00  0.00     0.028 A 
ENDBRANCH   2  19
TORSDOF 2
