REMARK  5 active torsions:
REMARK  status: ('A' for Active; 'I' for Inactive)
REMARK    1  A    between atoms: C_11  and  N_1 
REMARK    2  A    between atoms: C_15  and  C_3 
REMARK    3  A    between atoms: N_4  and  C_7 
REMARK    4  A    between atoms: C_9  and  C_10 
REMARK       I    between atoms: C_10  and  N_12 
REMARK    5  A    between atoms: N_12  and  C_15 
ROOT
ATOM      1  C   UNL d   1      -3.170   2.750   0.000  0.00  0.00     0.141 C 
ENDROOT
BRANCH   1   2
ATOM      2  N   UNL d   1      -3.783   2.196   0.000  0.00  0.00    -0.203 NA
ATOM      3  C   UNL d   1      -4.570   2.458   0.000  0.00  0.00     0.279 C 
ATOM      4  O   UNL d   1      -4.733   3.250   0.000  0.00  0.00    -0.265 OA
BRANCH   3   5
ATOM      5  C   UNL d   1      -5.183   1.896   0.000  0.00  0.00     0.059 A 
ATOM      6  C   UNL d   1      -5.970   2.150   0.000  0.00  0.00     0.027 A 
ATOM      7  C   UNL d   1      -6.566   1.600   0.000  0.00  0.00     0.127 A 
ATOM      8  C   UNL d   1      -6.128   2.958   0.000  0.00  0.00     0.002 C 
ATOM      9  C   UNL d   1      -6.399   0.783   0.000  0.00  0.00     0.024 A 
ATOM     10  C   UNL d   1      -5.620   0.521   0.000  0.00  0.00     0.002 A 
ATOM     11  C   UNL d   1      -5.020   1.071   0.000  0.00  0.00     0.005 A 
BRANCH   7  12
ATOM     12  N   UNL d   1      -7.341   1.862   0.000  0.00  0.00    -0.114 N 
ATOM     13  O   UNL d   1      -7.516   2.671   0.000  0.00  0.00    -0.532 OA
ATOM     14  O   UNL d   1      -7.966   1.312   0.000  0.00  0.00    -0.532 OA
ENDBRANCH   7  12
ENDBRANCH   3   5
ENDBRANCH   1   2
BRANCH   1  15
ATOM     15  C   UNL d   1      -2.383   2.495   0.000  0.00  0.00     0.191 A 
ATOM     16  N   UNL d   1      -1.712   2.970   0.000  0.00  0.00    -0.264 N 
ATOM     17  C   UNL d   1      -1.046   2.495   0.000  0.00  0.00     0.227 A 
ATOM     18  N   UNL d   1      -1.300   1.700   0.000  0.00  0.00    -0.117 NA
ATOM     19  S   UNL d   1      -0.263   2.745   0.000  0.00  0.00    -0.036 SA
ATOM     20  N   UNL d   1      -2.133   1.700   0.000  0.00  0.00    -0.126 NA
BRANCH  16  21
ATOM     21  C   UNL d   1      -1.712   3.800   0.000  0.00  0.00     0.068 A 
ATOM     22  C   UNL d   1      -2.433   4.204   0.000  0.00  0.00     0.020 A 
ATOM     23  C   UNL d   1      -2.421   5.029   0.000  0.00  0.00     0.031 A 
ATOM     24  C   UNL d   1      -1.712   5.449   0.000  0.00  0.00     0.140 A 
ATOM     25  C   UNL d   1      -0.996   5.029   0.000  0.00  0.00     0.031 A 
ATOM     26  F   UNL d   1      -1.712   6.266   0.000  0.00  0.00    -0.204 F 
ATOM     27  C   UNL d   1      -0.996   4.204   0.000  0.00  0.00     0.020 A 
ENDBRANCH  16  21
ENDBRANCH   1  15
TORSDOF 5
