REMARK  4 active torsions:
REMARK  status: ('A' for Active; 'I' for Inactive)
REMARK    1  A    between atoms: C_3  and  C_1 
REMARK    2  A    between atoms: C_8  and  C_3 
REMARK    3  A    between atoms: C_9  and  C_3 
REMARK    4  A    between atoms: N_5  and  C_9 
ROOT
ATOM      1  C   UNL d   1       5.262  -4.276   0.000  0.00  0.00     0.023 A 
ATOM      2  C   UNL d   1       5.945  -4.796   0.000  0.00  0.00     0.082 A 
ATOM      3  N   UNL d   1       5.675  -5.562   0.000  0.00  0.00    -0.246 NA
ATOM      4  C   UNL d   1       4.601  -4.750   0.000  0.00  0.00     0.019 A 
ATOM      5  C   UNL d   1       4.846  -5.545   0.000  0.00  0.00     0.081 A 
ATOM      6  C   UNL d   1       6.694  -5.025   0.000  0.00  0.00     0.021 C 
ATOM      7  C   UNL d   1       3.797  -4.563   0.000  0.00  0.00     0.002 A 
ATOM      8  C   UNL d   1       4.276  -6.149   0.000  0.00  0.00     0.019 A 
ATOM      9  C   UNL d   1       3.247  -5.175   0.000  0.00  0.00     0.000 A 
ATOM     10  C   UNL d   1       3.476  -5.962   0.000  0.00  0.00     0.002 A 
ENDROOT
BRANCH   1  11
ATOM     11  C   UNL d   1       5.296  -3.451   0.000  0.00  0.00     0.048 C 
BRANCH  11  12
ATOM     12  C   UNL d   1       5.999  -3.047   0.000  0.00  0.00     0.102 A 
ATOM     13  O   UNL d   1       6.761  -3.397   0.000  0.00  0.00    -0.305 OA
ATOM     14  C   UNL d   1       7.323  -2.798   0.000  0.00  0.00     0.123 A 
ATOM     15  C   UNL d   1       6.899  -2.053   0.000  0.00  0.00     0.029 A 
ATOM     16  C   UNL d   1       6.099  -2.227   0.000  0.00  0.00     0.027 A 
ENDBRANCH  11  12
BRANCH  11  17
ATOM     17  C   UNL d   1       4.575  -3.027   0.000  0.00  0.00     0.150 C 
BRANCH  17  18
ATOM     18  N   UNL d   1       4.596  -2.198   0.000  0.00  0.00    -0.112 N 
ATOM     19  O   UNL d   1       5.300  -1.798   0.000  0.00  0.00    -0.532 OA
ATOM     20  O   UNL d   1       3.864  -1.765   0.000  0.00  0.00    -0.532 OA
ENDBRANCH  17  18
ENDBRANCH  11  17
ENDBRANCH   1  11
TORSDOF 4
