REMARK  8 active torsions:
REMARK  status: ('A' for Active; 'I' for Inactive)
REMARK    1  A    between atoms: N_2  and  C_1 
REMARK    2  A    between atoms: N_3  and  C_1 
REMARK    3  A    between atoms: C_6  and  C_1 
REMARK       I    between atoms: C_4  and  N_2 
REMARK       I    between atoms: C_5  and  N_3 
REMARK    4  A    between atoms: O_11  and  C_4 
REMARK    5  A    between atoms: O_12  and  C_5 
REMARK    6  A    between atoms: C_10  and  C_6 
REMARK    7  A    between atoms: C_15  and  O_11 
REMARK    8  A    between atoms: C_16  and  O_12 
ROOT
ATOM      1  C   UNL d   1       0.597   0.292   0.000  0.00  0.00     0.211 C 
ENDROOT
BRANCH   1   2
ATOM      2  N   UNL d   1      -0.108   0.701   0.000  0.00  0.00    -0.163 NA
ATOM      3  C   UNL d   1      -0.108   1.522   0.000  0.00  0.00     0.394 C 
ATOM      4  O   UNL d   1       0.597   1.954   0.000  0.00  0.00    -0.236 OA
BRANCH   3   5
ATOM      5  O   UNL d   1      -0.822   1.936   0.000  0.00  0.00    -0.256 OA
BRANCH   5   6
ATOM      6  C   UNL d   1      -0.822   2.771   0.000  0.00  0.00     0.128 C 
ATOM      7  C   UNL d   1      -1.532   3.189   0.000  0.00  0.00     0.029 C 
ENDBRANCH   5   6
ENDBRANCH   3   5
ENDBRANCH   1   2
BRANCH   1   8
ATOM      8  N   UNL d   1       1.334   0.701   0.000  0.00  0.00    -0.163 NA
ATOM      9  C   UNL d   1       2.048   0.292   0.000  0.00  0.00     0.394 C 
ATOM     10  O   UNL d   1       2.026  -0.525   0.000  0.00  0.00    -0.236 OA
BRANCH   9  11
ATOM     11  O   UNL d   1       2.780   0.701   0.000  0.00  0.00    -0.256 OA
BRANCH  11  12
ATOM     12  C   UNL d   1       2.735   1.370   0.000  0.00  0.00     0.128 C 
ATOM     13  C   UNL d   1       3.467   1.801   0.000  0.00  0.00     0.029 C 
ENDBRANCH  11  12
ENDBRANCH   9  11
ENDBRANCH   1   8
BRANCH   1  14
ATOM     14  C   UNL d   1       0.597  -0.543   0.000  0.00  0.00     0.231 C 
ATOM     15  O   UNL d   1       1.312  -0.957   0.000  0.00  0.00    -0.283 OA
BRANCH  14  16
ATOM     16  C   UNL d   1      -0.130  -0.975   0.000  0.00  0.00     0.042 A 
ATOM     17  C   UNL d   1      -0.844  -0.570   0.000  0.00  0.00     0.003 A 
ATOM     18  C   UNL d   1      -1.558  -0.975   0.000  0.00  0.00     0.000 A 
ATOM     19  C   UNL d   1      -1.558  -1.819   0.000  0.00  0.00     0.000 A 
ATOM     20  C   UNL d   1      -0.844  -2.210   0.000  0.00  0.00     0.000 A 
ATOM     21  C   UNL d   1      -0.130  -1.796   0.000  0.00  0.00     0.003 A 
ENDBRANCH  14  16
ENDBRANCH   1  14
TORSDOF 8
