REMARK  4 active torsions:
REMARK  status: ('A' for Active; 'I' for Inactive)
REMARK    1  A    between atoms: C_2  and  N_1 
REMARK    2  A    between atoms: C_4  and  C_2 
REMARK    3  A    between atoms: C_10  and  C_4 
REMARK    4  A    between atoms: N_7  and  C_6 
ROOT
ATOM      1  C   UNL d   1      -1.490   0.443   0.000  0.00  0.00     0.064 A 
ATOM      2  C   UNL d   1      -1.091  -0.280   0.000  0.00  0.00     0.018 A 
ATOM      3  C   UNL d   1      -1.067   1.152   0.000  0.00  0.00     0.018 A 
ATOM      4  C   UNL d   1       0.156   0.423   0.000  0.00  0.00     0.002 A 
ATOM      5  C   UNL d   1      -0.245   1.143   0.000  0.00  0.00     0.002 A 
ATOM      6  C   UNL d   1      -0.267  -0.289   0.000  0.00  0.00     0.002 A 
ENDROOT
BRANCH   4   7
ATOM      7  C   UNL d   1       0.983   0.414   0.000  0.00  0.00     0.025 C 
BRANCH   7   8
ATOM      8  C   UNL d   1       1.382  -0.302   0.000  0.00  0.00     0.148 C 
BRANCH   8   9
ATOM      9  N   UNL d   1       2.207  -0.306   0.000  0.00  0.00    -0.112 N 
ATOM     10  O   UNL d   1       2.603  -1.018   0.000  0.00  0.00    -0.532 OA
ATOM     11  O   UNL d   1       2.603   0.408   0.000  0.00  0.00    -0.532 OA
ENDBRANCH   8   9
ENDBRANCH   7   8
ENDBRANCH   4   7
BRANCH   1  12
ATOM     12  N   UNL d   1      -2.321   0.443   0.000  0.00  0.00    -0.301 N 
ATOM     13  C   UNL d   1      -2.732   1.163   0.000  0.00  0.00     0.100 C 
ATOM     14  C   UNL d   1      -2.744  -0.269   0.000  0.00  0.00     0.100 C 
ENDBRANCH   1  12
TORSDOF 4
