REMARK  7 active torsions:
REMARK  status: ('A' for Active; 'I' for Inactive)
REMARK    1  A    between atoms: C_3  and  N_1 
REMARK       I    between atoms: C_2  and  N_8 
REMARK    2  A    between atoms: O_16  and  C_2 
REMARK    3  A    between atoms: C_7  and  C_5 
REMARK    4  A    between atoms: C_12  and  C_7 
REMARK    5  A    between atoms: N_8  and  C_14 
REMARK    6  A    between atoms: S_11  and  C_12 
REMARK    7  A    between atoms: C_15  and  S_11 
ROOT
ATOM      1  S   UNL d   1      -0.934   0.629   0.000  0.00  0.00    -0.083 SA
ENDROOT
BRANCH   1   2
ATOM      2  C   UNL d   1      -1.345  -0.082   0.000  0.00  0.00     0.077 C 
BRANCH   2   3
ATOM      3  C   UNL d   1      -2.170  -0.082   0.000  0.00  0.00     0.202 C 
ATOM      4  O   UNL d   1      -2.581   0.629   0.000  0.00  0.00    -0.286 OA
BRANCH   3   5
ATOM      5  C   UNL d   1      -2.581  -0.798   0.000  0.00  0.00     0.041 A 
ATOM      6  C   UNL d   1      -2.170  -1.506   0.000  0.00  0.00     0.027 A 
ATOM      7  C   UNL d   1      -2.581  -2.221   0.000  0.00  0.00     0.127 A 
ATOM      8  C   UNL d   1      -3.410  -2.221   0.000  0.00  0.00     0.024 A 
ATOM      9  C   UNL d   1      -3.820  -1.506   0.000  0.00  0.00     0.002 A 
ATOM     10  C   UNL d   1      -3.410  -0.798   0.000  0.00  0.00     0.003 A 
BRANCH   7  11
ATOM     11  N   UNL d   1      -2.170  -2.937   0.000  0.00  0.00    -0.114 N 
ATOM     12  O   UNL d   1      -2.518  -3.687   0.000  0.00  0.00    -0.532 OA
ATOM     13  O   UNL d   1      -1.357  -2.991   0.000  0.00  0.00    -0.532 OA
ENDBRANCH   7  11
ENDBRANCH   3   5
ENDBRANCH   2   3
ENDBRANCH   1   2
BRANCH   1  14
ATOM     14  C   UNL d   1      -0.106   0.629   0.000  0.00  0.00     0.030 A 
ATOM     15  C   UNL d   1       0.329   1.345   0.000  0.00  0.00     0.008 A 
ATOM     16  C   UNL d   1       1.154   1.345   0.000  0.00  0.00     0.020 A 
ATOM     17  C   UNL d   1       1.564   0.629   0.000  0.00  0.00     0.087 A 
ATOM     18  C   UNL d   1       1.154  -0.082   0.000  0.00  0.00     0.020 A 
ATOM     19  C   UNL d   1       0.329  -0.082   0.000  0.00  0.00     0.008 A 
BRANCH  17  20
ATOM     20  N   UNL d   1       2.393   0.629   0.000  0.00  0.00    -0.186 NA
ATOM     21  C   UNL d   1       2.804  -0.082   0.000  0.00  0.00     0.388 C 
ATOM     22  O   UNL d   1       2.393  -0.798   0.000  0.00  0.00    -0.236 OA
BRANCH  21  23
ATOM     23  O   UNL d   1       3.629  -0.082   0.000  0.00  0.00    -0.281 OA
ATOM     24  C   UNL d   1       4.039  -0.798   0.000  0.00  0.00     0.186 C 
ENDBRANCH  21  23
ENDBRANCH  17  20
ENDBRANCH   1  14
TORSDOF 7
