REMARK  7 active torsions:
REMARK  status: ('A' for Active; 'I' for Inactive)
REMARK    1  A    between atoms: N_8  and  C_3 
REMARK    2  A    between atoms: C_10  and  C_5 
REMARK    3  A    between atoms: C_15  and  N_8 
REMARK    4  A    between atoms: N_12  and  C_10 
REMARK    5  A    between atoms: C_21  and  N_12 
REMARK    6  A    between atoms: O_22  and  C_16 
REMARK    7  A    between atoms: C_23  and  C_21 
ROOT
ATOM      1  N   UNL d   1      -1.160   1.701   0.000  0.00  0.00    -0.209 NA
ATOM      2  N   UNL d   1      -2.592   1.722   0.000  0.00  0.00    -0.258 N 
ATOM      3  C   UNL d   1      -1.160   0.883   0.000  0.00  0.00     0.170 A 
ATOM      4  C   UNL d   1      -1.876   2.132   0.000  0.00  0.00     0.152 A 
ATOM      5  C   UNL d   1      -1.876   0.473   0.000  0.00  0.00     0.111 A 
ATOM      6  C   UNL d   1      -2.592   0.883   0.000  0.00  0.00     0.270 A 
ATOM      7  C   UNL d   1      -1.876   2.950   0.000  0.00  0.00     0.035 A 
ATOM      8  C   UNL d   1      -3.309   2.132   0.000  0.00  0.00     0.084 A 
ATOM      9  O   UNL d   1      -3.309   0.456   0.000  0.00  0.00    -0.266 OA
ATOM     10  C   UNL d   1      -3.309   2.950   0.000  0.00  0.00     0.019 A 
ATOM     11  C   UNL d   1      -2.592   3.360   0.000  0.00  0.00     0.005 A 
ATOM     12  C   UNL d   1      -1.160   3.377   0.000  0.00  0.00     0.003 C 
ENDROOT
BRANCH   3  13
ATOM     13  N   UNL d   1      -0.422   0.473   0.000  0.00  0.00    -0.227 NA
BRANCH  13  14
ATOM     14  C   UNL d   1       0.286   0.883   0.000  0.00  0.00     0.083 A 
ATOM     15  C   UNL d   1       0.260   1.701   0.000  0.00  0.00     0.021 A 
ATOM     16  C   UNL d   1       0.976   2.132   0.000  0.00  0.00     0.026 A 
ATOM     17  C   UNL d   1       1.688   1.740   0.000  0.00  0.00     0.094 A 
ATOM     18  C   UNL d   1       1.718   0.921   0.000  0.00  0.00     0.026 A 
ATOM     19  C   UNL d   1       1.023   0.495   0.000  0.00  0.00     0.021 A 
BRANCH  17  20
ATOM     20  O   UNL d   1       2.405   2.196   0.000  0.00  0.00    -0.328 OA
ATOM     21  C   UNL d   1       3.151   1.804   0.000  0.00  0.00     0.181 C 
ENDBRANCH  17  20
ENDBRANCH  13  14
ENDBRANCH   3  13
BRANCH   5  22
ATOM     22  C   UNL d   1      -1.876  -0.358   0.000  0.00  0.00     0.107 C 
BRANCH  22  23
ATOM     23  N   UNL d   1      -2.592  -0.767   0.000  0.00  0.00    -0.242 NA
BRANCH  23  24
ATOM     24  C   UNL d   1      -2.592  -1.586   0.000  0.00  0.00     0.099 C 
BRANCH  24  25
ATOM     25  C   UNL d   1      -3.309  -1.995   0.000  0.00  0.00     0.019 A 
ATOM     26  C   UNL d   1      -3.309  -2.814   0.000  0.00  0.00     0.002 A 
ATOM     27  C   UNL d   1      -4.025  -3.223   0.000  0.00  0.00     0.000 A 
ATOM     28  C   UNL d   1      -4.741  -2.814   0.000  0.00  0.00     0.000 A 
ATOM     29  C   UNL d   1      -4.741  -1.995   0.000  0.00  0.00     0.000 A 
ATOM     30  C   UNL d   1      -4.025  -1.586   0.000  0.00  0.00     0.002 A 
ENDBRANCH  24  25
ENDBRANCH  23  24
ENDBRANCH  22  23
ENDBRANCH   5  22
TORSDOF 7
