REMARK  2 active torsions:
REMARK  status: ('A' for Active; 'I' for Inactive)
REMARK    1  A    between atoms: C_4  and  C_1 
REMARK    2  A    between atoms: C_8  and  C_4 
ROOT
ATOM      1  C   UNL d   1      -0.305   0.773   0.000  0.00  0.00     0.139 A 
ATOM      2  O   UNL d   1      -0.777   0.091   0.000  0.00  0.00    -0.304 OA
ATOM      3  C   UNL d   1      -0.777   1.428   0.000  0.00  0.00     0.030 A 
ATOM      4  C   UNL d   1      -1.565   0.350   0.000  0.00  0.00     0.100 A 
ATOM      5  C   UNL d   1      -1.565   1.173   0.000  0.00  0.00     0.025 A 
ATOM      6  C   UNL d   1      -2.281  -0.072   0.000  0.00  0.00     0.025 A 
ATOM      7  C   UNL d   1      -2.281   1.596   0.000  0.00  0.00     0.002 A 
ATOM      8  C   UNL d   1      -2.990   0.350   0.000  0.00  0.00     0.002 A 
ATOM      9  C   UNL d   1      -2.990   1.173   0.000  0.00  0.00     0.000 A 
ENDROOT
BRANCH   1  10
ATOM     10  C   UNL d   1       0.537   0.773   0.000  0.00  0.00     0.218 C 
ATOM     11  O   UNL d   1       0.960   0.057   0.000  0.00  0.00    -0.284 OA
BRANCH  10  12
ATOM     12  C   UNL d   1       0.960   1.482   0.000  0.00  0.00     0.041 A 
ATOM     13  C   UNL d   1       0.537   2.194   0.000  0.00  0.00     0.003 A 
ATOM     14  C   UNL d   1       0.960   2.910   0.000  0.00  0.00     0.000 A 
ATOM     15  C   UNL d   1       1.782   2.910   0.000  0.00  0.00     0.000 A 
ATOM     16  C   UNL d   1       2.198   2.194   0.000  0.00  0.00     0.000 A 
ATOM     17  C   UNL d   1       1.782   1.482   0.000  0.00  0.00     0.003 A 
ENDBRANCH  10  12
ENDBRANCH   1  10
TORSDOF 2
