REMARK  4 active torsions:
REMARK  status: ('A' for Active; 'I' for Inactive)
REMARK    1  A    between atoms: C_2  and  C_1 
REMARK    2  A    between atoms: C_8  and  C_1 
REMARK    3  A    between atoms: C_9  and  C_2 
REMARK    4  A    between atoms: N_4  and  C_3 
ROOT
ATOM      1  C   UNL d   1       3.548  -3.126   0.000  0.00  0.00     0.064 A 
ATOM      2  C   UNL d   1       3.949  -2.407   0.000  0.00  0.00     0.018 A 
ATOM      3  C   UNL d   1       3.962  -3.849   0.000  0.00  0.00     0.018 A 
ATOM      4  C   UNL d   1       5.195  -3.114   0.000  0.00  0.00     0.000 A 
ATOM      5  C   UNL d   1       4.769  -2.407   0.000  0.00  0.00     0.002 A 
ATOM      6  C   UNL d   1       4.781  -3.841   0.000  0.00  0.00     0.002 A 
ENDROOT
BRANCH   4   7
ATOM      7  C   UNL d   1       6.018  -3.114   0.000  0.00  0.00     0.000 C 
BRANCH   7   8
ATOM      8  C   UNL d   1       6.424  -3.828   0.000  0.00  0.00     0.000 C 
BRANCH   8   9
ATOM      9  C   UNL d   1       7.251  -3.828   0.000  0.00  0.00     0.003 A 
ATOM     10  C   UNL d   1       7.627  -3.097   0.000  0.00  0.00     0.021 A 
ATOM     11  C   UNL d   1       8.463  -3.063   0.000  0.00  0.00     0.099 A 
ATOM     12  N   UNL d   1       8.906  -3.766   0.000  0.00  0.00    -0.242 NA
ATOM     13  C   UNL d   1       8.513  -4.493   0.000  0.00  0.00     0.099 A 
ATOM     14  C   UNL d   1       7.690  -4.530   0.000  0.00  0.00     0.021 A 
ENDBRANCH   8   9
ENDBRANCH   7   8
ENDBRANCH   4   7
BRANCH   1  15
ATOM     15  N   UNL d   1       2.712  -3.139   0.000  0.00  0.00    -0.301 N 
ATOM     16  C   UNL d   1       2.294  -2.424   0.000  0.00  0.00     0.100 C 
ATOM     17  C   UNL d   1       2.311  -3.862   0.000  0.00  0.00     0.100 C 
ENDBRANCH   1  15
TORSDOF 4
