REMARK  5 active torsions:
REMARK  status: ('A' for Active; 'I' for Inactive)
REMARK    1  A    between atoms: C_9  and  C_5 
REMARK    2  A    between atoms: N_14  and  C_6 
REMARK    3  A    between atoms: N_11  and  C_9 
REMARK    4  A    between atoms: C_15  and  N_11 
REMARK    5  A    between atoms: C_16  and  C_15 
ROOT
ATOM      1  N   UNL d   1       0.078   2.867   0.000  0.00  0.00    -0.258 N 
ATOM      2  N   UNL d   1      -1.114   3.560   0.000  0.00  0.00    -0.209 NA
ATOM      3  C   UNL d   1      -0.307   3.560   0.000  0.00  0.00     0.152 A 
ATOM      4  C   UNL d   1      -0.307   2.144   0.000  0.00  0.00     0.270 A 
ATOM      5  C   UNL d   1      -1.151   2.144   0.000  0.00  0.00     0.111 A 
ATOM      6  C   UNL d   1      -1.518   2.867   0.000  0.00  0.00     0.170 A 
ATOM      7  C   UNL d   1       0.115   4.283   0.000  0.00  0.00     0.035 A 
ATOM      8  C   UNL d   1       0.940   2.867   0.000  0.00  0.00     0.084 A 
ATOM      9  O   UNL d   1       0.078   1.422   0.000  0.00  0.00    -0.266 OA
ATOM     10  C   UNL d   1       1.325   3.560   0.000  0.00  0.00     0.019 A 
ATOM     11  C   UNL d   1       0.946   4.283   0.000  0.00  0.00     0.005 A 
ATOM     12  C   UNL d   1      -0.283   5.006   0.000  0.00  0.00     0.003 C 
ENDROOT
BRANCH   5  13
ATOM     13  C   UNL d   1      -1.584   1.422   0.000  0.00  0.00     0.107 C 
BRANCH  13  14
ATOM     14  N   UNL d   1      -2.416   1.422   0.000  0.00  0.00    -0.242 NA
BRANCH  14  15
ATOM     15  C   UNL d   1      -2.819   0.699   0.000  0.00  0.00     0.099 C 
BRANCH  15  16
ATOM     16  C   UNL d   1      -2.404   0.000   0.000  0.00  0.00     0.019 A 
ATOM     17  C   UNL d   1      -1.584   0.000   0.000  0.00  0.00     0.002 A 
ATOM     18  C   UNL d   1      -1.157  -0.693   0.000  0.00  0.00     0.000 A 
ATOM     19  C   UNL d   1      -1.566  -1.416   0.000  0.00  0.00     0.000 A 
ATOM     20  C   UNL d   1      -2.404  -1.416   0.000  0.00  0.00     0.000 A 
ATOM     21  C   UNL d   1      -2.813  -0.723   0.000  0.00  0.00     0.002 A 
ENDBRANCH  15  16
ENDBRANCH  14  15
ENDBRANCH  13  14
ENDBRANCH   5  13
BRANCH   6  22
ATOM     22  N   UNL d   1      -2.361   2.867   0.000  0.00  0.00    -0.223 NA
ATOM     23  C   UNL d   1      -2.765   2.144   0.000  0.00  0.00     0.121 C 
ENDBRANCH   6  22
TORSDOF 5
