REMARK  3 active torsions:
REMARK  status: ('A' for Active; 'I' for Inactive)
REMARK    1  A    between atoms: C_9  and  C_3 
REMARK    2  A    between atoms: C_8  and  C_5 
REMARK    3  A    between atoms: O_19  and  C_9 
ROOT
ATOM      1  N   UNL d   1      -0.182  -0.592   0.000  0.00  0.00    -0.278 N 
ATOM      2  C   UNL d   1      -0.182  -1.417   0.000  0.00  0.00     0.178 A 
ATOM      3  C   UNL d   1       1.249  -0.592   0.000  0.00  0.00     0.075 A 
ATOM      4  N   UNL d   1       0.536  -1.846   0.000  0.00  0.00    -0.223 NA
ATOM      5  C   UNL d   1       0.536  -0.186   0.000  0.00  0.00     0.178 A 
ATOM      6  C   UNL d   1       1.249  -1.417   0.000  0.00  0.00     0.086 A 
ATOM      7  C   UNL d   1      -0.895  -0.186   0.000  0.00  0.00     0.263 A 
ATOM      8  S   UNL d   1      -0.895  -1.846   0.000  0.00  0.00    -0.050 SA
ATOM      9  C   UNL d   1      -1.617  -0.592   0.000  0.00  0.00     0.068 A 
ATOM     10  O   UNL d   1      -0.895   0.638   0.000  0.00  0.00    -0.267 OA
ATOM     11  C   UNL d   1      -1.617  -1.417   0.000  0.00  0.00     0.043 A 
ATOM     12  C   UNL d   1       1.990  -1.864   0.000  0.00  0.00     0.021 C 
ENDROOT
BRANCH   5  13
ATOM     13  C   UNL d   1       0.536   0.638   0.000  0.00  0.00     0.024 A 
ATOM     14  S   UNL d   1      -0.070   1.198   0.000  0.00  0.00    -0.089 SA
ATOM     15  C   UNL d   1       0.266   1.939   0.000  0.00  0.00     0.035 A 
ATOM     16  C   UNL d   1       1.067   1.846   0.000  0.00  0.00     0.007 A 
ATOM     17  C   UNL d   1       1.249   1.063   0.000  0.00  0.00     0.004 A 
ENDBRANCH   5  13
BRANCH   3  18
ATOM     18  C   UNL d   1       1.990  -0.186   0.000  0.00  0.00     0.295 C 
ATOM     19  O   UNL d   1       1.990   0.638   0.000  0.00  0.00    -0.259 OA
BRANCH  18  20
ATOM     20  O   UNL d   1       2.703  -0.592   0.000  0.00  0.00    -0.296 OA
ATOM     21  C   UNL d   1       3.417  -0.186   0.000  0.00  0.00     0.185 C 
ENDBRANCH  18  20
ENDBRANCH   3  18
TORSDOF 3
