REMARK  3 active torsions:
REMARK  status: ('A' for Active; 'I' for Inactive)
REMARK    1  A    between atoms: C_7  and  C_3 
REMARK    2  A    between atoms: C_10  and  C_5 
REMARK    3  A    between atoms: C_9  and  C_7 
ROOT
ATOM      1  C   UNL d   1      -1.720   1.358   0.000  0.00  0.00     0.101 A 
ATOM      2  O   UNL d   1      -1.093   0.818   0.000  0.00  0.00    -0.307 OA
ATOM      3  C   UNL d   1      -0.379   1.236   0.000  0.00  0.00     0.101 A 
ATOM      4  C   UNL d   1      -1.380   2.111   0.000  0.00  0.00     0.027 A 
ATOM      5  C   UNL d   1      -0.570   2.033   0.000  0.00  0.00     0.027 A 
ENDROOT
BRANCH   3   6
ATOM      6  C   UNL d   1       0.396   0.923   0.000  0.00  0.00     0.036 C 
BRANCH   6   7
ATOM      7  C   UNL d   1       0.501   0.104   0.000  0.00  0.00     0.091 A 
ATOM      8  C   UNL d   1       1.271  -0.226   0.000  0.00  0.00     0.286 A 
ATOM      9  N   UNL d   1       1.206  -1.045   0.000  0.00  0.00    -0.190 NA
ATOM     10  O   UNL d   1       1.985   0.209   0.000  0.00  0.00    -0.265 OA
ATOM     11  C   UNL d   1       0.435  -1.232   0.000  0.00  0.00     0.169 A 
ATOM     12  S   UNL d   1      -0.022  -0.540   0.000  0.00  0.00    -0.052 SA
ATOM     13  S   UNL d   1       0.161  -2.002   0.000  0.00  0.00    -0.050 SA
ENDBRANCH   6   7
ENDBRANCH   3   6
BRANCH   1  14
ATOM     14  C   UNL d   1      -2.425   0.962   0.000  0.00  0.00     0.033 A 
ATOM     15  C   UNL d   1      -2.425   0.126   0.000  0.00  0.00     0.060 A 
ATOM     16 CL   UNL d   1      -1.720  -0.292   0.000  0.00  0.00    -0.082 Cl
ATOM     17  C   UNL d   1      -3.134  -0.292   0.000  0.00  0.00     0.011 A 
ATOM     18  C   UNL d   1      -3.848   0.126   0.000  0.00  0.00     0.001 A 
ATOM     19  C   UNL d   1      -3.848   0.962   0.000  0.00  0.00     0.000 A 
ATOM     20  C   UNL d   1      -3.134   1.358   0.000  0.00  0.00     0.003 A 
ENDBRANCH   1  14
TORSDOF 3
