REMARK  5 active torsions:
REMARK  status: ('A' for Active; 'I' for Inactive)
REMARK    1  A    between atoms: C_3  and  C_1 
REMARK    2  A    between atoms: N_2  and  C_11 
REMARK    3  A    between atoms: N_6  and  C_3 
REMARK    4  A    between atoms: C_14  and  C_5 
REMARK    5  A    between atoms: C_10  and  N_7 
ROOT
ATOM      1  C   UNL d   1      -0.265   1.025   0.000  0.00  0.00     0.143 C 
ATOM      2  S   UNL d   1      -0.413   0.229   0.000  0.00  0.00    -0.057 SA
ENDROOT
BRANCH   1   3
ATOM      3  C   UNL d   1      -0.863   1.564   0.000  0.00  0.00     0.126 A 
ATOM      4  O   UNL d   1      -1.685   1.456   0.000  0.00  0.00    -0.305 OA
ATOM      5  C   UNL d   1      -2.031   2.211   0.000  0.00  0.00     0.100 A 
ATOM      6  C   UNL d   1      -1.452   2.750   0.000  0.00  0.00     0.027 A 
ATOM      7  C   UNL d   1      -0.715   2.368   0.000  0.00  0.00     0.029 A 
BRANCH   5   8
ATOM      8  C   UNL d   1      -2.804   2.449   0.000  0.00  0.00     0.023 A 
ATOM      9  C   UNL d   1      -3.002   3.258   0.000  0.00  0.00     0.004 A 
ATOM     10  C   UNL d   1      -3.797   3.487   0.000  0.00  0.00     0.024 A 
ATOM     11  C   UNL d   1      -4.404   2.926   0.000  0.00  0.00     0.127 A 
ATOM     12  C   UNL d   1      -4.188   2.112   0.000  0.00  0.00     0.024 A 
ATOM     13  C   UNL d   1      -3.411   1.887   0.000  0.00  0.00     0.004 A 
BRANCH  11  14
ATOM     14  N   UNL d   1      -5.177   3.164   0.000  0.00  0.00    -0.114 N 
ATOM     15  O   UNL d   1      -5.429   3.959   0.000  0.00  0.00    -0.532 OA
ATOM     16  O   UNL d   1      -5.820   2.656   0.000  0.00  0.00    -0.532 OA
ENDBRANCH  11  14
ENDBRANCH   5   8
ENDBRANCH   1   3
BRANCH   1  17
ATOM     17  N   UNL d   1       0.539   1.308   0.000  0.00  0.00    -0.291 N 
ATOM     18  C   UNL d   1       0.688   2.126   0.000  0.00  0.00     0.100 A 
ATOM     19  C   UNL d   1       1.461   2.409   0.000  0.00  0.00     0.100 A 
ATOM     20  N   UNL d   1       2.090   1.869   0.000  0.00  0.00    -0.301 N 
ATOM     21  C   UNL d   1       1.941   1.074   0.000  0.00  0.00     0.100 A 
ATOM     22  C   UNL d   1       1.164   0.791   0.000  0.00  0.00     0.100 A 
BRANCH  20  23
ATOM     23  C   UNL d   1       2.863   2.153   0.000  0.00  0.00     0.064 A 
ATOM     24  C   UNL d   1       3.469   1.586   0.000  0.00  0.00     0.016 A 
ATOM     25  C   UNL d   1       3.321   0.768   0.000  0.00  0.00     0.002 C 
ATOM     26  C   UNL d   1       4.247   1.847   0.000  0.00  0.00     0.001 A 
ATOM     27  C   UNL d   1       4.422   2.665   0.000  0.00  0.00     0.000 A 
ATOM     28  C   UNL d   1       3.815   3.204   0.000  0.00  0.00     0.002 A 
ATOM     29  C   UNL d   1       3.038   2.948   0.000  0.00  0.00     0.018 A 
ENDBRANCH  20  23
ENDBRANCH   1  17
TORSDOF 5
