REMARK  5 active torsions:
REMARK  status: ('A' for Active; 'I' for Inactive)
REMARK    1  A    between atoms: C_9  and  C_1 
REMARK    2  A    between atoms: C_6  and  C_4 
REMARK    3  A    between atoms: C_5  and  C_6 
REMARK    4  A    between atoms: C_8  and  C_5 
REMARK    5  A    between atoms: C_11  and  C_8 
ROOT
ATOM      1  C   UNL d   1      -2.103   0.361   0.000  0.00  0.00     0.100 A 
ATOM      2  O   UNL d   1      -1.464  -0.199   0.000  0.00  0.00    -0.307 OA
ATOM      3  C   UNL d   1      -1.804   1.078   0.000  0.00  0.00     0.027 A 
ATOM      4  C   UNL d   1      -0.767   0.261   0.000  0.00  0.00     0.100 A 
ATOM      5  C   UNL d   1      -0.991   1.041   0.000  0.00  0.00     0.027 A 
ENDROOT
BRANCH   4   6
ATOM      6  C   UNL d   1       0.029   0.046   0.000  0.00  0.00     0.028 C 
BRANCH   6   7
ATOM      7  C   UNL d   1       0.601   0.618   0.000  0.00  0.00     0.044 C 
BRANCH   7   8
ATOM      8  C   UNL d   1       0.386   1.414   0.000  0.00  0.00     0.196 C 
ATOM      9  O   UNL d   1      -0.431   1.613   0.000  0.00  0.00    -0.287 OA
BRANCH   8  10
ATOM     10  C   UNL d   1       0.962   1.991   0.000  0.00  0.00     0.039 A 
ATOM     11  C   UNL d   1       0.763   2.800   0.000  0.00  0.00     0.003 A 
ATOM     12  C   UNL d   1       1.344   3.380   0.000  0.00  0.00     0.000 A 
ATOM     13  C   UNL d   1       2.144   3.156   0.000  0.00  0.00     0.000 A 
ATOM     14  C   UNL d   1       2.343   2.352   0.000  0.00  0.00     0.000 A 
ATOM     15  C   UNL d   1       1.758   1.788   0.000  0.00  0.00     0.003 A 
ENDBRANCH   8  10
ENDBRANCH   7   8
ENDBRANCH   6   7
ENDBRANCH   4   6
BRANCH   1  16
ATOM     16  C   UNL d   1      -2.857   0.021   0.000  0.00  0.00     0.023 A 
ATOM     17  C   UNL d   1      -2.936  -0.813   0.000  0.00  0.00     0.002 A 
ATOM     18  C   UNL d   1      -3.695  -1.149   0.000  0.00  0.00     0.000 A 
ATOM     19  C   UNL d   1      -4.351  -0.676   0.000  0.00  0.00     0.000 A 
ATOM     20  C   UNL d   1      -4.276   0.162   0.000  0.00  0.00     0.000 A 
ATOM     21  C   UNL d   1      -3.517   0.498   0.000  0.00  0.00     0.002 A 
ENDBRANCH   1  16
TORSDOF 5
