REMARK  6 active torsions:
REMARK  status: ('A' for Active; 'I' for Inactive)
REMARK    1  A    between atoms: N_6  and  C_1 
REMARK    2  A    between atoms: C_3  and  N_6 
REMARK    3  A    between atoms: N_4  and  C_3 
REMARK       I    between atoms: C_9  and  N_4 
REMARK    4  A    between atoms: C_12  and  C_9 
REMARK    5  A    between atoms: C_10  and  C_13 
REMARK    6  A    between atoms: C_16  and  C_10 
ROOT
ATOM      1  N   UNL d   1       5.590  -2.895   0.000  0.00  0.00    -0.179 NA
ATOM      2  C   UNL d   1       6.027  -3.565   0.000  0.00  0.00     0.281 C 
ATOM      3  O   UNL d   1       5.635  -4.312   0.000  0.00  0.00    -0.265 OA
ENDROOT
BRANCH   2   4
ATOM      4  C   UNL d   1       6.847  -3.565   0.000  0.00  0.00     0.058 A 
ATOM      5  C   UNL d   1       7.280  -4.267   0.000  0.00  0.00     0.005 A 
ATOM      6  C   UNL d   1       8.064  -4.267   0.000  0.00  0.00     0.003 A 
ATOM      7  C   UNL d   1       8.493  -3.565   0.000  0.00  0.00     0.039 A 
ATOM      8  C   UNL d   1       8.064  -2.858   0.000  0.00  0.00     0.003 A 
ATOM      9  C   UNL d   1       7.280  -2.858   0.000  0.00  0.00     0.005 A 
BRANCH   7  10
ATOM     10  C   UNL d   1       9.314  -3.565   0.000  0.00  0.00     0.196 C 
ATOM     11  O   UNL d   1       9.751  -4.267   0.000  0.00  0.00    -0.287 OA
BRANCH  10  12
ATOM     12  C   UNL d   1       9.751  -2.858   0.000  0.00  0.00     0.039 A 
ATOM     13  C   UNL d   1      10.534  -2.858   0.000  0.00  0.00     0.003 A 
ATOM     14  C   UNL d   1      10.963  -2.156   0.000  0.00  0.00     0.000 A 
ATOM     15  C   UNL d   1      10.534  -1.450   0.000  0.00  0.00     0.000 A 
ATOM     16  C   UNL d   1       9.751  -1.450   0.000  0.00  0.00     0.000 A 
ATOM     17  C   UNL d   1       9.314  -2.156   0.000  0.00  0.00     0.003 A 
ENDBRANCH  10  12
ENDBRANCH   7  10
ENDBRANCH   2   4
BRANCH   1  18
ATOM     18  C   UNL d   1       4.806  -2.940   0.000  0.00  0.00     0.225 C 
ATOM     19  S   UNL d   1       4.414  -3.642   0.000  0.00  0.00    -0.037 SA
BRANCH  18  20
ATOM     20  N   UNL d   1       4.340  -2.233   0.000  0.00  0.00    -0.192 NA
BRANCH  20  21
ATOM     21  C   UNL d   1       3.516  -2.307   0.000  0.00  0.00     0.196 A 
ATOM     22  N   UNL d   1       3.087  -2.977   0.000  0.00  0.00    -0.221 NA
ATOM     23  C   UNL d   1       2.303  -2.744   0.000  0.00  0.00     0.090 A 
ATOM     24  C   UNL d   1       1.597  -3.173   0.000  0.00  0.00     0.020 A 
ATOM     25  C   UNL d   1       2.303  -1.915   0.000  0.00  0.00     0.050 A 
ATOM     26  C   UNL d   1       0.886  -2.744   0.000  0.00  0.00     0.002 A 
ATOM     27  C   UNL d   1       0.886  -1.915   0.000  0.00  0.00     0.001 A 
ATOM     28  C   UNL d   1       1.597  -1.523   0.000  0.00  0.00     0.008 A 
ATOM     29  S   UNL d   1       3.087  -1.682   0.000  0.00  0.00    -0.047 SA
ENDBRANCH  20  21
ENDBRANCH  18  20
ENDBRANCH   1  18
TORSDOF 6
