REMARK  3 active torsions:
REMARK  status: ('A' for Active; 'I' for Inactive)
REMARK    1  A    between atoms: C_7  and  C_1 
REMARK    2  A    between atoms: C_9  and  C_6 
REMARK    3  A    between atoms: O_13  and  C_7 
ROOT
ATOM      1  C   UNL d   1      -2.463   2.568   0.000  0.00  0.00     0.097 A 
ATOM      2  C   UNL d   1      -2.463   1.746   0.000  0.00  0.00     0.073 A 
ATOM      3  C   UNL d   1      -3.890   1.746   0.000  0.00  0.00     0.206 A 
ATOM      4  N   UNL d   1      -3.172   1.330   0.000  0.00  0.00    -0.280 N 
ATOM      5  N   UNL d   1      -3.890   2.568   0.000  0.00  0.00    -0.218 NA
ATOM      6  C   UNL d   1      -3.172   2.992   0.000  0.00  0.00     0.090 A 
ATOM      7  S   UNL d   1      -4.603   1.330   0.000  0.00  0.00    -0.038 SA
ATOM      8  C   UNL d   1      -1.733   1.330   0.000  0.00  0.00     0.019 C 
ATOM      9  C   UNL d   1      -3.172   0.504   0.000  0.00  0.00     0.101 C 
ENDROOT
BRANCH   6  10
ATOM     10  C   UNL d   1      -3.172   3.823   0.000  0.00  0.00     0.018 A 
ATOM     11  C   UNL d   1      -3.890   4.230   0.000  0.00  0.00     0.002 A 
ATOM     12  C   UNL d   1      -3.890   5.052   0.000  0.00  0.00     0.000 A 
ATOM     13  C   UNL d   1      -3.172   5.468   0.000  0.00  0.00     0.000 A 
ATOM     14  C   UNL d   1      -2.463   5.052   0.000  0.00  0.00     0.000 A 
ATOM     15  C   UNL d   1      -2.463   4.230   0.000  0.00  0.00     0.002 A 
ENDBRANCH   6  10
BRANCH   1  16
ATOM     16  C   UNL d   1      -1.733   2.992   0.000  0.00  0.00     0.299 C 
ATOM     17  O   UNL d   1      -1.733   3.823   0.000  0.00  0.00    -0.259 OA
BRANCH  16  18
ATOM     18  O   UNL d   1      -1.020   2.568   0.000  0.00  0.00    -0.296 OA
ATOM     19  C   UNL d   1      -1.020   1.746   0.000  0.00  0.00     0.185 C 
ENDBRANCH  16  18
ENDBRANCH   1  16
TORSDOF 3
