REMARK  3 active torsions:
REMARK  status: ('A' for Active; 'I' for Inactive)
REMARK    1  A    between atoms: C_8  and  N_1 
REMARK    2  A    between atoms: N_10  and  C_5 
REMARK    3  A    between atoms: C_15  and  N_10 
ROOT
ATOM      1  N   UNL d   1      -2.357   1.495   0.000  0.00  0.00    -0.212 N 
ATOM      2  C   UNL d   1      -3.144   1.745   0.000  0.00  0.00     0.170 A 
ATOM      3  C   UNL d   1      -3.148   2.570   0.000  0.00  0.00     0.093 A 
ATOM      4  N   UNL d   1      -1.874   2.170   0.000  0.00  0.00    -0.162 NA
ATOM      5  C   UNL d   1      -3.869   2.982   0.000  0.00  0.00     0.169 A 
ATOM      6  C   UNL d   1      -2.370   2.832   0.000  0.00  0.00     0.127 A 
ATOM      7  N   UNL d   1      -3.856   1.320   0.000  0.00  0.00    -0.205 NA
ATOM      8  N   UNL d   1      -4.581   2.557   0.000  0.00  0.00    -0.205 NA
ATOM      9  C   UNL d   1      -4.569   1.732   0.000  0.00  0.00     0.202 A 
ENDROOT
BRANCH   1  10
ATOM     10  C   UNL d   1      -2.095   0.712   0.000  0.00  0.00     0.085 A 
ATOM     11  C   UNL d   1      -2.636   0.096   0.000  0.00  0.00     0.019 A 
ATOM     12  C   UNL d   1      -2.370  -0.691   0.000  0.00  0.00     0.002 A 
ATOM     13  C   UNL d   1      -2.907  -1.312   0.000  0.00  0.00     0.000 C 
ATOM     14  C   UNL d   1      -1.570  -0.854   0.000  0.00  0.00     0.000 A 
ATOM     15  C   UNL d   1      -1.020  -0.229   0.000  0.00  0.00     0.002 A 
ATOM     16  C   UNL d   1      -1.274   0.545   0.000  0.00  0.00     0.019 A 
ENDBRANCH   1  10
BRANCH   5  17
ATOM     17  N   UNL d   1      -3.881   3.798   0.000  0.00  0.00    -0.227 NA
BRANCH  17  18
ATOM     18  C   UNL d   1      -4.593   4.198   0.000  0.00  0.00     0.083 C 
ATOM     19  C   UNL d   1      -5.306   3.781   0.000  0.00  0.00     0.021 C 
ATOM     20  C   UNL d   1      -4.606   5.027   0.000  0.00  0.00     0.021 C 
ENDBRANCH  17  18
ENDBRANCH   5  17
TORSDOF 3
