REMARK  5 active torsions:
REMARK  status: ('A' for Active; 'I' for Inactive)
REMARK    1  A    between atoms: C_12  and  N_1 
REMARK    2  A    between atoms: N_7  and  C_5 
REMARK    3  A    between atoms: C_10  and  N_7 
REMARK    4  A    between atoms: O_14  and  C_13 
REMARK    5  A    between atoms: C_19  and  O_14 
ROOT
ATOM      1  N   UNL d   1      -2.358   1.496   0.000  0.00  0.00    -0.212 N 
ATOM      2  C   UNL d   1      -3.145   1.746   0.000  0.00  0.00     0.170 A 
ATOM      3  C   UNL d   1      -3.150   2.571   0.000  0.00  0.00     0.093 A 
ATOM      4  N   UNL d   1      -1.875   2.171   0.000  0.00  0.00    -0.162 NA
ATOM      5  C   UNL d   1      -3.870   2.983   0.000  0.00  0.00     0.169 A 
ATOM      6  C   UNL d   1      -2.370   2.833   0.000  0.00  0.00     0.127 A 
ATOM      7  N   UNL d   1      -3.858   1.321   0.000  0.00  0.00    -0.205 NA
ATOM      8  N   UNL d   1      -4.583   2.558   0.000  0.00  0.00    -0.205 NA
ATOM      9  C   UNL d   1      -4.570   1.733   0.000  0.00  0.00     0.202 A 
ENDROOT
BRANCH   5  10
ATOM     10  N   UNL d   1      -3.883   3.800   0.000  0.00  0.00    -0.225 NA
BRANCH  10  11
ATOM     11  C   UNL d   1      -4.595   4.199   0.000  0.00  0.00     0.106 A 
ATOM     12  C   UNL d   1      -5.312   3.783   0.000  0.00  0.00     0.118 A 
ATOM     13  C   UNL d   1      -6.024   4.179   0.000  0.00  0.00     0.026 A 
ATOM     14  C   UNL d   1      -6.029   5.016   0.000  0.00  0.00     0.002 A 
ATOM     15  C   UNL d   1      -5.333   5.429   0.000  0.00  0.00     0.002 A 
ATOM     16  C   UNL d   1      -4.608   5.024   0.000  0.00  0.00     0.021 A 
BRANCH  12  17
ATOM     17  O   UNL d   1      -5.299   2.958   0.000  0.00  0.00    -0.304 OA
BRANCH  17  18
ATOM     18  C   UNL d   1      -6.012   2.533   0.000  0.00  0.00     0.123 C 
ATOM     19  C   UNL d   1      -6.728   2.937   0.000  0.00  0.00     0.029 C 
ENDBRANCH  17  18
ENDBRANCH  12  17
ENDBRANCH  10  11
ENDBRANCH   5  10
BRANCH   1  20
ATOM     20  C   UNL d   1      -2.096   0.712   0.000  0.00  0.00     0.085 A 
ATOM     21  C   UNL d   1      -1.283   0.550   0.000  0.00  0.00     0.019 A 
ATOM     22  C   UNL d   1      -1.021  -0.229   0.000  0.00  0.00     0.002 A 
ATOM     23  C   UNL d   1      -1.571  -0.854   0.000  0.00  0.00     0.000 A 
ATOM     24  C   UNL d   1      -2.375  -0.692   0.000  0.00  0.00     0.002 A 
ATOM     25  C   UNL d   1      -2.646   0.087   0.000  0.00  0.00     0.019 A 
ENDBRANCH   1  20
TORSDOF 5
