REMARK  3 active torsions:
REMARK  status: ('A' for Active; 'I' for Inactive)
REMARK    1  A    between atoms: C_9  and  C_2 
REMARK    2  A    between atoms: C_10  and  C_6 
REMARK    3  A    between atoms: O_18  and  C_9 
ROOT
ATOM      1  C   UNL d   1      -1.746   1.333   0.000  0.00  0.00     0.044 A 
ATOM      2  C   UNL d   1      -0.463   0.921   0.000  0.00  0.00     0.113 A 
ATOM      3  C   UNL d   1      -0.950   1.587   0.000  0.00  0.00     0.116 A 
ATOM      4  C   UNL d   1      -1.746   0.500   0.000  0.00  0.00     0.112 A 
ATOM      5  S   UNL d   1      -0.950   0.246   0.000  0.00  0.00    -0.061 SA
ATOM      6  C   UNL d   1      -2.458   1.738   0.000  0.00  0.00     0.011 A 
ATOM      7  N   UNL d   1      -2.450   0.096   0.000  0.00  0.00    -0.239 NA
ATOM      8  C   UNL d   1      -3.163   1.325   0.000  0.00  0.00     0.018 A 
ATOM      9  C   UNL d   1      -3.163   0.508   0.000  0.00  0.00     0.082 A 
ATOM     10  N   UNL d   1      -0.696   2.371   0.000  0.00  0.00    -0.147 N 
ATOM     11  C   UNL d   1      -3.875   1.746   0.000  0.00  0.00     0.002 A 
ATOM     12  C   UNL d   1      -3.875   0.096   0.000  0.00  0.00     0.019 A 
ATOM     13  C   UNL d   1      -4.583   1.325   0.000  0.00  0.00     0.000 A 
ATOM     14  C   UNL d   1      -4.583   0.500   0.000  0.00  0.00     0.002 A 
ENDROOT
BRANCH   6  15
ATOM     15  C   UNL d   1      -2.450   2.562   0.000  0.00  0.00     0.030 A 
ATOM     16  S   UNL d   1      -1.783   3.050   0.000  0.00  0.00    -0.086 SA
ATOM     17  C   UNL d   1      -2.046   3.833   0.000  0.00  0.00     0.035 A 
ATOM     18  C   UNL d   1      -2.871   3.833   0.000  0.00  0.00     0.007 A 
ATOM     19  C   UNL d   1      -3.121   3.046   0.000  0.00  0.00     0.007 A 
ENDBRANCH   6  15
BRANCH   2  20
ATOM     20  C   UNL d   1       0.362   0.921   0.000  0.00  0.00     0.303 C 
ATOM     21  O   UNL d   1       0.775   1.633   0.000  0.00  0.00    -0.259 OA
BRANCH  20  22
ATOM     22  O   UNL d   1       0.767   0.208   0.000  0.00  0.00    -0.295 OA
ATOM     23  C   UNL d   1       1.592   0.208   0.000  0.00  0.00     0.185 C 
ENDBRANCH  20  22
ENDBRANCH   2  20
TORSDOF 3
