REMARK  5 active torsions:
REMARK  status: ('A' for Active; 'I' for Inactive)
REMARK    1  A    between atoms: N_6  and  C_1 
REMARK    2  A    between atoms: C_8  and  C_2 
REMARK    3  A    between atoms: C_11  and  C_3 
REMARK       I    between atoms: C_7  and  N_6 
REMARK    4  A    between atoms: C_9  and  C_7 
REMARK    5  A    between atoms: C_20  and  C_11 
ROOT
ATOM      1  C   UNL d   1       0.554   1.707   0.000  0.00  0.00     0.119 A 
ATOM      2  C   UNL d   1       0.887   2.456   0.000  0.00  0.00     0.084 A 
ATOM      3  C   UNL d   1      -0.445   2.593   0.000  0.00  0.00     0.031 A 
ATOM      4  S   UNL d   1      -0.271   1.782   0.000  0.00  0.00    -0.068 SA
ATOM      5  C   UNL d   1       0.267   3.006   0.000  0.00  0.00     0.013 A 
ATOM      6  C   UNL d   1       0.341   3.830   0.000  0.00  0.00     0.001 C 
ENDROOT
BRANCH   1   7
ATOM      7  N   UNL d   1       0.978   0.982   0.000  0.00  0.00    -0.201 NA
ATOM      8  C   UNL d   1       0.566   0.258   0.000  0.00  0.00     0.280 C 
ATOM      9  O   UNL d   1      -0.258   0.246   0.000  0.00  0.00    -0.265 OA
BRANCH   8  10
ATOM     10  C   UNL d   1       0.991  -0.454   0.000  0.00  0.00     0.058 A 
ATOM     11  C   UNL d   1       0.587  -1.178   0.000  0.00  0.00     0.005 A 
ATOM     12  C   UNL d   1       1.003  -1.865   0.000  0.00  0.00     0.000 A 
ATOM     13  C   UNL d   1       0.566  -2.577   0.000  0.00  0.00     0.000 A 
ATOM     14  C   UNL d   1       1.815  -1.886   0.000  0.00  0.00     0.000 A 
ATOM     15  C   UNL d   1       0.962  -3.289   0.000  0.00  0.00     0.000 A 
ATOM     16  C   UNL d   1       1.786  -3.314   0.000  0.00  0.00     0.000 A 
ATOM     17  C   UNL d   1       2.210  -2.602   0.000  0.00  0.00     0.000 A 
ATOM     18  C   UNL d   1       2.240  -1.149   0.000  0.00  0.00     0.000 A 
ATOM     19  C   UNL d   1       1.815  -0.441   0.000  0.00  0.00     0.005 A 
ENDBRANCH   8  10
ENDBRANCH   1   7
BRANCH   2  20
ATOM     20  C   UNL d   1       1.690   2.643   0.000  0.00  0.00     0.299 C 
ATOM     21  O   UNL d   1       2.285   1.986   0.000  0.00  0.00    -0.264 OA
ATOM     22  N   UNL d   1       1.927   3.372   0.000  0.00  0.00    -0.102 N 
ENDBRANCH   2  20
BRANCH   3  23
ATOM     23  C   UNL d   1      -1.170   3.006   0.000  0.00  0.00     0.007 C 
BRANCH  23  24
ATOM     24  C   UNL d   1      -1.886   2.581   0.000  0.00  0.00     0.003 A 
ATOM     25  C   UNL d   1      -2.606   2.993   0.000  0.00  0.00     0.026 A 
ATOM     26  C   UNL d   1      -3.318   2.581   0.000  0.00  0.00     0.119 A 
ATOM     27  O   UNL d   1      -4.096   2.835   0.000  0.00  0.00    -0.300 OA
ATOM     28  C   UNL d   1      -3.318   1.757   0.000  0.00  0.00     0.119 A 
ATOM     29  C   UNL d   1      -4.579   2.173   0.000  0.00  0.00     0.304 A 
ATOM     30  O   UNL d   1      -4.096   1.507   0.000  0.00  0.00    -0.300 OA
ATOM     31  C   UNL d   1      -2.606   1.345   0.000  0.00  0.00     0.026 A 
ATOM     32  C   UNL d   1      -1.886   1.757   0.000  0.00  0.00     0.002 A 
ENDBRANCH  23  24
ENDBRANCH   3  23
TORSDOF 5
