REMARK  5 active torsions:
REMARK  status: ('A' for Active; 'I' for Inactive)
REMARK    1  A    between atoms: N_6  and  C_1 
REMARK    2  A    between atoms: C_8  and  C_2 
REMARK    3  A    between atoms: C_10  and  C_3 
REMARK       I    between atoms: C_7  and  N_6 
REMARK    4  A    between atoms: C_18  and  C_7 
REMARK    5  A    between atoms: C_17  and  C_10 
ROOT
ATOM      1  C   UNL d   1       0.554   1.708   0.000  0.00  0.00     0.119 A 
ATOM      2  C   UNL d   1       0.887   2.458   0.000  0.00  0.00     0.084 A 
ATOM      3  C   UNL d   1      -0.446   2.595   0.000  0.00  0.00     0.031 A 
ATOM      4  S   UNL d   1      -0.271   1.783   0.000  0.00  0.00    -0.068 SA
ATOM      5  C   UNL d   1       0.267   3.008   0.000  0.00  0.00     0.013 A 
ATOM      6  C   UNL d   1       0.342   3.833   0.000  0.00  0.00     0.001 C 
ENDROOT
BRANCH   3   7
ATOM      7  C   UNL d   1      -1.171   3.008   0.000  0.00  0.00     0.007 C 
BRANCH   7   8
ATOM      8  C   UNL d   1      -1.887   2.583   0.000  0.00  0.00     0.003 A 
ATOM      9  C   UNL d   1      -2.608   2.995   0.000  0.00  0.00     0.026 A 
ATOM     10  C   UNL d   1      -3.320   2.583   0.000  0.00  0.00     0.119 A 
ATOM     11  O   UNL d   1      -4.099   2.837   0.000  0.00  0.00    -0.300 OA
ATOM     12  C   UNL d   1      -3.320   1.758   0.000  0.00  0.00     0.119 A 
ATOM     13  C   UNL d   1      -4.583   2.175   0.000  0.00  0.00     0.304 A 
ATOM     14  O   UNL d   1      -4.099   1.508   0.000  0.00  0.00    -0.300 OA
ATOM     15  C   UNL d   1      -2.608   1.346   0.000  0.00  0.00     0.026 A 
ATOM     16  C   UNL d   1      -1.887   1.758   0.000  0.00  0.00     0.002 A 
ENDBRANCH   7   8
ENDBRANCH   3   7
BRANCH   1  17
ATOM     17  N   UNL d   1       0.979   0.983   0.000  0.00  0.00    -0.201 NA
ATOM     18  C   UNL d   1       0.567   0.258   0.000  0.00  0.00     0.280 C 
ATOM     19  O   UNL d   1      -0.258   0.246   0.000  0.00  0.00    -0.265 OA
BRANCH  18  20
ATOM     20  C   UNL d   1       0.992  -0.454   0.000  0.00  0.00     0.058 A 
ATOM     21  C   UNL d   1       1.817  -0.450   0.000  0.00  0.00     0.005 A 
ATOM     22  C   UNL d   1       2.241  -1.154   0.000  0.00  0.00     0.000 A 
ATOM     23  C   UNL d   1       1.841  -1.879   0.000  0.00  0.00     0.000 A 
ATOM     24  C   UNL d   1       1.012  -1.879   0.000  0.00  0.00     0.000 A 
ATOM     25  C   UNL d   1       0.592  -1.175   0.000  0.00  0.00     0.005 A 
ENDBRANCH  18  20
ENDBRANCH   1  17
BRANCH   2  26
ATOM     26  C   UNL d   1       1.692   2.646   0.000  0.00  0.00     0.299 C 
ATOM     27  O   UNL d   1       2.287   1.987   0.000  0.00  0.00    -0.264 OA
ATOM     28  N   UNL d   1       1.929   3.375   0.000  0.00  0.00    -0.102 N 
ENDBRANCH   2  26
TORSDOF 5
