REMARK  4 active torsions:
REMARK  status: ('A' for Active; 'I' for Inactive)
REMARK    1  A    between atoms: C_7  and  C_1 
REMARK    2  A    between atoms: N_5  and  C_3 
REMARK       I    between atoms: C_8  and  N_5 
REMARK    3  A    between atoms: C_9  and  C_8 
REMARK    4  A    between atoms: O_21  and  C_15 
ROOT
ATOM      1  C   UNL d   1      -3.793   2.811   0.000  0.00  0.00     0.137 A 
ATOM      2  S   UNL d   1      -3.123   2.332   0.000  0.00  0.00    -0.026 SA
ATOM      3  C   UNL d   1      -2.457   2.811   0.000  0.00  0.00     0.219 A 
ATOM      4  N   UNL d   1      -3.535   3.606   0.000  0.00  0.00    -0.139 NA
ATOM      5  N   UNL d   1      -2.711   3.606   0.000  0.00  0.00    -0.121 NA
ENDROOT
BRANCH   3   6
ATOM      6  N   UNL d   1      -1.674   2.557   0.000  0.00  0.00    -0.181 NA
ATOM      7  C   UNL d   1      -0.962   2.981   0.000  0.00  0.00     0.281 C 
ATOM      8  O   UNL d   1      -0.974   3.797   0.000  0.00  0.00    -0.265 OA
BRANCH   7   9
ATOM      9  C   UNL d   1      -0.246   2.569   0.000  0.00  0.00     0.060 A 
ATOM     10  C   UNL d   1       0.462   2.994   0.000  0.00  0.00     0.031 A 
ATOM     11  C   UNL d   1       1.174   2.594   0.000  0.00  0.00     0.119 A 
ATOM     12  O   UNL d   1       1.953   2.856   0.000  0.00  0.00    -0.300 OA
ATOM     13  C   UNL d   1       1.187   1.770   0.000  0.00  0.00     0.119 A 
ATOM     14  C   UNL d   1       2.453   2.194   0.000  0.00  0.00     0.304 A 
ATOM     15  O   UNL d   1       1.974   1.520   0.000  0.00  0.00    -0.300 OA
ATOM     16  C   UNL d   1       0.479   1.345   0.000  0.00  0.00     0.026 A 
ATOM     17  C   UNL d   1      -0.237   1.745   0.000  0.00  0.00     0.007 A 
ENDBRANCH   7   9
ENDBRANCH   3   6
BRANCH   1  18
ATOM     18  C   UNL d   1      -4.580   2.557   0.000  0.00  0.00     0.048 A 
ATOM     19  C   UNL d   1      -5.205   3.106   0.000  0.00  0.00     0.096 A 
ATOM     20  C   UNL d   1      -5.979   2.856   0.000  0.00  0.00     0.024 A 
ATOM     21  C   UNL d   1      -6.146   2.044   0.000  0.00  0.00     0.002 A 
ATOM     22  C   UNL d   1      -5.542   1.495   0.000  0.00  0.00     0.000 A 
ATOM     23  C   UNL d   1      -4.755   1.757   0.000  0.00  0.00     0.004 A 
BRANCH  19  24
ATOM     24  O   UNL d   1      -5.030   3.906   0.000  0.00  0.00    -0.328 OA
ATOM     25  C   UNL d   1      -5.642   4.460   0.000  0.00  0.00     0.181 C 
ENDBRANCH  19  24
ENDBRANCH   1  18
TORSDOF 4
