REMARK  10 active torsions:
REMARK  status: ('A' for Active; 'I' for Inactive)
REMARK    1  A    between atoms: S_6  and  C_1 
REMARK    2  A    between atoms: C_12  and  N_2 
REMARK    3  A    between atoms: C_11  and  C_4 
REMARK    4  A    between atoms: C_10  and  S_6 
REMARK       I    between atoms: C_7  and  N_9 
REMARK    5  A    between atoms: C_13  and  C_7 
REMARK    6  A    between atoms: C_8  and  C_10 
REMARK    7  A    between atoms: O_18  and  C_8 
REMARK    8  A    between atoms: N_9  and  C_11 
REMARK    9  A    between atoms: C_26  and  O_18 
REMARK   10  A    between atoms: O_22  and  C_19 
ROOT
ATOM      1  C   UNL d   1      -0.797   2.501   0.000  0.00  0.00     0.201 A 
ATOM      2  N   UNL d   1      -1.461   2.990   0.000  0.00  0.00    -0.268 N 
ATOM      3  N   UNL d   1      -1.052   1.712   0.000  0.00  0.00    -0.121 NA
ATOM      4  C   UNL d   1      -2.129   2.493   0.000  0.00  0.00     0.190 A 
ATOM      5  N   UNL d   1      -1.866   1.704   0.000  0.00  0.00    -0.126 NA
ENDROOT
BRANCH   4   6
ATOM      6  C   UNL d   1      -2.918   2.739   0.000  0.00  0.00     0.141 C 
BRANCH   6   7
ATOM      7  N   UNL d   1      -3.340   2.025   0.000  0.00  0.00    -0.203 NA
ATOM      8  C   UNL d   1      -4.167   2.038   0.000  0.00  0.00     0.279 C 
ATOM      9  O   UNL d   1      -4.572   2.752   0.000  0.00  0.00    -0.265 OA
BRANCH   8  10
ATOM     10  C   UNL d   1      -4.580   1.323   0.000  0.00  0.00     0.058 A 
ATOM     11  C   UNL d   1      -4.179   0.610   0.000  0.00  0.00     0.007 A 
ATOM     12  C   UNL d   1      -4.593  -0.104   0.000  0.00  0.00     0.024 A 
ATOM     13  C   UNL d   1      -5.420  -0.092   0.000  0.00  0.00     0.094 A 
ATOM     14  C   UNL d   1      -5.820   0.622   0.000  0.00  0.00     0.024 A 
ATOM     15  C   UNL d   1      -5.407   1.336   0.000  0.00  0.00     0.007 A 
BRANCH  13  16
ATOM     16  O   UNL d   1      -5.833  -0.806   0.000  0.00  0.00    -0.328 OA
ATOM     17  C   UNL d   1      -6.651  -0.802   0.000  0.00  0.00     0.181 C 
ENDBRANCH  13  16
ENDBRANCH   8  10
ENDBRANCH   6   7
ENDBRANCH   4   6
BRANCH   2  18
ATOM     18  C   UNL d   1      -1.461   3.804   0.000  0.00  0.00     0.067 A 
ATOM     19  C   UNL d   1      -0.752   4.221   0.000  0.00  0.00     0.018 A 
ATOM     20  C   UNL d   1      -0.752   5.040   0.000  0.00  0.00     0.002 A 
ATOM     21  C   UNL d   1      -1.461   5.453   0.000  0.00  0.00     0.000 A 
ATOM     22  C   UNL d   1      -2.175   5.040   0.000  0.00  0.00     0.002 A 
ATOM     23  C   UNL d   1      -2.175   4.213   0.000  0.00  0.00     0.018 A 
ENDBRANCH   2  18
BRANCH   1  24
ATOM     24  S   UNL d   1      -0.008   2.752   0.000  0.00  0.00    -0.043 SA
BRANCH  24  25
ATOM     25  C   UNL d   1       0.606   2.200   0.000  0.00  0.00     0.096 C 
ATOM     26  C   UNL d   1       0.438   1.399   0.000  0.00  0.00     0.013 C 
BRANCH  25  27
ATOM     27  C   UNL d   1       1.395   2.451   0.000  0.00  0.00     0.306 C 
ATOM     28  O   UNL d   1       2.004   1.900   0.000  0.00  0.00    -0.258 OA
BRANCH  27  29
ATOM     29  O   UNL d   1       1.557   3.252   0.000  0.00  0.00    -0.271 OA
BRANCH  29  30
ATOM     30  C   UNL d   1       2.347   3.516   0.000  0.00  0.00     0.126 C 
ATOM     31  C   UNL d   1       2.522   4.301   0.000  0.00  0.00     0.029 C 
ENDBRANCH  29  30
ENDBRANCH  27  29
ENDBRANCH  25  27
ENDBRANCH  24  25
ENDBRANCH   1  24
TORSDOF 10
