REMARK  10 active torsions:
REMARK  status: ('A' for Active; 'I' for Inactive)
REMARK    1  A    between atoms: C_10  and  N_1 
REMARK    2  A    between atoms: S_7  and  C_2 
REMARK    3  A    between atoms: C_9  and  C_3 
REMARK       I    between atoms: C_6  and  N_8 
REMARK    4  A    between atoms: C_11  and  C_6 
REMARK    5  A    between atoms: C_15  and  S_7 
REMARK    6  A    between atoms: N_8  and  C_9 
REMARK    7  A    between atoms: C_12  and  C_15 
REMARK    8  A    between atoms: O_21  and  C_12 
REMARK    9  A    between atoms: O_22  and  C_18 
REMARK   10  A    between atoms: C_25  and  O_21 
ROOT
ATOM      1  N   UNL d   1      -1.462   2.990   0.000  0.00  0.00    -0.268 N 
ATOM      2  C   UNL d   1      -0.797   2.501   0.000  0.00  0.00     0.201 A 
ATOM      3  C   UNL d   1      -2.130   2.493   0.000  0.00  0.00     0.190 A 
ATOM      4  N   UNL d   1      -1.052   1.712   0.000  0.00  0.00    -0.121 NA
ATOM      5  N   UNL d   1      -1.867   1.704   0.000  0.00  0.00    -0.126 NA
ENDROOT
BRANCH   3   6
ATOM      6  C   UNL d   1      -2.919   2.739   0.000  0.00  0.00     0.141 C 
BRANCH   6   7
ATOM      7  N   UNL d   1      -3.341   2.025   0.000  0.00  0.00    -0.203 NA
ATOM      8  C   UNL d   1      -4.167   2.038   0.000  0.00  0.00     0.279 C 
ATOM      9  O   UNL d   1      -4.572   2.752   0.000  0.00  0.00    -0.265 OA
BRANCH   8  10
ATOM     10  C   UNL d   1      -4.581   1.324   0.000  0.00  0.00     0.058 A 
ATOM     11  C   UNL d   1      -4.180   0.610   0.000  0.00  0.00     0.007 A 
ATOM     12  C   UNL d   1      -4.593  -0.104   0.000  0.00  0.00     0.024 A 
ATOM     13  C   UNL d   1      -5.420  -0.092   0.000  0.00  0.00     0.094 A 
ATOM     14  C   UNL d   1      -5.821   0.622   0.000  0.00  0.00     0.024 A 
ATOM     15  C   UNL d   1      -5.408   1.336   0.000  0.00  0.00     0.007 A 
BRANCH  13  16
ATOM     16  O   UNL d   1      -5.833  -0.806   0.000  0.00  0.00    -0.328 OA
ATOM     17  C   UNL d   1      -6.652  -0.802   0.000  0.00  0.00     0.181 C 
ENDBRANCH  13  16
ENDBRANCH   8  10
ENDBRANCH   6   7
ENDBRANCH   3   6
BRANCH   1  18
ATOM     18  C   UNL d   1      -1.462   3.804   0.000  0.00  0.00     0.067 A 
ATOM     19  C   UNL d   1      -2.175   4.213   0.000  0.00  0.00     0.018 A 
ATOM     20  C   UNL d   1      -2.175   5.040   0.000  0.00  0.00     0.002 A 
ATOM     21  C   UNL d   1      -1.462   5.454   0.000  0.00  0.00     0.000 A 
ATOM     22  C   UNL d   1      -0.752   5.040   0.000  0.00  0.00     0.002 A 
ATOM     23  C   UNL d   1      -0.752   4.222   0.000  0.00  0.00     0.018 A 
ENDBRANCH   1  18
BRANCH   2  24
ATOM     24  S   UNL d   1      -0.008   2.752   0.000  0.00  0.00    -0.042 SA
BRANCH  24  25
ATOM     25  C   UNL d   1       0.606   2.201   0.000  0.00  0.00     0.107 C 
BRANCH  25  26
ATOM     26  C   UNL d   1       0.430   1.399   0.000  0.00  0.00     0.307 C 
ATOM     27  O   UNL d   1      -0.347   1.148   0.000  0.00  0.00    -0.258 OA
BRANCH  26  28
ATOM     28  O   UNL d   1       1.044   0.848   0.000  0.00  0.00    -0.271 OA
BRANCH  28  29
ATOM     29  C   UNL d   1       0.869   0.046   0.000  0.00  0.00     0.126 C 
ATOM     30  C   UNL d   1       1.482  -0.505   0.000  0.00  0.00     0.029 C 
ENDBRANCH  28  29
ENDBRANCH  26  28
ENDBRANCH  25  26
ENDBRANCH  24  25
ENDBRANCH   2  24
TORSDOF 10
