REMARK  10 active torsions:
REMARK  status: ('A' for Active; 'I' for Inactive)
REMARK    1  A    between atoms: N_11  and  C_1 
REMARK    2  A    between atoms: C_12  and  C_2 
REMARK    3  A    between atoms: C_4  and  S_15 
REMARK    4  A    between atoms: C_18  and  C_6 
REMARK       I    between atoms: C_16  and  N_11 
REMARK    5  A    between atoms: O_28  and  C_12 
REMARK       I    between atoms: C_13  and  N_17 
REMARK    6  A    between atoms: C_14  and  C_13 
REMARK    7  A    between atoms: S_15  and  C_26 
REMARK    8  A    between atoms: C_26  and  C_16 
REMARK    9  A    between atoms: N_17  and  C_18 
REMARK   10  A    between atoms: C_32  and  O_28 
ROOT
ATOM      1  C   UNL d   1      -2.704   2.330   0.000  0.00  0.00     0.101 C 
ENDROOT
BRANCH   1   2
ATOM      2  S   UNL d   1      -2.109   2.829   0.000  0.00  0.00    -0.043 SA
BRANCH   2   3
ATOM      3  C   UNL d   1      -1.344   2.492   0.000  0.00  0.00     0.202 A 
ATOM      4  N   UNL d   1      -0.674   2.979   0.000  0.00  0.00    -0.265 N 
ATOM      5  C   UNL d   1      -0.008   2.492   0.000  0.00  0.00     0.190 A 
ATOM      6  C   UNL d   1      -0.670   3.828   0.000  0.00  0.00     0.103 C 
ATOM      7  N   UNL d   1      -0.262   1.698   0.000  0.00  0.00    -0.126 NA
ATOM      8  N   UNL d   1      -1.086   1.698   0.000  0.00  0.00    -0.121 NA
BRANCH   5   9
ATOM      9  C   UNL d   1       0.778   2.742   0.000  0.00  0.00     0.141 C 
BRANCH   9  10
ATOM     10  N   UNL d   1       1.390   2.192   0.000  0.00  0.00    -0.202 NA
ATOM     11  C   UNL d   1       2.176   2.442   0.000  0.00  0.00     0.302 C 
ATOM     12  O   UNL d   1       2.346   3.253   0.000  0.00  0.00    -0.263 OA
BRANCH  11  13
ATOM     13  C   UNL d   1       2.800   1.881   0.000  0.00  0.00     0.158 A 
ATOM     14  O   UNL d   1       3.636   2.055   0.000  0.00  0.00    -0.300 OA
ATOM     15  C   UNL d   1       4.056   1.319   0.000  0.00  0.00     0.123 A 
ATOM     16  C   UNL d   1       3.486   0.686   0.000  0.00  0.00     0.029 A 
ATOM     17  C   UNL d   1       2.713   1.032   0.000  0.00  0.00     0.032 A 
ENDBRANCH  11  13
ENDBRANCH   9  10
ENDBRANCH   5   9
ENDBRANCH   2   3
ENDBRANCH   1   2
BRANCH   1  18
ATOM     18  C   UNL d   1      -2.704   1.456   0.000  0.00  0.00     0.286 C 
ATOM     19  N   UNL d   1      -3.578   0.957   0.000  0.00  0.00    -0.201 NA
ATOM     20  O   UNL d   1      -2.018   1.057   0.000  0.00  0.00    -0.265 OA
BRANCH  19  21
ATOM     21  C   UNL d   1      -4.306   1.381   0.000  0.00  0.00     0.119 A 
ATOM     22  C   UNL d   1      -4.306   2.130   0.000  0.00  0.00     0.088 A 
ATOM     23  C   UNL d   1      -5.600   2.147   0.000  0.00  0.00     0.013 A 
ATOM     24  C   UNL d   1      -6.232   2.534   0.000  0.00  0.00     0.001 A 
ATOM     25  C   UNL d   1      -5.600   1.394   0.000  0.00  0.00     0.031 A 
ATOM     26  C   UNL d   1      -6.894   2.168   0.000  0.00  0.00     0.001 A 
ATOM     27  C   UNL d   1      -6.894   1.410   0.000  0.00  0.00     0.006 A 
ATOM     28  S   UNL d   1      -4.963   1.011   0.000  0.00  0.00    -0.068 SA
BRANCH  22  29
ATOM     29  C   UNL d   1      -3.732   2.683   0.000  0.00  0.00     0.302 C 
ATOM     30  O   UNL d   1      -3.041   2.471   0.000  0.00  0.00    -0.259 OA
BRANCH  29  31
ATOM     31  O   UNL d   1      -3.952   3.491   0.000  0.00  0.00    -0.271 OA
BRANCH  31  32
ATOM     32  C   UNL d   1      -4.664   3.927   0.000  0.00  0.00     0.126 C 
ATOM     33  C   UNL d   1      -4.864   4.722   0.000  0.00  0.00     0.029 C 
ENDBRANCH  31  32
ENDBRANCH  29  31
ENDBRANCH  22  29
ENDBRANCH  19  21
ENDBRANCH   1  18
TORSDOF 10
