REMARK  5 active torsions:
REMARK  status: ('A' for Active; 'I' for Inactive)
REMARK    1  A    between atoms: C_4  and  N_1 
REMARK    2  A    between atoms: C_8  and  C_3 
REMARK    3  A    between atoms: N_7  and  C_4 
REMARK    4  A    between atoms: C_15  and  N_7 
REMARK    5  A    between atoms: C_17  and  C_15 
ROOT
ATOM      1  N   UNL d   1      -2.408   1.892   0.000  0.00  0.00    -0.281 N 
ATOM      2  C   UNL d   1      -3.240   3.040   0.000  0.00  0.00     0.080 A 
ATOM      3  C   UNL d   1      -2.491   2.708   0.000  0.00  0.00     0.084 A 
ATOM      4  N   UNL d   1      -3.905   2.558   0.000  0.00  0.00    -0.301 N 
ATOM      5  C   UNL d   1      -3.078   1.406   0.000  0.00  0.00     0.101 A 
ATOM      6  C   UNL d   1      -3.494   3.826   0.000  0.00  0.00     0.021 A 
ATOM      7  C   UNL d   1      -4.575   3.040   0.000  0.00  0.00     0.080 A 
ATOM      8  C   UNL d   1      -3.826   1.747   0.000  0.00  0.00     0.100 A 
ATOM      9  C   UNL d   1      -4.325   3.826   0.000  0.00  0.00     0.021 A 
ENDROOT
BRANCH   1  10
ATOM     10  C   UNL d   1      -1.655   1.547   0.000  0.00  0.00     0.184 C 
ATOM     11  S   UNL d   1      -0.994   2.030   0.000  0.00  0.00    -0.040 SA
BRANCH  10  12
ATOM     12  N   UNL d   1      -1.572   0.732   0.000  0.00  0.00    -0.330 N 
ATOM     13  H   UNL d   1      -2.242   0.249   0.000  0.00  0.00     0.168 HD
BRANCH  12  14
ATOM     14  C   UNL d   1      -0.824   0.395   0.000  0.00  0.00     0.074 C 
BRANCH  14  15
ATOM     15  C   UNL d   1      -0.158   0.873   0.000  0.00  0.00     0.017 A 
ATOM     16  C   UNL d   1       0.599   0.536   0.000  0.00  0.00     0.002 A 
ATOM     17  C   UNL d   1       1.264   1.023   0.000  0.00  0.00     0.000 A 
ATOM     18  C   UNL d   1       1.185   1.847   0.000  0.00  0.00     0.000 A 
ATOM     19  C   UNL d   1       0.424   2.179   0.000  0.00  0.00     0.000 A 
ATOM     20  C   UNL d   1      -0.245   1.693   0.000  0.00  0.00     0.002 A 
ENDBRANCH  14  15
ENDBRANCH  12  14
ENDBRANCH  10  12
ENDBRANCH   1  10
BRANCH   3  21
ATOM     21  C   UNL d   1      -1.822   3.190   0.000  0.00  0.00     0.037 A 
ATOM     22  C   UNL d   1      -1.069   2.853   0.000  0.00  0.00     0.100 A 
ATOM     23  N   UNL d   1      -0.407   3.340   0.000  0.00  0.00    -0.242 NA
ATOM     24  C   UNL d   1      -0.482   4.147   0.000  0.00  0.00     0.099 A 
ATOM     25  C   UNL d   1      -1.235   4.492   0.000  0.00  0.00     0.021 A 
ATOM     26  C   UNL d   1      -1.905   4.009   0.000  0.00  0.00     0.005 A 
ENDBRANCH   3  21
TORSDOF 5
