REMARK  2 active torsions:
REMARK  status: ('A' for Active; 'I' for Inactive)
REMARK    1  A    between atoms: C_2  and  C_5 
REMARK       I    between atoms: C_5  and  N_9 
REMARK    2  A    between atoms: N_9  and  C_15 
ROOT
ATOM      1  C   UNL d   1      -3.158   4.204   0.000  0.00  0.00     0.304 C 
ATOM      2  N   UNL d   1      -2.446   3.796   0.000  0.00  0.00    -0.206 NA
ATOM      3  O   UNL d   1      -3.163   5.017   0.000  0.00  0.00    -0.263 OA
ENDROOT
BRANCH   1   4
ATOM      4  C   UNL d   1      -3.871   3.800   0.000  0.00  0.00     0.182 A 
ATOM      5  O   UNL d   1      -3.862   2.983   0.000  0.00  0.00    -0.298 OA
ATOM      6  C   UNL d   1      -4.583   2.571   0.000  0.00  0.00     0.123 A 
ATOM      7  C   UNL d   1      -4.583   1.746   0.000  0.00  0.00     0.027 A 
ATOM      8  C   UNL d   1      -5.283   2.983   0.000  0.00  0.00     0.123 A 
ATOM      9  C   UNL d   1      -5.300   1.346   0.000  0.00  0.00     0.002 A 
ATOM     10  C   UNL d   1      -6.000   1.746   0.000  0.00  0.00     0.002 A 
ATOM     11  C   UNL d   1      -6.000   2.571   0.000  0.00  0.00     0.027 A 
ATOM     12  O   UNL d   1      -5.283   3.808   0.000  0.00  0.00    -0.301 OA
ATOM     13  C   UNL d   1      -4.571   4.204   0.000  0.00  0.00     0.152 A 
ENDBRANCH   1   4
BRANCH   2  14
ATOM     14  C   UNL d   1      -1.696   4.154   0.000  0.00  0.00     0.085 A 
ATOM     15  C   UNL d   1      -0.971   3.746   0.000  0.00  0.00     0.021 A 
ATOM     16  C   UNL d   1      -0.271   4.150   0.000  0.00  0.00     0.021 A 
ATOM     17  C   UNL d   1      -0.258   4.950   0.000  0.00  0.00     0.088 A 
ATOM     18  C   UNL d   1      -0.971   5.367   0.000  0.00  0.00     0.050 A 
ATOM     19  N   UNL d   1       0.329   5.529   0.000  0.00  0.00    -0.239 NA
ATOM     20  C   UNL d   1      -1.700   4.979   0.000  0.00  0.00     0.027 A 
ATOM     21  S   UNL d   1      -0.796   6.192   0.000  0.00  0.00    -0.066 SA
ATOM     22  C   UNL d   1       0.025   6.242   0.000  0.00  0.00     0.111 A 
ATOM     23  C   UNL d   1       0.442   6.967   0.000  0.00  0.00     0.028 C 
ENDBRANCH   2  14
TORSDOF 2
