REMARK  9 active torsions:
REMARK  status: ('A' for Active; 'I' for Inactive)
REMARK    1  A    between atoms: N_8  and  C_1 
REMARK    2  A    between atoms: S_2  and  C_13 
REMARK    3  A    between atoms: N_7  and  S_2 
REMARK    4  A    between atoms: C_12  and  C_3 
REMARK       I    between atoms: C_10  and  N_8 
REMARK       I    between atoms: C_11  and  N_9 
REMARK    5  A    between atoms: C_21  and  C_10 
REMARK    6  A    between atoms: O_33  and  C_11 
REMARK    7  A    between atoms: C_34  and  N_14 
REMARK    8  A    between atoms: C_35  and  O_33 
REMARK    9  A    between atoms: C_36  and  C_34 
ROOT
ATOM      1  C   UNL d   1       2.266   0.574   0.000  0.00  0.00     0.104 A 
ATOM      2  C   UNL d   1       0.691   1.064   0.000  0.00  0.00     0.056 A 
ATOM      3  C   UNL d   1       2.077   1.382   0.000  0.00  0.00     0.013 A 
ATOM      4  C   UNL d   1       1.658   0.008   0.000  0.00  0.00     0.013 A 
ATOM      5  C   UNL d   1       1.294   1.629   0.000  0.00  0.00     0.005 A 
ATOM      6  C   UNL d   1       0.867   0.260   0.000  0.00  0.00     0.005 A 
ENDROOT
BRANCH   2   7
ATOM      7  C   UNL d   1      -0.101   1.307   0.000  0.00  0.00     0.258 C 
ATOM      8  N   UNL d   1      -0.285   2.119   0.000  0.00  0.00    -0.316 N 
ATOM      9  H   UNL d   1       0.356   2.157   0.000  0.00  0.00     0.169 HD
ATOM     10  O   UNL d   1      -0.712   0.750   0.000  0.00  0.00    -0.267 OA
BRANCH   8  11
ATOM     11  C   UNL d   1      -1.076   2.362   0.000  0.00  0.00     0.094 A 
ATOM     12  C   UNL d   1      -1.344   3.141   0.000  0.00  0.00     0.082 A 
ATOM     13  C   UNL d   1      -2.169   3.141   0.000  0.00  0.00     0.016 A 
ATOM     14  C   UNL d   1      -2.726   3.752   0.000  0.00  0.00     0.020 A 
ATOM     15  C   UNL d   1      -2.425   2.358   0.000  0.00  0.00     0.049 A 
ATOM     16  C   UNL d   1      -3.530   3.576   0.000  0.00  0.00     0.080 A 
ATOM     17  N   UNL d   1      -3.790   2.797   0.000  0.00  0.00    -0.302 N 
ATOM     18  C   UNL d   1      -3.237   2.182   0.000  0.00  0.00     0.087 A 
ATOM     19  S   UNL d   1      -1.755   1.868   0.000  0.00  0.00    -0.068 SA
BRANCH  12  20
ATOM     20  C   UNL d   1      -0.875   3.815   0.000  0.00  0.00     0.299 C 
ATOM     21  O   UNL d   1      -1.219   4.552   0.000  0.00  0.00    -0.264 OA
ATOM     22  N   UNL d   1      -0.059   3.740   0.000  0.00  0.00    -0.102 N 
ENDBRANCH  12  20
BRANCH  17  23
ATOM     23  C   UNL d   1      -4.594   2.626   0.000  0.00  0.00     0.080 C 
BRANCH  23  24
ATOM     24  C   UNL d   1      -4.858   1.843   0.000  0.00  0.00     0.019 C 
ATOM     25  C   UNL d   1      -5.662   1.684   0.000  0.00  0.00     0.002 C 
ENDBRANCH  23  24
ENDBRANCH  17  23
ENDBRANCH   8  11
ENDBRANCH   2   7
BRANCH   1  26
ATOM     26  S   UNL d   1       3.057   0.327   0.000  0.00  0.00     0.271 S 
ATOM     27  O   UNL d   1       3.271   1.131   0.000  0.00  0.00    -0.200 OA
ATOM     28  O   UNL d   1       2.844  -0.469   0.000  0.00  0.00    -0.200 OA
BRANCH  26  29
ATOM     29  N   UNL d   1       3.845   0.084   0.000  0.00  0.00    -0.226 N 
ATOM     30  C   UNL d   1       4.452   0.636   0.000  0.00  0.00     0.111 A 
ATOM     31  C   UNL d   1       5.239   0.377   0.000  0.00  0.00     0.105 A 
ATOM     32  N   UNL d   1       5.415  -0.431   0.000  0.00  0.00    -0.248 N 
ATOM     33  C   UNL d   1       4.804  -0.980   0.000  0.00  0.00     0.105 A 
ATOM     34  C   UNL d   1       6.194  -0.683   0.000  0.00  0.00     0.378 C 
ATOM     35  C   UNL d   1       4.025  -0.720   0.000  0.00  0.00     0.111 A 
ATOM     36  O   UNL d   1       6.801  -0.130   0.000  0.00  0.00    -0.237 OA
BRANCH  34  37
ATOM     37  O   UNL d   1       6.362  -1.482   0.000  0.00  0.00    -0.257 OA
BRANCH  37  38
ATOM     38  C   UNL d   1       5.754  -2.027   0.000  0.00  0.00     0.128 C 
ATOM     39  C   UNL d   1       5.922  -2.840   0.000  0.00  0.00     0.029 C 
ENDBRANCH  37  38
ENDBRANCH  34  37
ENDBRANCH  26  29
ENDBRANCH   1  26
TORSDOF 9
