REMARK  6 active torsions:
REMARK  status: ('A' for Active; 'I' for Inactive)
REMARK       I    between atoms: C_6  and  N_1 
REMARK    1  A    between atoms: C_10  and  C_2 
REMARK    2  A    between atoms: O_16  and  C_8 
REMARK    3  A    between atoms: O_14  and  C_10 
REMARK    4  A    between atoms: O_17  and  C_11 
REMARK    5  A    between atoms: C_15  and  O_14 
REMARK    6  A    between atoms: C_24  and  C_18 
ROOT
ATOM      1  N   UNL d   1      -0.518   2.131   0.000  0.00  0.00    -0.271 N 
ATOM      2  C   UNL d   1      -1.233   1.719   0.000  0.00  0.00     0.092 A 
ATOM      3  C   UNL d   1      -1.939   2.131   0.000  0.00  0.00     0.020 A 
ATOM      4  C   UNL d   1      -1.939   2.956   0.000  0.00  0.00     0.005 A 
ATOM      5  C   UNL d   1      -2.649   1.719   0.000  0.00  0.00     0.028 A 
ATOM      6  C   UNL d   1       0.206   1.714   0.000  0.00  0.00     0.265 C 
ATOM      7  C   UNL d   1      -0.518   2.956   0.000  0.00  0.00     0.083 A 
ATOM      8  C   UNL d   1      -3.364   2.131   0.000  0.00  0.00     0.116 A 
ATOM      9  C   UNL d   1      -2.649   3.369   0.000  0.00  0.00     0.026 A 
ATOM     10  C   UNL d   1      -3.364   2.956   0.000  0.00  0.00     0.116 A 
ATOM     11  C   UNL d   1      -1.233   3.369   0.000  0.00  0.00     0.019 A 
ATOM     12  O   UNL d   1       0.206   0.889   0.000  0.00  0.00    -0.267 OA
ATOM     13  C   UNL d   1       0.912   2.127   0.000  0.00  0.00     0.066 C 
ENDROOT
BRANCH   2  14
ATOM     14  C   UNL d   1      -1.233   0.894   0.000  0.00  0.00     0.140 C 
BRANCH  14  15
ATOM     15  O   UNL d   1      -0.518   0.481   0.000  0.00  0.00    -0.304 OA
BRANCH  15  16
ATOM     16  C   UNL d   1      -0.518  -0.344   0.000  0.00  0.00     0.100 A 
ATOM     17  C   UNL d   1       0.197  -0.756   0.000  0.00  0.00     0.025 A 
ATOM     18  C   UNL d   1       0.197  -1.581   0.000  0.00  0.00     0.002 A 
ATOM     19  C   UNL d   1      -0.518  -1.994   0.000  0.00  0.00     0.000 A 
ATOM     20  C   UNL d   1      -1.233  -1.581   0.000  0.00  0.00     0.002 A 
ATOM     21  C   UNL d   1      -1.233  -0.756   0.000  0.00  0.00     0.025 A 
BRANCH  19  22
ATOM     22  C   UNL d   1      -0.518  -2.819   0.000  0.00  0.00     0.000 C 
ATOM     23  C   UNL d   1       0.193  -3.231   0.000  0.00  0.00     0.000 C 
ENDBRANCH  19  22
ENDBRANCH  15  16
ENDBRANCH  14  15
ENDBRANCH   2  14
BRANCH   8  24
ATOM     24  O   UNL d   1      -4.084   1.714   0.000  0.00  0.00    -0.326 OA
ATOM     25  C   UNL d   1      -4.799   2.127   0.000  0.00  0.00     0.181 C 
ENDBRANCH   8  24
BRANCH  10  26
ATOM     26  O   UNL d   1      -4.084   3.378   0.000  0.00  0.00    -0.326 OA
ATOM     27  C   UNL d   1      -4.799   2.965   0.000  0.00  0.00     0.181 C 
ENDBRANCH  10  26
TORSDOF 6
