REMARK  3 active torsions:
REMARK  status: ('A' for Active; 'I' for Inactive)
REMARK    1  A    between atoms: C_15  and  C_3 
REMARK    2  A    between atoms: C_10  and  N_4 
REMARK    3  A    between atoms: N_6  and  C_5 
ROOT
ATOM      1  C   UNL d   1      -1.417   1.911   0.000  0.00  0.00     0.070 A 
ATOM      2  C   UNL d   1      -1.417   1.096   0.000  0.00  0.00     0.152 A 
ATOM      3  C   UNL d   1      -2.566   1.887   0.000  0.00  0.00     0.023 A 
ATOM      4  N   UNL d   1      -2.010   0.614   0.000  0.00  0.00    -0.290 N 
ATOM      5  C   UNL d   1      -0.713   2.319   0.000  0.00  0.00     0.153 A 
ATOM      6  C   UNL d   1      -2.529   1.145   0.000  0.00  0.00     0.082 A 
ATOM      7  N   UNL d   1      -0.713   0.688   0.000  0.00  0.00    -0.206 NA
ATOM      8  N   UNL d   1      -0.008   1.911   0.000  0.00  0.00    -0.206 NA
ATOM      9  C   UNL d   1      -0.008   1.096   0.000  0.00  0.00     0.202 A 
ENDROOT
BRANCH   5  10
ATOM     10  N   UNL d   1      -0.717   3.159   0.000  0.00  0.00    -0.285 N 
ATOM     11  C   UNL d   1      -1.442   3.567   0.000  0.00  0.00     0.106 A 
ATOM     12  C   UNL d   1      -1.454   4.391   0.000  0.00  0.00     0.118 A 
ATOM     13  C   UNL d   1      -2.183   4.811   0.000  0.00  0.00     0.028 C 
ATOM     14  O   UNL d   1      -0.725   4.824   0.000  0.00  0.00    -0.304 OA
ATOM     15  C   UNL d   1       0.000   4.416   0.000  0.00  0.00     0.118 A 
ATOM     16  C   UNL d   1       0.004   3.579   0.000  0.00  0.00     0.106 A 
ATOM     17  C   UNL d   1       0.721   4.836   0.000  0.00  0.00     0.028 C 
ENDBRANCH   5  10
BRANCH   3  18
ATOM     18  C   UNL d   1      -3.159   2.434   0.000  0.00  0.00     0.002 A 
ATOM     19  C   UNL d   1      -3.938   2.200   0.000  0.00  0.00     0.000 A 
ATOM     20  C   UNL d   1      -4.531   2.752   0.000  0.00  0.00     0.000 A 
ATOM     21  C   UNL d   1      -4.358   3.555   0.000  0.00  0.00     0.000 A 
ATOM     22  C   UNL d   1      -3.567   3.790   0.000  0.00  0.00     0.000 A 
ATOM     23  C   UNL d   1      -2.974   3.233   0.000  0.00  0.00     0.000 A 
ENDBRANCH   3  18
BRANCH   4  24
ATOM     24  C   UNL d   1      -2.047  -0.214   0.000  0.00  0.00     0.066 A 
ATOM     25  C   UNL d   1      -1.355  -0.680   0.000  0.00  0.00     0.020 A 
ATOM     26  C   UNL d   1      -1.392  -1.508   0.000  0.00  0.00     0.031 A 
ATOM     27  C   UNL d   1      -2.134  -1.895   0.000  0.00  0.00     0.140 A 
ATOM     28  C   UNL d   1      -2.838  -1.446   0.000  0.00  0.00     0.031 A 
ATOM     29  F   UNL d   1      -2.171  -2.723   0.000  0.00  0.00    -0.204 F 
ATOM     30  C   UNL d   1      -2.793  -0.606   0.000  0.00  0.00     0.020 A 
ENDBRANCH   4  24
TORSDOF 3
