REMARK  6 active torsions:
REMARK  status: ('A' for Active; 'I' for Inactive)
REMARK    1  A    between atoms: N_7  and  C_1 
REMARK    2  A    between atoms: S_2  and  C_14 
REMARK    3  A    between atoms: N_9  and  S_2 
REMARK       I    between atoms: C_11  and  N_7 
REMARK       I    between atoms: C_10  and  N_8 
REMARK    4  A    between atoms: O_27  and  C_10 
REMARK    5  A    between atoms: C_19  and  C_11 
REMARK    6  A    between atoms: C_30  and  O_27 
ROOT
ATOM      1  C   UNL d   1      -1.078   2.365   0.000  0.00  0.00     0.099 A 
ATOM      2  C   UNL d   1      -1.346   3.146   0.000  0.00  0.00     0.091 A 
ATOM      3  C   UNL d   1      -2.428   2.361   0.000  0.00  0.00     0.049 A 
ATOM      4  C   UNL d   1      -2.172   3.146   0.000  0.00  0.00     0.021 A 
ATOM      5  S   UNL d   1      -1.757   1.871   0.000  0.00  0.00    -0.068 SA
ATOM      6  N   UNL d   1      -3.796   2.802   0.000  0.00  0.00    -0.251 N 
ATOM      7  C   UNL d   1      -4.601   2.630   0.000  0.00  0.00     0.378 C 
ATOM      8  C   UNL d   1      -3.242   2.185   0.000  0.00  0.00     0.091 A 
ATOM      9  C   UNL d   1      -0.876   3.821   0.000  0.00  0.00     0.103 C 
ATOM     10  N   UNL d   1      -0.398   4.484   0.000  0.00  0.00    -0.191 NA
ATOM     11  C   UNL d   1      -2.730   3.758   0.000  0.00  0.00     0.020 A 
ATOM     12  C   UNL d   1      -3.536   3.582   0.000  0.00  0.00     0.085 A 
ATOM     13  O   UNL d   1      -4.865   1.850   0.000  0.00  0.00    -0.237 OA
ENDROOT
BRANCH   1  14
ATOM     14  N   UNL d   1      -0.285   2.122   0.000  0.00  0.00    -0.316 N 
ATOM     15  C   UNL d   1      -0.101   1.308   0.000  0.00  0.00     0.258 C 
ATOM     16  O   UNL d   1      -0.713   0.751   0.000  0.00  0.00    -0.267 OA
ATOM     17  H   UNL d   1       0.356   2.160   0.000  0.00  0.00     0.169 HD
BRANCH  15  18
ATOM     18  C   UNL d   1       0.692   1.065   0.000  0.00  0.00     0.056 A 
ATOM     19  C   UNL d   1       0.868   0.260   0.000  0.00  0.00     0.005 A 
ATOM     20  C   UNL d   1       1.661   0.008   0.000  0.00  0.00     0.013 A 
ATOM     21  C   UNL d   1       2.269   0.575   0.000  0.00  0.00     0.104 A 
ATOM     22  C   UNL d   1       2.080   1.384   0.000  0.00  0.00     0.013 A 
ATOM     23  C   UNL d   1       1.296   1.631   0.000  0.00  0.00     0.005 A 
BRANCH  21  24
ATOM     24  S   UNL d   1       3.062   0.327   0.000  0.00  0.00     0.271 S 
ATOM     25  O   UNL d   1       3.276   1.132   0.000  0.00  0.00    -0.200 OA
ATOM     26  O   UNL d   1       2.848  -0.470   0.000  0.00  0.00    -0.200 OA
BRANCH  24  27
ATOM     27  N   UNL d   1       3.850   0.084   0.000  0.00  0.00    -0.229 N 
ATOM     28  C   UNL d   1       4.114  -0.705   0.000  0.00  0.00     0.092 A 
ATOM     29  C   UNL d   1       4.936  -0.696   0.000  0.00  0.00     0.021 A 
ATOM     30  C   UNL d   1       5.188   0.088   0.000  0.00  0.00     0.021 A 
ATOM     31  C   UNL d   1       4.517   0.566   0.000  0.00  0.00     0.092 A 
ENDBRANCH  24  27
ENDBRANCH  21  24
ENDBRANCH  15  18
ENDBRANCH   1  14
BRANCH   7  32
ATOM     32  O   UNL d   1      -5.154   3.255   0.000  0.00  0.00    -0.257 OA
BRANCH  32  33
ATOM     33  C   UNL d   1      -5.951   3.083   0.000  0.00  0.00     0.128 C 
ATOM     34  C   UNL d   1      -6.497   3.695   0.000  0.00  0.00     0.029 C 
ENDBRANCH  32  33
ENDBRANCH   7  32
TORSDOF 6
