REMARK  3 active torsions:
REMARK  status: ('A' for Active; 'I' for Inactive)
REMARK    1  A    between atoms: N_3  and  C_1 
REMARK       I    between atoms: C_5  and  N_3 
REMARK    2  A    between atoms: C_9  and  C_5 
REMARK    3  A    between atoms: O_22  and  C_20 
ROOT
ATOM      1  N   UNL d   1      -2.463   3.827   0.000  0.00  0.00    -0.183 NA
ATOM      2  C   UNL d   1      -3.181   4.234   0.000  0.00  0.00     0.281 C 
ATOM      3  O   UNL d   1      -3.181   5.078   0.000  0.00  0.00    -0.265 OA
ENDROOT
BRANCH   1   4
ATOM      4  C   UNL d   1      -1.746   4.234   0.000  0.00  0.00     0.197 A 
ATOM      5  N   UNL d   1      -1.670   5.061   0.000  0.00  0.00    -0.221 NA
ATOM      6  C   UNL d   1      -0.856   5.229   0.000  0.00  0.00     0.090 A 
ATOM      7  C   UNL d   1      -0.449   5.946   0.000  0.00  0.00     0.022 A 
ATOM      8  C   UNL d   1      -0.449   4.511   0.000  0.00  0.00     0.052 A 
ATOM      9  C   UNL d   1       0.382   5.934   0.000  0.00  0.00     0.026 A 
ATOM     10  C   UNL d   1       0.785   5.224   0.000  0.00  0.00     0.095 A 
ATOM     11  C   UNL d   1       0.382   4.498   0.000  0.00  0.00     0.032 A 
ATOM     12  S   UNL d   1      -1.003   3.911   0.000  0.00  0.00    -0.047 SA
BRANCH  10  13
ATOM     13  O   UNL d   1       1.641   5.204   0.000  0.00  0.00    -0.328 OA
ATOM     14  C   UNL d   1       2.065   5.929   0.000  0.00  0.00     0.181 C 
ENDBRANCH  10  13
ENDBRANCH   1   4
BRANCH   2  15
ATOM     15  C   UNL d   1      -3.898   3.827   0.000  0.00  0.00     0.059 A 
ATOM     16  C   UNL d   1      -3.898   3.005   0.000  0.00  0.00     0.013 A 
ATOM     17  C   UNL d   1      -4.603   2.589   0.000  0.00  0.00     0.049 A 
ATOM     18  S   UNL d   1      -4.771   1.775   0.000  0.00  0.00    -0.064 SA
ATOM     19  C   UNL d   1      -5.333   3.005   0.000  0.00  0.00     0.088 A 
ATOM     20  C   UNL d   1      -5.598   1.700   0.000  0.00  0.00     0.135 A 
ATOM     21  N   UNL d   1      -5.950   2.442   0.000  0.00  0.00    -0.236 NA
ATOM     22  C   UNL d   1      -5.346   3.835   0.000  0.00  0.00     0.020 A 
ATOM     23  C   UNL d   1      -4.628   4.242   0.000  0.00  0.00     0.006 A 
ENDBRANCH   2  15
TORSDOF 3
