REMARK  3 active torsions:
REMARK  status: ('A' for Active; 'I' for Inactive)
REMARK    1  A    between atoms: N_3  and  C_1 
REMARK       I    between atoms: C_5  and  N_3 
REMARK    2  A    between atoms: C_6  and  C_5 
REMARK    3  A    between atoms: O_19  and  C_17 
ROOT
ATOM      1  N   UNL d   1      -2.458   3.820   0.000  0.00  0.00    -0.181 NA
ATOM      2  C   UNL d   1      -3.175   4.226   0.000  0.00  0.00     0.306 C 
ATOM      3  O   UNL d   1      -3.175   5.068   0.000  0.00  0.00    -0.263 OA
ENDROOT
BRANCH   1   4
ATOM      4  C   UNL d   1      -1.742   4.226   0.000  0.00  0.00     0.197 A 
ATOM      5  N   UNL d   1      -1.667   5.051   0.000  0.00  0.00    -0.221 NA
ATOM      6  C   UNL d   1      -0.854   5.218   0.000  0.00  0.00     0.090 A 
ATOM      7  C   UNL d   1      -0.448   5.935   0.000  0.00  0.00     0.022 A 
ATOM      8  C   UNL d   1      -0.448   4.502   0.000  0.00  0.00     0.052 A 
ATOM      9  C   UNL d   1       0.381   5.922   0.000  0.00  0.00     0.026 A 
ATOM     10  C   UNL d   1       0.783   5.214   0.000  0.00  0.00     0.095 A 
ATOM     11  C   UNL d   1       0.381   4.490   0.000  0.00  0.00     0.032 A 
ATOM     12  S   UNL d   1      -1.001   3.903   0.000  0.00  0.00    -0.047 SA
BRANCH  10  13
ATOM     13  O   UNL d   1       1.638   5.193   0.000  0.00  0.00    -0.328 OA
ATOM     14  C   UNL d   1       2.061   5.918   0.000  0.00  0.00     0.181 C 
ENDBRANCH  10  13
ENDBRANCH   1   4
BRANCH   2  15
ATOM     15  C   UNL d   1      -3.891   3.820   0.000  0.00  0.00     0.182 A 
ATOM     16  O   UNL d   1      -3.882   2.999   0.000  0.00  0.00    -0.298 OA
ATOM     17  C   UNL d   1      -4.607   2.584   0.000  0.00  0.00     0.123 A 
ATOM     18  C   UNL d   1      -4.607   1.755   0.000  0.00  0.00     0.027 A 
ATOM     19  C   UNL d   1      -5.311   2.999   0.000  0.00  0.00     0.123 A 
ATOM     20  C   UNL d   1      -5.327   1.353   0.000  0.00  0.00     0.002 A 
ATOM     21  C   UNL d   1      -6.031   1.755   0.000  0.00  0.00     0.002 A 
ATOM     22  C   UNL d   1      -6.031   2.584   0.000  0.00  0.00     0.027 A 
ATOM     23  O   UNL d   1      -5.311   3.828   0.000  0.00  0.00    -0.301 OA
ATOM     24  C   UNL d   1      -4.594   4.226   0.000  0.00  0.00     0.152 A 
ENDBRANCH   2  15
TORSDOF 3
