REMARK  6 active torsions:
REMARK  status: ('A' for Active; 'I' for Inactive)
REMARK    1  A    between atoms: C_4  and  N_1 
REMARK    2  A    between atoms: C_7  and  C_3 
REMARK    3  A    between atoms: N_13  and  C_4 
REMARK    4  A    between atoms: C_16  and  N_13 
REMARK    5  A    between atoms: C_20  and  C_16 
REMARK    6  A    between atoms: C_17  and  C_20 
ROOT
ATOM      1  N   UNL d   1      -2.407   1.892   0.000  0.00  0.00    -0.281 N 
ATOM      2  C   UNL d   1      -3.239   3.039   0.000  0.00  0.00     0.080 A 
ATOM      3  C   UNL d   1      -2.490   2.707   0.000  0.00  0.00     0.084 A 
ATOM      4  N   UNL d   1      -3.904   2.557   0.000  0.00  0.00    -0.301 N 
ATOM      5  C   UNL d   1      -3.077   1.405   0.000  0.00  0.00     0.101 A 
ATOM      6  C   UNL d   1      -3.493   3.825   0.000  0.00  0.00     0.021 A 
ATOM      7  C   UNL d   1      -4.574   3.039   0.000  0.00  0.00     0.080 A 
ATOM      8  C   UNL d   1      -3.825   1.746   0.000  0.00  0.00     0.100 A 
ATOM      9  C   UNL d   1      -4.324   3.825   0.000  0.00  0.00     0.021 A 
ENDROOT
BRANCH   1  10
ATOM     10  C   UNL d   1      -1.655   1.547   0.000  0.00  0.00     0.184 C 
ATOM     11  S   UNL d   1      -0.994   2.029   0.000  0.00  0.00    -0.040 SA
BRANCH  10  12
ATOM     12  N   UNL d   1      -1.572   0.732   0.000  0.00  0.00    -0.330 N 
ATOM     13  H   UNL d   1      -2.241   0.249   0.000  0.00  0.00     0.168 HD
BRANCH  12  14
ATOM     14  C   UNL d   1      -0.823   0.395   0.000  0.00  0.00     0.074 C 
BRANCH  14  15
ATOM     15  C   UNL d   1      -0.175   0.857   0.000  0.00  0.00     0.018 C 
BRANCH  15  16
ATOM     16  C   UNL d   1       0.611   0.599   0.000  0.00  0.00     0.002 A 
ATOM     17  C   UNL d   1       1.227   1.160   0.000  0.00  0.00     0.000 A 
ATOM     18  C   UNL d   1       2.012   0.906   0.000  0.00  0.00     0.000 A 
ATOM     19  C   UNL d   1       2.187   0.096   0.000  0.00  0.00     0.000 A 
ATOM     20  C   UNL d   1       1.572  -0.466   0.000  0.00  0.00     0.000 A 
ATOM     21  C   UNL d   1       0.786  -0.204   0.000  0.00  0.00     0.000 A 
ENDBRANCH  15  16
ENDBRANCH  14  15
ENDBRANCH  12  14
ENDBRANCH  10  12
ENDBRANCH   1  10
BRANCH   3  22
ATOM     22  C   UNL d   1      -1.821   3.189   0.000  0.00  0.00     0.037 A 
ATOM     23  C   UNL d   1      -1.069   2.852   0.000  0.00  0.00     0.100 A 
ATOM     24  N   UNL d   1      -0.407   3.339   0.000  0.00  0.00    -0.242 NA
ATOM     25  C   UNL d   1      -0.482   4.145   0.000  0.00  0.00     0.099 A 
ATOM     26  C   UNL d   1      -1.235   4.490   0.000  0.00  0.00     0.021 A 
ATOM     27  C   UNL d   1      -1.904   4.008   0.000  0.00  0.00     0.005 A 
ENDBRANCH   3  22
TORSDOF 6
