REMARK  3 active torsions:
REMARK  status: ('A' for Active; 'I' for Inactive)
REMARK       I    between atoms: N_2  and  C_1 
REMARK    1  A    between atoms: C_3  and  C_1 
REMARK    2  A    between atoms: C_8  and  N_2 
REMARK    3  A    between atoms: C_7  and  C_6 
ROOT
ATOM      1  C   UNL d   1      -3.190   4.246   0.000  0.00  0.00     0.279 C 
ATOM      2  N   UNL d   1      -2.470   3.847   0.000  0.00  0.00    -0.208 NA
ATOM      3  O   UNL d   1      -3.190   5.075   0.000  0.00  0.00    -0.265 OA
ENDROOT
BRANCH   1   4
ATOM      4  C   UNL d   1      -3.910   3.838   0.000  0.00  0.00     0.058 A 
ATOM      5  C   UNL d   1      -4.629   4.259   0.000  0.00  0.00     0.005 A 
ATOM      6  C   UNL d   1      -5.324   3.834   0.000  0.00  0.00     0.000 A 
ATOM      7  C   UNL d   1      -6.048   4.246   0.000  0.00  0.00     0.000 A 
ATOM      8  C   UNL d   1      -5.324   3.001   0.000  0.00  0.00     0.000 A 
ATOM      9  C   UNL d   1      -6.759   3.813   0.000  0.00  0.00     0.000 A 
ATOM     10  C   UNL d   1      -6.746   2.988   0.000  0.00  0.00     0.000 A 
ATOM     11  C   UNL d   1      -6.031   2.584   0.000  0.00  0.00     0.000 A 
ATOM     12  C   UNL d   1      -4.617   2.597   0.000  0.00  0.00     0.000 A 
ATOM     13  C   UNL d   1      -3.897   3.013   0.000  0.00  0.00     0.005 A 
ENDBRANCH   1   4
BRANCH   2  14
ATOM     14  C   UNL d   1      -1.751   4.259   0.000  0.00  0.00     0.085 A 
ATOM     15  C   UNL d   1      -1.738   5.067   0.000  0.00  0.00     0.022 A 
ATOM     16  C   UNL d   1      -1.023   5.471   0.000  0.00  0.00     0.041 A 
ATOM     17  C   UNL d   1      -0.299   5.080   0.000  0.00  0.00     0.003 A 
ATOM     18  C   UNL d   1      -0.299   4.255   0.000  0.00  0.00     0.002 A 
ATOM     19  C   UNL d   1      -1.010   3.821   0.000  0.00  0.00     0.019 A 
BRANCH  16  20
ATOM     20  C   UNL d   1      -1.031   6.317   0.000  0.00  0.00     0.196 C 
ATOM     21  O   UNL d   1      -1.742   6.721   0.000  0.00  0.00    -0.287 OA
ATOM     22  C   UNL d   1      -0.316   6.721   0.000  0.00  0.00     0.045 C 
ENDBRANCH  16  20
ENDBRANCH   2  14
TORSDOF 3
