REMARK  2 active torsions:
REMARK  status: ('A' for Active; 'I' for Inactive)
REMARK       I    between atoms: N_3  and  C_1 
REMARK    1  A    between atoms: C_4  and  C_1 
REMARK    2  A    between atoms: C_10  and  N_3 
ROOT
ATOM      1  C   UNL d   1      -3.181   4.234   0.000  0.00  0.00     0.279 C 
ATOM      2  N   UNL d   1      -3.185   5.061   0.000  0.00  0.00    -0.208 NA
ATOM      3  O   UNL d   1      -2.463   3.823   0.000  0.00  0.00    -0.265 OA
ENDROOT
BRANCH   1   4
ATOM      4  C   UNL d   1      -3.898   3.827   0.000  0.00  0.00     0.059 A 
ATOM      5  C   UNL d   1      -3.898   3.005   0.000  0.00  0.00     0.013 A 
ATOM      6  C   UNL d   1      -4.603   2.589   0.000  0.00  0.00     0.049 A 
ATOM      7  S   UNL d   1      -4.771   1.775   0.000  0.00  0.00    -0.064 SA
ATOM      8  C   UNL d   1      -5.333   3.005   0.000  0.00  0.00     0.088 A 
ATOM      9  C   UNL d   1      -5.598   1.700   0.000  0.00  0.00     0.135 A 
ATOM     10  N   UNL d   1      -5.950   2.442   0.000  0.00  0.00    -0.236 NA
ATOM     11  C   UNL d   1      -5.346   3.835   0.000  0.00  0.00     0.020 A 
ATOM     12  C   UNL d   1      -4.628   4.242   0.000  0.00  0.00     0.006 A 
ENDBRANCH   1   4
BRANCH   2  13
ATOM     13  C   UNL d   1      -2.438   5.476   0.000  0.00  0.00     0.087 A 
ATOM     14  C   UNL d   1      -2.417   6.299   0.000  0.00  0.00     0.049 A 
ATOM     15  C   UNL d   1      -1.700   6.689   0.000  0.00  0.00     0.142 A 
ATOM     16  F   UNL d   1      -1.670   7.520   0.000  0.00  0.00    -0.204 F 
ATOM     17  C   UNL d   1      -1.003   6.261   0.000  0.00  0.00     0.030 A 
ATOM     18  C   UNL d   1      -1.020   5.439   0.000  0.00  0.00     0.004 A 
ATOM     19  C   UNL d   1      -1.746   5.040   0.000  0.00  0.00     0.019 A 
ENDBRANCH   2  13
TORSDOF 2
