REMARK  3 active torsions:
REMARK  status: ('A' for Active; 'I' for Inactive)
REMARK    1  A    between atoms: N_3  and  C_1 
REMARK    2  A    between atoms: O_4  and  C_2 
REMARK    3  A    between atoms: C_7  and  O_4 
ROOT
ATOM      1  C   UNL d   1       2.066   1.611   0.000  0.00  0.00     0.205 A 
ATOM      2  C   UNL d   1       1.488   1.042   0.000  0.00  0.00     0.209 A 
ATOM      3  N   UNL d   1       1.699   0.260   0.000  0.00  0.00    -0.198 NA
ATOM      4  C   UNL d   1       2.865   1.399   0.000  0.00  0.00     0.211 A 
ATOM      5  N   UNL d   1       3.076   0.618   0.000  0.00  0.00    -0.202 NA
ATOM      6  C   UNL d   1       2.507   0.049   0.000  0.00  0.00     0.202 A 
ATOM      7  N   UNL d   1       3.461   1.973   0.000  0.00  0.00    -0.125 N 
ENDROOT
BRANCH   2   8
ATOM      8  O   UNL d   1       0.666   1.232   0.000  0.00  0.00    -0.288 OA
BRANCH   8   9
ATOM      9  C   UNL d   1       0.110   0.618   0.000  0.00  0.00     0.102 A 
ATOM     10  C   UNL d   1      -0.689   0.790   0.000  0.00  0.00     0.023 A 
ATOM     11  C   UNL d   1      -1.240   0.172   0.000  0.00  0.00     0.002 A 
ATOM     12  C   UNL d   1      -0.967   1.549   0.000  0.00  0.00     0.002 C 
ATOM     13  C   UNL d   1      -0.989  -0.614   0.000  0.00  0.00     0.000 A 
ATOM     14  C   UNL d   1      -0.181  -0.781   0.000  0.00  0.00     0.002 A 
ATOM     15  C   UNL d   1       0.389  -0.163   0.000  0.00  0.00     0.025 A 
ATOM     16  C   UNL d   1       0.093  -1.589   0.000  0.00  0.00     0.000 C 
ENDBRANCH   8   9
ENDBRANCH   2   8
BRANCH   1  17
ATOM     17  N   UNL d   1       1.854   2.405   0.000  0.00  0.00    -0.107 N 
ATOM     18  O   UNL d   1       2.423   2.966   0.000  0.00  0.00    -0.531 OA
ATOM     19  O   UNL d   1       1.064   2.609   0.000  0.00  0.00    -0.531 OA
ENDBRANCH   1  17
TORSDOF 3
