REMARK  4 active torsions:
REMARK  status: ('A' for Active; 'I' for Inactive)
REMARK    1  A    between atoms: C_2  and  N_1 
REMARK    2  A    between atoms: N_7  and  C_3 
REMARK    3  A    between atoms: C_12  and  N_7 
REMARK    4  A    between atoms: C_14  and  C_12 
ROOT
ATOM      1  C   UNL d   1       0.456  -1.515   0.000  0.00  0.00     0.200 A 
ATOM      2  C   UNL d   1      -0.378  -1.515   0.000  0.00  0.00     0.189 A 
ATOM      3  C   UNL d   1       0.851  -2.227   0.000  0.00  0.00     0.210 A 
ATOM      4  N   UNL d   1      -0.794  -2.227   0.000  0.00  0.00    -0.203 NA
ATOM      5  N   UNL d   1       0.456  -2.935   0.000  0.00  0.00    -0.202 NA
ATOM      6  C   UNL d   1      -0.378  -2.935   0.000  0.00  0.00     0.202 A 
ATOM      7  N   UNL d   1       1.685  -2.227   0.000  0.00  0.00    -0.125 N 
ENDROOT
BRANCH   2   8
ATOM      8  N   UNL d   1      -0.794  -0.812   0.000  0.00  0.00    -0.224 NA
BRANCH   8   9
ATOM      9  C   UNL d   1      -1.611  -0.812   0.000  0.00  0.00     0.101 C 
BRANCH   9  10
ATOM     10  C   UNL d   1      -2.027  -0.096   0.000  0.00  0.00     0.019 A 
ATOM     11  C   UNL d   1      -2.835  -0.096   0.000  0.00  0.00     0.004 A 
ATOM     12  C   UNL d   1      -3.252   0.625   0.000  0.00  0.00     0.030 A 
ATOM     13  C   UNL d   1      -2.835   1.337   0.000  0.00  0.00     0.140 A 
ATOM     14  C   UNL d   1      -2.027   1.337   0.000  0.00  0.00     0.030 A 
ATOM     15  F   UNL d   1      -3.252   2.045   0.000  0.00  0.00    -0.204 F 
ATOM     16  C   UNL d   1      -1.611   0.625   0.000  0.00  0.00     0.004 A 
ENDBRANCH   9  10
ENDBRANCH   8   9
ENDBRANCH   2   8
BRANCH   1  17
ATOM     17  N   UNL d   1       0.873  -0.812   0.000  0.00  0.00    -0.107 N 
ATOM     18  O   UNL d   1       1.685  -0.834   0.000  0.00  0.00    -0.531 OA
ATOM     19  O   UNL d   1       0.473  -0.096   0.000  0.00  0.00    -0.531 OA
ENDBRANCH   1  17
TORSDOF 4
