REMARK  5 active torsions:
REMARK  status: ('A' for Active; 'I' for Inactive)
REMARK    1  A    between atoms: C_9  and  N_1 
REMARK    2  A    between atoms: S_8  and  C_2 
REMARK    3  A    between atoms: C_6  and  C_10 
REMARK       I    between atoms: N_7  and  C_6 
REMARK    4  A    between atoms: C_10  and  S_8 
REMARK    5  A    between atoms: C_13  and  C_9 
ROOT
ATOM      1  N   UNL d   1      -2.695   1.783   0.000  0.00  0.00    -0.303 N 
ATOM      2  C   UNL d   1      -2.695   3.117   0.000  0.00  0.00     0.049 A 
ATOM      3  C   UNL d   1      -2.214   2.434   0.000  0.00  0.00     0.087 A 
ATOM      4  C   UNL d   1      -3.479   2.855   0.000  0.00  0.00     0.024 A 
ATOM      5  C   UNL d   1      -3.479   2.030   0.000  0.00  0.00     0.065 A 
ATOM      6  C   UNL d   1      -4.189   3.268   0.000  0.00  0.00     0.002 A 
ATOM      7  C   UNL d   1      -4.189   1.618   0.000  0.00  0.00     0.018 A 
ATOM      8  C   UNL d   1      -4.904   2.855   0.000  0.00  0.00     0.000 A 
ATOM      9  C   UNL d   1      -4.904   2.030   0.000  0.00  0.00     0.002 A 
ENDROOT
BRANCH   2  10
ATOM     10  S   UNL d   1      -2.443   3.900   0.000  0.00  0.00    -0.080 SA
BRANCH  10  11
ATOM     11  C   UNL d   1      -1.632   4.079   0.000  0.00  0.00     0.097 C 
BRANCH  11  12
ATOM     12  C   UNL d   1      -1.370   4.858   0.000  0.00  0.00     0.272 C 
ATOM     13  N   UNL d   1      -0.564   5.037   0.000  0.00  0.00    -0.267 N 
ATOM     14  C   UNL d   1      -0.014   4.418   0.000  0.00  0.00     0.110 A 
ATOM     15  C   UNL d   1      -0.312   5.821   0.000  0.00  0.00     0.110 A 
ATOM     16  C   UNL d   1       0.788   4.583   0.000  0.00  0.00     0.142 A 
ATOM     17  O   UNL d   1       1.050   5.381   0.000  0.00  0.00    -0.300 OA
ATOM     18  C   UNL d   1       0.500   5.995   0.000  0.00  0.00     0.142 A 
ATOM     19  O   UNL d   1      -1.920   5.463   0.000  0.00  0.00    -0.266 OA
ENDBRANCH  11  12
ENDBRANCH  10  11
ENDBRANCH   2  10
BRANCH   1  20
ATOM     20  C   UNL d   1      -2.434   0.985   0.000  0.00  0.00     0.080 C 
BRANCH  20  21
ATOM     21  C   UNL d   1      -1.632   0.811   0.000  0.00  0.00     0.018 A 
ATOM     22  C   UNL d   1      -1.370   0.028   0.000  0.00  0.00     0.002 A 
ATOM     23  C   UNL d   1      -0.564  -0.142   0.000  0.00  0.00     0.000 A 
ATOM     24  C   UNL d   1      -0.014   0.463   0.000  0.00  0.00     0.000 A 
ATOM     25  C   UNL d   1      -0.270   1.260   0.000  0.00  0.00     0.000 A 
ATOM     26  C   UNL d   1      -1.082   1.425   0.000  0.00  0.00     0.002 A 
ENDBRANCH  20  21
ENDBRANCH   1  20
TORSDOF 5
