REMARK  6 active torsions:
REMARK  status: ('A' for Active; 'I' for Inactive)
REMARK    1  A    between atoms: S_2  and  N_1 
REMARK    2  A    between atoms: C_11  and  S_2 
REMARK    3  A    between atoms: O_8  and  C_5 
REMARK    4  A    between atoms: C_7  and  O_8 
REMARK    5  A    between atoms: C_12  and  C_7 
REMARK    6  A    between atoms: O_20  and  C_17 
ROOT
ATOM      1  N   UNL d   1      -2.374   1.283   0.000  0.00  0.00    -0.130 N 
ATOM      2  N   UNL d   1      -3.044   1.762   0.000  0.00  0.00    -0.128 NA
ATOM      3  C   UNL d   1      -1.708   1.762   0.000  0.00  0.00     0.200 A 
ATOM      4  C   UNL d   1      -2.786   2.549   0.000  0.00  0.00     0.208 A 
ATOM      5  C   UNL d   1      -1.970   2.549   0.000  0.00  0.00     0.088 A 
ATOM      6  N   UNL d   1      -0.925   1.508   0.000  0.00  0.00    -0.126 N 
ENDROOT
BRANCH   4   7
ATOM      7  O   UNL d   1      -3.273   3.219   0.000  0.00  0.00    -0.253 OA
BRANCH   7   8
ATOM      8  C   UNL d   1      -4.094   3.132   0.000  0.00  0.00     0.301 C 
ATOM      9  O   UNL d   1      -4.431   2.382   0.000  0.00  0.00    -0.259 OA
BRANCH   8  10
ATOM     10  C   UNL d   1      -4.581   3.798   0.000  0.00  0.00     0.064 A 
ATOM     11  C   UNL d   1      -5.406   3.719   0.000  0.00  0.00     0.007 A 
ATOM     12  C   UNL d   1      -5.893   4.377   0.000  0.00  0.00     0.024 A 
ATOM     13  C   UNL d   1      -5.556   5.135   0.000  0.00  0.00     0.094 A 
ATOM     14  C   UNL d   1      -4.731   5.214   0.000  0.00  0.00     0.024 A 
ATOM     15  C   UNL d   1      -4.244   4.552   0.000  0.00  0.00     0.007 A 
BRANCH  13  16
ATOM     16  O   UNL d   1      -6.026   5.801   0.000  0.00  0.00    -0.328 OA
ATOM     17  C   UNL d   1      -5.706   6.559   0.000  0.00  0.00     0.181 C 
ENDBRANCH  13  16
ENDBRANCH   8  10
ENDBRANCH   7   8
ENDBRANCH   4   7
BRANCH   1  18
ATOM     18  S   UNL d   1      -2.374   0.458   0.000  0.00  0.00     0.287 S 
ATOM     19  O   UNL d   1      -3.211   0.437   0.000  0.00  0.00    -0.198 OA
ATOM     20  O   UNL d   1      -1.562   0.471   0.000  0.00  0.00    -0.198 OA
BRANCH  18  21
ATOM     21  C   UNL d   1      -2.357  -0.366   0.000  0.00  0.00     0.105 A 
ATOM     22  C   UNL d   1      -1.633  -0.766   0.000  0.00  0.00     0.013 A 
ATOM     23  C   UNL d   1      -1.620  -1.591   0.000  0.00  0.00     0.001 A 
ATOM     24  C   UNL d   1      -2.324  -2.016   0.000  0.00  0.00     0.000 A 
ATOM     25  C   UNL d   1      -3.044  -1.616   0.000  0.00  0.00     0.001 A 
ATOM     26  C   UNL d   1      -3.069  -0.791   0.000  0.00  0.00     0.013 A 
ENDBRANCH  18  21
ENDBRANCH   1  18
TORSDOF 6
