REMARK  7 active torsions:
REMARK  status: ('A' for Active; 'I' for Inactive)
REMARK    1  A    between atoms: N_6  and  S_1 
REMARK    2  A    between atoms: C_9  and  S_1 
REMARK    3  A    between atoms: N_2  and  C_11 
REMARK    4  A    between atoms: C_14  and  C_3 
REMARK    5  A    between atoms: C_7  and  C_15 
REMARK       I    between atoms: N_10  and  C_7 
REMARK    6  A    between atoms: C_25  and  N_10 
REMARK    7  A    between atoms: O_33  and  C_26 
ROOT
ATOM      1  C   UNL d   1      -2.475   2.760   0.000  0.00  0.00     0.085 A 
ATOM      2  C   UNL d   1      -1.868   2.207   0.000  0.00  0.00     0.021 A 
ATOM      3  C   UNL d   1      -2.308   3.568   0.000  0.00  0.00     0.021 A 
ATOM      4  C   UNL d   1      -0.905   3.267   0.000  0.00  0.00     0.085 A 
ATOM      5  C   UNL d   1      -1.076   2.458   0.000  0.00  0.00     0.021 A 
ATOM      6  C   UNL d   1      -1.529   3.828   0.000  0.00  0.00     0.021 A 
ENDROOT
BRANCH   4   7
ATOM      7  N   UNL d   1      -0.113   3.526   0.000  0.00  0.00    -0.208 NA
ATOM      8  C   UNL d   1       0.494   2.973   0.000  0.00  0.00     0.279 C 
ATOM      9  O   UNL d   1       0.327   2.169   0.000  0.00  0.00    -0.265 OA
BRANCH   8  10
ATOM     10  C   UNL d   1       1.294   3.229   0.000  0.00  0.00     0.058 A 
ATOM     11  C   UNL d   1       1.457   4.025   0.000  0.00  0.00     0.005 A 
ATOM     12  C   UNL d   1       2.236   4.276   0.000  0.00  0.00     0.013 A 
ATOM     13  C   UNL d   1       2.844   3.740   0.000  0.00  0.00     0.104 A 
ATOM     14  C   UNL d   1       2.680   2.936   0.000  0.00  0.00     0.013 A 
ATOM     15  C   UNL d   1       1.897   2.684   0.000  0.00  0.00     0.005 A 
BRANCH  13  16
ATOM     16  S   UNL d   1       3.635   4.004   0.000  0.00  0.00     0.271 S 
ATOM     17  O   UNL d   1       3.371   4.779   0.000  0.00  0.00    -0.200 OA
ATOM     18  O   UNL d   1       3.886   3.225   0.000  0.00  0.00    -0.200 OA
BRANCH  16  19
ATOM     19  N   UNL d   1       4.423   4.251   0.000  0.00  0.00    -0.229 N 
ATOM     20  C   UNL d   1       5.042   3.715   0.000  0.00  0.00     0.092 A 
ATOM     21  C   UNL d   1       5.834   3.978   0.000  0.00  0.00     0.020 A 
ATOM     22  C   UNL d   1       5.997   4.779   0.000  0.00  0.00     0.003 A 
ATOM     23  C   UNL d   1       5.381   5.331   0.000  0.00  0.00     0.020 A 
ATOM     24  C   UNL d   1       4.590   5.067   0.000  0.00  0.00     0.092 A 
ENDBRANCH  16  19
ENDBRANCH  13  16
ENDBRANCH   8  10
ENDBRANCH   4   7
BRANCH   1  25
ATOM     25  N   UNL d   1      -3.267   2.509   0.000  0.00  0.00    -0.211 N 
ATOM     26  C   UNL d   1      -3.941   2.998   0.000  0.00  0.00     0.105 A 
ATOM     27  C   UNL d   1      -4.607   2.509   0.000  0.00  0.00     0.143 A 
ATOM     28  N   UNL d   1      -4.355   1.717   0.000  0.00  0.00    -0.127 NA
ATOM     29  N   UNL d   1      -3.526   1.717   0.000  0.00  0.00    -0.060 NA
BRANCH  26  30
ATOM     30  C   UNL d   1      -3.941   3.815   0.000  0.00  0.00     0.019 A 
ATOM     31  C   UNL d   1      -4.657   4.226   0.000  0.00  0.00     0.004 A 
ATOM     32  C   UNL d   1      -4.657   5.051   0.000  0.00  0.00     0.024 A 
ATOM     33  C   UNL d   1      -3.953   5.465   0.000  0.00  0.00     0.094 A 
ATOM     34  C   UNL d   1      -3.229   5.051   0.000  0.00  0.00     0.024 A 
ATOM     35  C   UNL d   1      -3.225   4.226   0.000  0.00  0.00     0.004 A 
BRANCH  33  36
ATOM     36  O   UNL d   1      -3.945   6.286   0.000  0.00  0.00    -0.328 OA
ATOM     37  C   UNL d   1      -3.237   6.701   0.000  0.00  0.00     0.181 C 
ENDBRANCH  33  36
ENDBRANCH  26  30
ENDBRANCH   1  25
TORSDOF 7
