REMARK  4 active torsions:
REMARK  status: ('A' for Active; 'I' for Inactive)
REMARK    1  A    between atoms: S_10  and  C_5 
REMARK       I    between atoms: N_7  and  C_8 
REMARK    2  A    between atoms: C_8  and  C_11 
REMARK    3  A    between atoms: C_11  and  S_10 
REMARK    4  A    between atoms: C_19  and  C_12 
ROOT
ATOM      1  S   UNL d   1       2.093  -2.027   0.000  0.00  0.00    -0.054 SA
ENDROOT
BRANCH   1   2
ATOM      2  C   UNL d   1       2.889  -1.766   0.000  0.00  0.00     0.163 A 
ATOM      3  S   UNL d   1       3.572  -2.255   0.000  0.00  0.00    -0.021 SA
ATOM      4  C   UNL d   1       4.244  -1.766   0.000  0.00  0.00     0.200 A 
ATOM      5  N   UNL d   1       4.878  -2.093   0.000  0.00  0.00    -0.182 NA
ATOM      6  N   UNL d   1       3.991  -0.962   0.000  0.00  0.00    -0.204 N 
ATOM      7  C   UNL d   1       5.599  -1.716   0.000  0.00  0.00     0.281 A 
ATOM      8  O   UNL d   1       6.022  -2.437   0.000  0.00  0.00    -0.265 OA
ATOM      9  C   UNL d   1       5.748  -0.862   0.000  0.00  0.00     0.064 A 
ATOM     10  C   UNL d   1       5.160  -0.228   0.000  0.00  0.00     0.026 A 
ATOM     11  C   UNL d   1       4.331  -0.327   0.000  0.00  0.00     0.103 A 
ATOM     12  N   UNL d   1       3.150  -0.962   0.000  0.00  0.00    -0.150 NA
ENDBRANCH   1   2
BRANCH   1  13
ATOM     13  C   UNL d   1       1.480  -1.484   0.000  0.00  0.00     0.099 C 
BRANCH  13  14
ATOM     14  C   UNL d   1       1.645  -0.676   0.000  0.00  0.00     0.271 C 
ATOM     15  N   UNL d   1       1.044  -0.129   0.000  0.00  0.00    -0.273 N 
ATOM     16  C   UNL d   1       1.210   0.667   0.000  0.00  0.00     0.067 A 
ATOM     17  C   UNL d   1       0.261  -0.377   0.000  0.00  0.00     0.083 A 
ATOM     18  C   UNL d   1       0.589   1.218   0.000  0.00  0.00     0.018 A 
ATOM     19  C   UNL d   1      -0.182   0.957   0.000  0.00  0.00     0.003 A 
ATOM     20  C   UNL d   1      -0.344   0.158   0.000  0.00  0.00     0.019 A 
ATOM     21  O   UNL d   1       2.429  -0.423   0.000  0.00  0.00    -0.266 OA
BRANCH  16  22
ATOM     22  C   UNL d   1       1.989   0.920   0.000  0.00  0.00     0.018 C 
ATOM     23  C   UNL d   1       2.151   1.736   0.000  0.00  0.00     0.002 C 
ENDBRANCH  16  22
ENDBRANCH  13  14
ENDBRANCH   1  13
TORSDOF 4
