REMARK  5 active torsions:
REMARK  status: ('A' for Active; 'I' for Inactive)
REMARK    1  A    between atoms: C_7  and  N_1 
REMARK    2  A    between atoms: C_14  and  N_5 
REMARK    3  A    between atoms: C_8  and  C_7 
REMARK    4  A    between atoms: C_16  and  C_14 
REMARK    5  A    between atoms: O_15  and  C_16 
ROOT
ATOM      1  N   UNL d   1      -3.884   3.415   0.000  0.00  0.00    -0.273 N 
ATOM      2  C   UNL d   1      -3.884   2.577   0.000  0.00  0.00     0.153 A 
ATOM      3  S   UNL d   1      -3.176   2.170   0.000  0.00  0.00    -0.039 SA
ATOM      4  C   UNL d   1      -3.176   3.830   0.000  0.00  0.00     0.168 A 
ATOM      5  N   UNL d   1      -2.459   3.415   0.000  0.00  0.00    -0.280 N 
ATOM      6  C   UNL d   1      -2.459   2.577   0.000  0.00  0.00     0.120 A 
ATOM      7  S   UNL d   1      -4.609   2.162   0.000  0.00  0.00    -0.052 SA
ENDROOT
BRANCH   1   8
ATOM      8  C   UNL d   1      -4.609   3.817   0.000  0.00  0.00     0.107 C 
BRANCH   8   9
ATOM      9  C   UNL d   1      -5.325   3.402   0.000  0.00  0.00     0.118 A 
ATOM     10  O   UNL d   1      -5.405   2.577   0.000  0.00  0.00    -0.304 OA
ATOM     11  C   UNL d   1      -6.214   2.409   0.000  0.00  0.00     0.123 A 
ATOM     12  C   UNL d   1      -6.624   3.113   0.000  0.00  0.00     0.029 A 
ATOM     13  C   UNL d   1      -6.076   3.729   0.000  0.00  0.00     0.028 A 
ENDBRANCH   8   9
ENDBRANCH   1   8
BRANCH   5  14
ATOM     14  C   UNL d   1      -1.743   3.817   0.000  0.00  0.00     0.108 C 
BRANCH  14  15
ATOM     15  C   UNL d   1      -1.735   4.643   0.000  0.00  0.00     0.135 C 
BRANCH  15  16
ATOM     16  O   UNL d   1      -2.447   5.057   0.000  0.00  0.00    -0.325 OA
ATOM     17  C   UNL d   1      -2.439   5.875   0.000  0.00  0.00     0.182 C 
ENDBRANCH  15  16
ENDBRANCH  14  15
ENDBRANCH   5  14
TORSDOF 5
