REMARK  3 active torsions:
REMARK  status: ('A' for Active; 'I' for Inactive)
REMARK    1  A    between atoms: N_7  and  C_1 
REMARK    2  A    between atoms: C_11  and  N_3 
REMARK       I    between atoms: C_9  and  N_7 
REMARK    3  A    between atoms: C_12  and  C_9 
ROOT
ATOM      1  C   UNL d   1      -3.004   1.971   0.000  0.00  0.00     0.169 A 
ATOM      2  C   UNL d   1      -3.249   1.226   0.000  0.00  0.00     0.067 A 
ATOM      3  N   UNL d   1      -3.639   2.433   0.000  0.00  0.00    -0.212 N 
ATOM      4  C   UNL d   1      -4.041   1.226   0.000  0.00  0.00     0.116 A 
ATOM      5  N   UNL d   1      -4.278   1.971   0.000  0.00  0.00    -0.163 NA
ATOM      6  S   UNL d   1      -3.639   0.020   0.000  0.00  0.00     0.213 S 
ATOM      7  C   UNL d   1      -4.278   0.481   0.000  0.00  0.00     0.120 A 
ATOM      8  C   UNL d   1      -3.004   0.481   0.000  0.00  0.00     0.103 A 
ATOM      9  O   UNL d   1      -4.317  -0.371   0.000  0.00  0.00    -0.217 OA
ATOM     10  O   UNL d   1      -3.059  -0.335   0.000  0.00  0.00    -0.217 OA
ENDROOT
BRANCH   1  11
ATOM     11  N   UNL d   1      -2.314   1.794   0.000  0.00  0.00    -0.187 NA
ATOM     12  C   UNL d   1      -1.431   2.295   0.000  0.00  0.00     0.303 C 
ATOM     13  O   UNL d   1      -1.403   3.063   0.000  0.00  0.00    -0.263 OA
BRANCH  12  14
ATOM     14  C   UNL d   1      -0.722   1.865   0.000  0.00  0.00     0.158 A 
ATOM     15  O   UNL d   1       0.063   2.184   0.000  0.00  0.00    -0.300 OA
ATOM     16  C   UNL d   1       0.603   1.545   0.000  0.00  0.00     0.123 A 
ATOM     17  C   UNL d   1       0.166   0.828   0.000  0.00  0.00     0.029 A 
ATOM     18  C   UNL d   1      -0.650   1.017   0.000  0.00  0.00     0.032 A 
ENDBRANCH  12  14
ENDBRANCH   1  11
BRANCH   3  19
ATOM     19  C   UNL d   1      -3.639   3.272   0.000  0.00  0.00     0.085 A 
ATOM     20  C   UNL d   1      -2.906   3.686   0.000  0.00  0.00     0.031 A 
ATOM     21  C   UNL d   1      -2.906   4.510   0.000  0.00  0.00     0.059 A 
ATOM     22 CL   UNL d   1      -2.184   4.936   0.000  0.00  0.00    -0.082 Cl
ATOM     23  C   UNL d   1      -3.639   4.936   0.000  0.00  0.00     0.011 A 
ATOM     24  C   UNL d   1      -4.360   4.510   0.000  0.00  0.00     0.002 A 
ATOM     25  C   UNL d   1      -4.353   3.686   0.000  0.00  0.00     0.019 A 
ENDBRANCH   3  19
TORSDOF 3
