REMARK  7 active torsions:
REMARK  status: ('A' for Active; 'I' for Inactive)
REMARK       I    between atoms: N_2  and  C_13 
REMARK    1  A    between atoms: C_11  and  C_6 
REMARK    2  A    between atoms: C_14  and  C_7 
REMARK    3  A    between atoms: S_18  and  C_9 
REMARK    4  A    between atoms: C_13  and  C_19 
REMARK    5  A    between atoms: O_26  and  C_15 
REMARK    6  A    between atoms: C_19  and  S_18 
REMARK    7  A    between atoms: O_29  and  C_22 
ROOT
ATOM      1  N   UNL d   1       2.141  -0.834   0.000  0.00  0.00    -0.194 N 
ATOM      2  N   UNL d   1       2.232  -0.017   0.000  0.00  0.00    -0.162 NA
ATOM      3  C   UNL d   1       1.332  -0.996   0.000  0.00  0.00     0.090 A 
ATOM      4  C   UNL d   1       1.473   0.320   0.000  0.00  0.00     0.109 A 
ATOM      5  C   UNL d   1       0.938  -0.290   0.000  0.00  0.00     0.041 A 
ATOM      6  C   UNL d   1       2.743  -1.373   0.000  0.00  0.00     0.287 C 
ATOM      7  O   UNL d   1       3.527  -1.125   0.000  0.00  0.00    -0.265 OA
ENDROOT
BRANCH   6   8
ATOM      8  C   UNL d   1       2.577  -2.183   0.000  0.00  0.00     0.100 C 
BRANCH   8   9
ATOM      9  S   UNL d   1       3.199  -2.730   0.000  0.00  0.00    -0.054 SA
BRANCH   9  10
ATOM     10  C   UNL d   1       3.988  -2.469   0.000  0.00  0.00     0.163 A 
ATOM     11  S   UNL d   1       4.672  -2.963   0.000  0.00  0.00    -0.021 SA
ATOM     12  C   UNL d   1       5.345  -2.469   0.000  0.00  0.00     0.200 A 
ATOM     13  N   UNL d   1       6.054  -2.880   0.000  0.00  0.00    -0.182 NA
ATOM     14  N   UNL d   1       5.091  -1.668   0.000  0.00  0.00    -0.204 N 
ATOM     15  C   UNL d   1       6.702  -2.419   0.000  0.00  0.00     0.281 A 
ATOM     16  O   UNL d   1       7.125  -3.141   0.000  0.00  0.00    -0.265 OA
ATOM     17  C   UNL d   1       6.851  -1.573   0.000  0.00  0.00     0.064 A 
ATOM     18  C   UNL d   1       6.266  -0.934   0.000  0.00  0.00     0.026 A 
ATOM     19  C   UNL d   1       5.432  -1.025   0.000  0.00  0.00     0.103 A 
ATOM     20  N   UNL d   1       4.249  -1.668   0.000  0.00  0.00    -0.150 NA
ENDBRANCH   9  10
ENDBRANCH   8   9
ENDBRANCH   6   8
BRANCH   3  21
ATOM     21  C   UNL d   1       1.012  -1.747   0.000  0.00  0.00     0.042 A 
ATOM     22  C   UNL d   1       0.191  -1.822   0.000  0.00  0.00     0.118 A 
ATOM     23  C   UNL d   1      -0.149  -2.581   0.000  0.00  0.00     0.116 A 
ATOM     24  C   UNL d   1       0.336  -3.249   0.000  0.00  0.00     0.026 A 
ATOM     25  C   UNL d   1       1.149  -3.166   0.000  0.00  0.00     0.002 A 
ATOM     26  C   UNL d   1       1.486  -2.407   0.000  0.00  0.00     0.004 A 
BRANCH  22  27
ATOM     27  O   UNL d   1      -0.295  -1.158   0.000  0.00  0.00    -0.326 OA
ATOM     28  C   UNL d   1       0.054  -0.415   0.000  0.00  0.00     0.181 C 
ENDBRANCH  22  27
BRANCH  23  29
ATOM     29  O   UNL d   1      -0.967  -2.656   0.000  0.00  0.00    -0.326 OA
ATOM     30  C   UNL d   1      -1.444  -1.984   0.000  0.00  0.00     0.181 C 
ENDBRANCH  23  29
ENDBRANCH   3  21
BRANCH   4  31
ATOM     31  C   UNL d   1       1.311   1.120   0.000  0.00  0.00     0.049 A 
ATOM     32  S   UNL d   1       1.867   1.726   0.000  0.00  0.00    -0.085 SA
ATOM     33  C   UNL d   1       1.456   2.448   0.000  0.00  0.00     0.035 A 
ATOM     34  C   UNL d   1       0.651   2.274   0.000  0.00  0.00     0.007 A 
ATOM     35  C   UNL d   1       0.577   1.452   0.000  0.00  0.00     0.009 A 
ENDBRANCH   4  31
TORSDOF 7
