REMARK  4 active torsions:
REMARK  status: ('A' for Active; 'I' for Inactive)
REMARK    1  A    between atoms: C_7  and  N_1 
REMARK    2  A    between atoms: C_12  and  N_4 
REMARK    3  A    between atoms: C_8  and  C_7 
REMARK    4  A    between atoms: C_16  and  C_12 
ROOT
ATOM      1  N   UNL d   1      -3.882   3.413   0.000  0.00  0.00    -0.273 N 
ATOM      2  C   UNL d   1      -3.882   2.575   0.000  0.00  0.00     0.153 A 
ATOM      3  S   UNL d   1      -3.174   2.169   0.000  0.00  0.00    -0.039 SA
ATOM      4  N   UNL d   1      -2.458   3.413   0.000  0.00  0.00    -0.281 N 
ATOM      5  C   UNL d   1      -3.174   3.827   0.000  0.00  0.00     0.168 A 
ATOM      6  C   UNL d   1      -2.458   2.575   0.000  0.00  0.00     0.120 A 
ATOM      7  S   UNL d   1      -4.606   2.161   0.000  0.00  0.00    -0.052 SA
ENDROOT
BRANCH   4   8
ATOM      8  C   UNL d   1      -1.742   3.815   0.000  0.00  0.00     0.101 C 
BRANCH   8   9
ATOM      9  C   UNL d   1      -1.734   4.639   0.000  0.00  0.00     0.099 A 
ATOM     10  N   UNL d   1      -2.458   5.042   0.000  0.00  0.00    -0.242 NA
ATOM     11  C   UNL d   1      -2.458   5.871   0.000  0.00  0.00     0.099 A 
ATOM     12  C   UNL d   1      -1.742   6.285   0.000  0.00  0.00     0.021 A 
ATOM     13  C   UNL d   1      -1.026   5.871   0.000  0.00  0.00     0.003 A 
ATOM     14  C   UNL d   1      -1.026   5.054   0.000  0.00  0.00     0.021 A 
ENDBRANCH   8   9
ENDBRANCH   4   8
BRANCH   1  15
ATOM     15  C   UNL d   1      -4.606   3.815   0.000  0.00  0.00     0.107 C 
BRANCH  15  16
ATOM     16  C   UNL d   1      -5.322   3.400   0.000  0.00  0.00     0.118 A 
ATOM     17  O   UNL d   1      -5.402   2.575   0.000  0.00  0.00    -0.304 OA
ATOM     18  C   UNL d   1      -6.210   2.408   0.000  0.00  0.00     0.123 A 
ATOM     19  C   UNL d   1      -6.620   3.111   0.000  0.00  0.00     0.029 A 
ATOM     20  C   UNL d   1      -6.072   3.727   0.000  0.00  0.00     0.028 A 
ENDBRANCH  15  16
ENDBRANCH   1  15
TORSDOF 4
