REMARK  3 active torsions:
REMARK  status: ('A' for Active; 'I' for Inactive)
REMARK    1  A    between atoms: N_7  and  C_1 
REMARK    2  A    between atoms: C_11  and  N_3 
REMARK       I    between atoms: C_9  and  N_7 
REMARK    3  A    between atoms: C_12  and  C_9 
ROOT
ATOM      1  C   UNL d   1      -2.979   1.955   0.000  0.00  0.00     0.165 A 
ATOM      2  C   UNL d   1      -3.221   1.216   0.000  0.00  0.00     0.067 A 
ATOM      3  N   UNL d   1      -3.609   2.412   0.000  0.00  0.00    -0.238 N 
ATOM      4  C   UNL d   1      -4.007   1.216   0.000  0.00  0.00     0.116 A 
ATOM      5  N   UNL d   1      -4.242   1.955   0.000  0.00  0.00    -0.168 NA
ATOM      6  S   UNL d   1      -3.609   0.019   0.000  0.00  0.00     0.213 S 
ATOM      7  C   UNL d   1      -4.242   0.477   0.000  0.00  0.00     0.120 A 
ATOM      8  C   UNL d   1      -2.979   0.477   0.000  0.00  0.00     0.103 A 
ATOM      9  O   UNL d   1      -4.281  -0.367   0.000  0.00  0.00    -0.217 OA
ATOM     10  O   UNL d   1      -3.034  -0.332   0.000  0.00  0.00    -0.217 OA
ENDROOT
BRANCH   1  11
ATOM     11  N   UNL d   1      -2.295   1.779   0.000  0.00  0.00    -0.189 NA
ATOM     12  C   UNL d   1      -1.419   2.275   0.000  0.00  0.00     0.281 C 
ATOM     13  O   UNL d   1      -1.392   3.038   0.000  0.00  0.00    -0.265 OA
BRANCH  12  14
ATOM     14  C   UNL d   1      -0.716   1.849   0.000  0.00  0.00     0.058 A 
ATOM     15  C   UNL d   1      -0.739   1.005   0.000  0.00  0.00     0.005 A 
ATOM     16  C   UNL d   1      -1.462   0.606   0.000  0.00  0.00     0.000 C 
ATOM     17  C   UNL d   1      -0.024   0.575   0.000  0.00  0.00     0.000 A 
ATOM     18  C   UNL d   1       0.708   0.985   0.000  0.00  0.00     0.000 A 
ATOM     19  C   UNL d   1       0.716   1.814   0.000  0.00  0.00     0.000 A 
ATOM     20  C   UNL d   1       0.004   2.248   0.000  0.00  0.00     0.005 A 
ENDBRANCH  12  14
ENDBRANCH   1  11
BRANCH   3  21
ATOM     21  C   UNL d   1      -3.609   3.245   0.000  0.00  0.00     0.088 C 
ATOM     22  C   UNL d   1      -2.944   3.749   0.000  0.00  0.00     0.025 C 
ATOM     23  C   UNL d   1      -4.375   3.562   0.000  0.00  0.00     0.025 C 
ATOM     24  C   UNL d   1      -3.495   4.062   0.000  0.00  0.00     0.025 C 
ENDBRANCH   3  21
TORSDOF 3
