REMARK  6 active torsions:
REMARK  status: ('A' for Active; 'I' for Inactive)
REMARK    1  A    between atoms: N_4  and  C_1 
REMARK    2  A    between atoms: C_10  and  C_3 
REMARK       I    between atoms: C_9  and  N_4 
REMARK       I    between atoms: N_7  and  C_8 
REMARK    3  A    between atoms: C_8  and  C_15 
REMARK    4  A    between atoms: C_16  and  C_9 
REMARK    5  A    between atoms: S_14  and  C_16 
REMARK    6  A    between atoms: C_15  and  S_14 
ROOT
ATOM      1  N   UNL d   1       1.814   0.846   0.000  0.00  0.00    -0.182 NA
ATOM      2  C   UNL d   1       2.414   0.300   0.000  0.00  0.00     0.288 C 
ATOM      3  O   UNL d   1       2.245  -0.507   0.000  0.00  0.00    -0.265 OA
ENDROOT
BRANCH   2   4
ATOM      4  C   UNL d   1       3.201   0.554   0.000  0.00  0.00     0.098 C 
BRANCH   4   5
ATOM      5  S   UNL d   1       3.780  -0.093   0.000  0.00  0.00    -0.076 SA
BRANCH   5   6
ATOM      6  C   UNL d   1       4.630   0.085   0.000  0.00  0.00     0.097 C 
BRANCH   6   7
ATOM      7  C   UNL d   1       5.205  -0.562   0.000  0.00  0.00     0.272 C 
ATOM      8  N   UNL d   1       4.938  -1.387   0.000  0.00  0.00    -0.267 N 
ATOM      9  C   UNL d   1       4.088  -1.564   0.000  0.00  0.00     0.110 A 
ATOM     10  C   UNL d   1       5.522  -2.029   0.000  0.00  0.00     0.110 A 
ATOM     11  C   UNL d   1       3.818  -2.385   0.000  0.00  0.00     0.142 A 
ATOM     12  O   UNL d   1       4.393  -3.031   0.000  0.00  0.00    -0.300 OA
ATOM     13  C   UNL d   1       5.243  -2.858   0.000  0.00  0.00     0.142 A 
ATOM     14  O   UNL d   1       6.054  -0.385   0.000  0.00  0.00    -0.266 OA
ENDBRANCH   6   7
ENDBRANCH   5   6
ENDBRANCH   4   5
ENDBRANCH   2   4
BRANCH   1  15
ATOM     15  C   UNL d   1       1.027   0.596   0.000  0.00  0.00     0.197 A 
ATOM     16  N   UNL d   1       0.774  -0.190   0.000  0.00  0.00    -0.221 NA
ATOM     17  C   UNL d   1      -0.051  -0.190   0.000  0.00  0.00     0.090 A 
ATOM     18  C   UNL d   1      -0.300   0.596   0.000  0.00  0.00     0.058 A 
ATOM     19  S   UNL d   1       0.359   1.074   0.000  0.00  0.00    -0.046 SA
BRANCH  17  20
ATOM     20  C   UNL d   1      -0.528  -0.850   0.000  0.00  0.00     0.018 A 
ATOM     21  C   UNL d   1      -0.199  -1.590   0.000  0.00  0.00     0.002 A 
ATOM     22  C   UNL d   1      -0.681  -2.258   0.000  0.00  0.00     0.000 A 
ATOM     23  C   UNL d   1      -1.497  -2.173   0.000  0.00  0.00     0.000 A 
ATOM     24  C   UNL d   1      -1.835  -1.421   0.000  0.00  0.00     0.000 A 
ATOM     25  C   UNL d   1      -1.345  -0.761   0.000  0.00  0.00     0.002 A 
ENDBRANCH  17  20
ENDBRANCH   1  15
TORSDOF 6
