REMARK  9 active torsions:
REMARK  status: ('A' for Active; 'I' for Inactive)
REMARK    1  A    between atoms: C_10  and  S_1 
REMARK    2  A    between atoms: N_11  and  S_1 
REMARK    3  A    between atoms: C_8  and  C_2 
REMARK    4  A    between atoms: C_3  and  N_6 
REMARK       I    between atoms: N_6  and  C_9 
REMARK    5  A    between atoms: C_9  and  C_14 
REMARK    6  A    between atoms: C_23  and  N_11 
REMARK    7  A    between atoms: C_24  and  N_11 
REMARK    8  A    between atoms: C_26  and  C_24 
REMARK    9  A    between atoms: C_27  and  C_26 
ROOT
ATOM      1  C   UNL d   1       2.489  -1.740   0.000  0.00  0.00     0.104 A 
ATOM      2  C   UNL d   1       0.928  -2.302   0.000  0.00  0.00     0.058 A 
ATOM      3  C   UNL d   1       1.852  -1.215   0.000  0.00  0.00     0.013 A 
ATOM      4  C   UNL d   1       2.339  -2.539   0.000  0.00  0.00     0.013 A 
ATOM      5  C   UNL d   1       1.074  -1.503   0.000  0.00  0.00     0.005 A 
ATOM      6  C   UNL d   1       1.565  -2.826   0.000  0.00  0.00     0.005 A 
ENDROOT
BRANCH   2   7
ATOM      7  C   UNL d   1       0.142  -2.589   0.000  0.00  0.00     0.282 C 
ATOM      8  N   UNL d   1      -0.495  -2.060   0.000  0.00  0.00    -0.165 NA
ATOM      9  O   UNL d   1       0.004  -3.388   0.000  0.00  0.00    -0.265 OA
BRANCH   8  10
ATOM     10  C   UNL d   1      -0.358  -1.261   0.000  0.00  0.00     0.297 A 
ATOM     11  O   UNL d   1       0.416  -0.974   0.000  0.00  0.00    -0.253 OA
ATOM     12  C   UNL d   1       0.379  -0.154   0.000  0.00  0.00     0.207 A 
ATOM     13  N   UNL d   1      -0.412   0.058   0.000  0.00  0.00    -0.119 NA
ATOM     14  N   UNL d   1      -0.874  -0.624   0.000  0.00  0.00    -0.101 NA
BRANCH  12  15
ATOM     15  C   UNL d   1       1.061   0.312   0.000  0.00  0.00     0.054 A 
ATOM     16  C   UNL d   1       0.987   1.132   0.000  0.00  0.00     0.061 A 
ATOM     17 CL   UNL d   1       0.241   1.482   0.000  0.00  0.00    -0.082 Cl
ATOM     18  C   UNL d   1       1.665   1.598   0.000  0.00  0.00     0.011 A 
ATOM     19  C   UNL d   1       2.427   1.257   0.000  0.00  0.00     0.001 A 
ATOM     20  C   UNL d   1       2.502   0.445   0.000  0.00  0.00     0.000 A 
ATOM     21  C   UNL d   1       1.815  -0.029   0.000  0.00  0.00     0.004 A 
ENDBRANCH  12  15
ENDBRANCH   8  10
ENDBRANCH   2   7
BRANCH   1  22
ATOM     22  S   UNL d   1       3.276  -1.461   0.000  0.00  0.00     0.271 S 
ATOM     23  O   UNL d   1       3.563  -2.239   0.000  0.00  0.00    -0.200 OA
ATOM     24  O   UNL d   1       2.989  -0.687   0.000  0.00  0.00    -0.200 OA
BRANCH  22  25
ATOM     25  N   UNL d   1       4.075  -1.178   0.000  0.00  0.00    -0.229 N 
BRANCH  25  26
ATOM     26  C   UNL d   1       4.712  -1.702   0.000  0.00  0.00     0.092 C 
ATOM     27  C   UNL d   1       5.486  -1.415   0.000  0.00  0.00     0.021 C 
ENDBRANCH  25  26
BRANCH  25  28
ATOM     28  C   UNL d   1       4.212  -0.366   0.000  0.00  0.00     0.092 C 
BRANCH  28  29
ATOM     29  C   UNL d   1       4.987  -0.087   0.000  0.00  0.00     0.020 C 
BRANCH  29  30
ATOM     30  C   UNL d   1       5.124   0.724   0.000  0.00  0.00     0.002 C 
ATOM     31  C   UNL d   1       5.898   1.007   0.000  0.00  0.00     0.000 C 
ENDBRANCH  29  30
ENDBRANCH  28  29
ENDBRANCH  25  28
ENDBRANCH  22  25
ENDBRANCH   1  22
TORSDOF 9
