REMARK  5 active torsions:
REMARK  status: ('A' for Active; 'I' for Inactive)
REMARK    1  A    between atoms: N_3  and  S_1 
REMARK    2  A    between atoms: C_11  and  S_1 
REMARK    3  A    between atoms: C_9  and  C_2 
REMARK    4  A    between atoms: C_4  and  N_7 
REMARK       I    between atoms: N_7  and  C_10 
REMARK    5  A    between atoms: C_10  and  C_14 
ROOT
ATOM      1  C   UNL d   1       2.645  -1.738   0.000  0.00  0.00     0.104 A 
ATOM      2  C   UNL d   1       1.085  -2.300   0.000  0.00  0.00     0.058 A 
ATOM      3  C   UNL d   1       2.495  -2.537   0.000  0.00  0.00     0.013 A 
ATOM      4  C   UNL d   1       2.000  -1.214   0.000  0.00  0.00     0.013 A 
ATOM      5  C   UNL d   1       1.722  -2.824   0.000  0.00  0.00     0.005 A 
ATOM      6  C   UNL d   1       1.227  -1.501   0.000  0.00  0.00     0.005 A 
ENDROOT
BRANCH   2   7
ATOM      7  C   UNL d   1       0.291  -2.587   0.000  0.00  0.00     0.282 C 
ATOM      8  N   UNL d   1      -0.345  -2.058   0.000  0.00  0.00    -0.165 NA
ATOM      9  O   UNL d   1       0.162  -3.385   0.000  0.00  0.00    -0.265 OA
BRANCH   8  10
ATOM     10  C   UNL d   1      -0.208  -1.260   0.000  0.00  0.00     0.297 A 
ATOM     11  O   UNL d   1       0.574  -0.973   0.000  0.00  0.00    -0.253 OA
ATOM     12  C   UNL d   1       0.528  -0.154   0.000  0.00  0.00     0.207 A 
ATOM     13  N   UNL d   1      -0.258   0.058   0.000  0.00  0.00    -0.119 NA
ATOM     14  N   UNL d   1      -0.719  -0.624   0.000  0.00  0.00    -0.101 NA
BRANCH  12  15
ATOM     15  C   UNL d   1       1.214   0.312   0.000  0.00  0.00     0.054 A 
ATOM     16  C   UNL d   1       1.139   1.131   0.000  0.00  0.00     0.061 A 
ATOM     17 CL   UNL d   1       0.391   1.480   0.000  0.00  0.00    -0.082 Cl
ATOM     18  C   UNL d   1       1.821   1.597   0.000  0.00  0.00     0.011 A 
ATOM     19  C   UNL d   1       2.574   1.256   0.000  0.00  0.00     0.001 A 
ATOM     20  C   UNL d   1       2.649   0.445   0.000  0.00  0.00     0.000 A 
ATOM     21  C   UNL d   1       1.971  -0.029   0.000  0.00  0.00     0.004 A 
ENDBRANCH  12  15
ENDBRANCH   8  10
ENDBRANCH   2   7
BRANCH   1  22
ATOM     22  S   UNL d   1       3.431  -1.460   0.000  0.00  0.00     0.271 S 
ATOM     23  O   UNL d   1       3.718  -2.237   0.000  0.00  0.00    -0.200 OA
ATOM     24  O   UNL d   1       3.144  -0.686   0.000  0.00  0.00    -0.200 OA
BRANCH  22  25
ATOM     25  N   UNL d   1       4.196  -1.164   0.000  0.00  0.00    -0.231 N 
ATOM     26  C   UNL d   1       4.832  -1.697   0.000  0.00  0.00     0.075 A 
ATOM     27  C   UNL d   1       4.695  -2.508   0.000  0.00  0.00     0.020 C 
ATOM     28  C   UNL d   1       5.606  -1.410   0.000  0.00  0.00     0.018 A 
ATOM     29  C   UNL d   1       5.743  -0.599   0.000  0.00  0.00     0.003 A 
ATOM     30  C   UNL d   1       5.107  -0.075   0.000  0.00  0.00     0.020 A 
ATOM     31  C   UNL d   1       4.333  -0.362   0.000  0.00  0.00     0.092 A 
ENDBRANCH  22  25
ENDBRANCH   1  22
TORSDOF 5
