REMARK  7 active torsions:
REMARK  status: ('A' for Active; 'I' for Inactive)
REMARK    1  A    between atoms: C_7  and  N_2 
REMARK    2  A    between atoms: C_21  and  C_7 
REMARK    3  A    between atoms: C_8  and  C_19 
REMARK       I    between atoms: N_13  and  C_8 
REMARK    4  A    between atoms: C_9  and  C_20 
REMARK    5  A    between atoms: O_14  and  C_11 
REMARK    6  A    between atoms: C_20  and  N_13 
REMARK    7  A    between atoms: C_19  and  O_14 
ROOT
ATOM      1  C   UNL d   1      -2.446   2.984   0.000  0.00  0.00     0.265 A 
ATOM      2  N   UNL d   1      -1.734   2.559   0.000  0.00  0.00    -0.272 N 
ATOM      3  C   UNL d   1      -3.159   2.563   0.000  0.00  0.00     0.059 A 
ATOM      4  C   UNL d   1      -3.159   1.738   0.000  0.00  0.00     0.029 A 
ATOM      5  C   UNL d   1      -2.450   1.325   0.000  0.00  0.00     0.021 A 
ATOM      6  C   UNL d   1      -1.734   1.734   0.000  0.00  0.00     0.083 A 
ATOM      7  O   UNL d   1      -2.446   3.801   0.000  0.00  0.00    -0.267 OA
ATOM      8  C   UNL d   1      -3.872   1.321   0.000  0.00  0.00     0.100 A 
ATOM      9  C   UNL d   1      -3.872   2.984   0.000  0.00  0.00     0.005 A 
ATOM     10  C   UNL d   1      -4.584   2.563   0.000  0.00  0.00     0.002 A 
ATOM     11  C   UNL d   1      -4.584   1.734   0.000  0.00  0.00     0.025 A 
ENDROOT
BRANCH   8  12
ATOM     12  O   UNL d   1      -3.872   0.500   0.000  0.00  0.00    -0.300 OA
BRANCH  12  13
ATOM     13  C   UNL d   1      -3.151   0.096   0.000  0.00  0.00     0.185 C 
BRANCH  13  14
ATOM     14  C   UNL d   1      -3.138  -0.729   0.000  0.00  0.00     0.304 C 
ATOM     15  N   UNL d   1      -2.421  -1.138   0.000  0.00  0.00    -0.203 NA
ATOM     16  O   UNL d   1      -3.851  -1.150   0.000  0.00  0.00    -0.263 OA
BRANCH  15  17
ATOM     17  C   UNL d   1      -2.421  -1.963   0.000  0.00  0.00     0.127 C 
BRANCH  17  18
ATOM     18  C   UNL d   1      -1.709  -2.367   0.000  0.00  0.00     0.119 A 
ATOM     19  O   UNL d   1      -0.959  -2.038   0.000  0.00  0.00    -0.304 OA
ATOM     20  C   UNL d   1      -0.408  -2.638   0.000  0.00  0.00     0.123 A 
ATOM     21  C   UNL d   1      -0.813  -3.355   0.000  0.00  0.00     0.029 A 
ATOM     22  C   UNL d   1      -1.621  -3.180   0.000  0.00  0.00     0.028 A 
ENDBRANCH  17  18
ENDBRANCH  15  17
ENDBRANCH  13  14
ENDBRANCH  12  13
ENDBRANCH   8  12
BRANCH   2  23
ATOM     23  C   UNL d   1      -1.021   2.963   0.000  0.00  0.00     0.083 C 
BRANCH  23  24
ATOM     24  C   UNL d   1      -1.013   3.784   0.000  0.00  0.00     0.018 A 
ATOM     25  C   UNL d   1      -0.283   4.180   0.000  0.00  0.00     0.002 A 
ATOM     26  C   UNL d   1      -0.283   5.005   0.000  0.00  0.00     0.007 A 
ATOM     27  C   UNL d   1      -0.996   5.418   0.000  0.00  0.00     0.035 A 
ATOM     28  C   UNL d   1      -1.709   5.005   0.000  0.00  0.00     0.007 A 
ATOM     29 BR   UNL d   1      -0.984   6.239   0.000  0.00  0.00    -0.049 Br
ATOM     30  C   UNL d   1      -1.713   4.188   0.000  0.00  0.00     0.002 A 
ENDBRANCH  23  24
ENDBRANCH   2  23
TORSDOF 7
