REMARK  7 active torsions:
REMARK  status: ('A' for Active; 'I' for Inactive)
REMARK    1  A    between atoms: C_13  and  N_2 
REMARK    2  A    between atoms: C_7  and  C_4 
REMARK    3  A    between atoms: O_19  and  C_7 
REMARK    4  A    between atoms: C_9  and  C_18 
REMARK    5  A    between atoms: C_20  and  C_13 
REMARK    6  A    between atoms: O_16  and  C_15 
REMARK    7  A    between atoms: C_18  and  O_16 
ROOT
ATOM      1  C   UNL d   1      -2.654   3.231   0.000  0.00  0.00     0.265 A 
ATOM      2  N   UNL d   1      -1.939   2.819   0.000  0.00  0.00    -0.272 N 
ATOM      3  C   UNL d   1      -3.364   2.819   0.000  0.00  0.00     0.059 A 
ATOM      4  C   UNL d   1      -3.364   1.994   0.000  0.00  0.00     0.029 A 
ATOM      5  C   UNL d   1      -2.654   1.581   0.000  0.00  0.00     0.021 A 
ATOM      6  C   UNL d   1      -1.939   1.994   0.000  0.00  0.00     0.083 A 
ATOM      7  O   UNL d   1      -2.654   4.056   0.000  0.00  0.00    -0.267 OA
ATOM      8  C   UNL d   1      -4.079   1.581   0.000  0.00  0.00     0.100 A 
ATOM      9  C   UNL d   1      -4.079   3.231   0.000  0.00  0.00     0.005 A 
ATOM     10  C   UNL d   1      -4.794   2.819   0.000  0.00  0.00     0.002 A 
ATOM     11  C   UNL d   1      -4.794   1.994   0.000  0.00  0.00     0.025 A 
ENDROOT
BRANCH   8  12
ATOM     12  O   UNL d   1      -4.079   0.756   0.000  0.00  0.00    -0.303 OA
BRANCH  12  13
ATOM     13  C   UNL d   1      -3.364   0.344   0.000  0.00  0.00     0.147 C 
BRANCH  13  14
ATOM     14  C   UNL d   1      -3.364  -0.481   0.000  0.00  0.00     0.125 A 
ATOM     15  O   UNL d   1      -3.983  -1.036   0.000  0.00  0.00    -0.300 OA
ATOM     16  C   UNL d   1      -3.639  -1.788   0.000  0.00  0.00     0.163 A 
ATOM     17  C   UNL d   1      -2.828  -1.705   0.000  0.00  0.00     0.032 A 
ATOM     18  C   UNL d   1      -2.654  -0.894   0.000  0.00  0.00     0.029 A 
BRANCH  16  19
ATOM     19  C   UNL d   1      -4.052  -2.516   0.000  0.00  0.00     0.319 C 
ATOM     20  O   UNL d   1      -3.639  -3.222   0.000  0.00  0.00    -0.257 OA
BRANCH  19  21
ATOM     21  O   UNL d   1      -4.890  -2.521   0.000  0.00  0.00    -0.294 OA
ATOM     22  C   UNL d   1      -5.303  -3.236   0.000  0.00  0.00     0.185 C 
ENDBRANCH  19  21
ENDBRANCH  16  19
ENDBRANCH  13  14
ENDBRANCH  12  13
ENDBRANCH   8  12
BRANCH   2  23
ATOM     23  C   UNL d   1      -1.219   3.240   0.000  0.00  0.00     0.083 C 
BRANCH  23  24
ATOM     24  C   UNL d   1      -1.219   4.065   0.000  0.00  0.00     0.018 A 
ATOM     25  C   UNL d   1      -1.934   4.473   0.000  0.00  0.00     0.002 A 
ATOM     26  C   UNL d   1      -1.934   5.298   0.000  0.00  0.00     0.000 A 
ATOM     27  C   UNL d   1      -1.219   5.711   0.000  0.00  0.00     0.000 A 
ATOM     28  C   UNL d   1      -0.509   5.298   0.000  0.00  0.00     0.000 A 
ATOM     29  C   UNL d   1      -0.509   4.473   0.000  0.00  0.00     0.002 A 
ENDBRANCH  23  24
ENDBRANCH   2  23
TORSDOF 7
