REMARK  6 active torsions:
REMARK  status: ('A' for Active; 'I' for Inactive)
REMARK    1  A    between atoms: N_3  and  C_1 
REMARK    2  A    between atoms: S_2  and  C_9 
REMARK    3  A    between atoms: N_10  and  S_2 
REMARK       I    between atoms: C_8  and  N_3 
REMARK    4  A    between atoms: C_20  and  N_4 
REMARK    5  A    between atoms: C_13  and  C_8 
REMARK    6  A    between atoms: O_22  and  C_14 
ROOT
ATOM      1  N   UNL d   1       1.876  -0.816   0.000  0.00  0.00    -0.184 NA
ATOM      2  C   UNL d   1       2.059  -1.627   0.000  0.00  0.00     0.281 C 
ATOM      3  O   UNL d   1       1.452  -2.184   0.000  0.00  0.00    -0.265 OA
ENDROOT
BRANCH   1   4
ATOM      4  C   UNL d   1       1.078  -0.574   0.000  0.00  0.00     0.182 A 
ATOM      5  N   UNL d   1       0.816   0.200   0.000  0.00  0.00    -0.283 N 
ATOM      6  C   UNL d   1      -0.008   0.200   0.000  0.00  0.00     0.094 A 
ATOM      7  C   UNL d   1      -0.570   0.820   0.000  0.00  0.00     0.111 A 
ATOM      8  C   UNL d   1      -0.262  -0.578   0.000  0.00  0.00     0.050 A 
ATOM      9  C   UNL d   1      -1.369   0.637   0.000  0.00  0.00     0.026 A 
ATOM     10  C   UNL d   1      -1.631  -0.141   0.000  0.00  0.00     0.003 A 
ATOM     11  C   UNL d   1      -1.073  -0.753   0.000  0.00  0.00     0.008 A 
ATOM     12  S   UNL d   1       0.404  -1.065   0.000  0.00  0.00    -0.048 SA
BRANCH   5  13
ATOM     13  C   UNL d   1       1.290   0.874   0.000  0.00  0.00     0.082 C 
ATOM     14  C   UNL d   1       2.084   0.661   0.000  0.00  0.00     0.021 C 
ENDBRANCH   5  13
BRANCH   7  15
ATOM     15  O   UNL d   1      -0.320   1.593   0.000  0.00  0.00    -0.327 OA
ATOM     16  C   UNL d   1       0.478   1.768   0.000  0.00  0.00     0.181 C 
ENDBRANCH   7  15
ENDBRANCH   1   4
BRANCH   2  17
ATOM     17  C   UNL d   1       2.850  -1.872   0.000  0.00  0.00     0.058 A 
ATOM     18  C   UNL d   1       3.025  -2.675   0.000  0.00  0.00     0.005 A 
ATOM     19  C   UNL d   1       3.811  -2.925   0.000  0.00  0.00     0.013 A 
ATOM     20  C   UNL d   1       4.423  -2.363   0.000  0.00  0.00     0.104 A 
ATOM     21  C   UNL d   1       4.235  -1.552   0.000  0.00  0.00     0.013 A 
ATOM     22  C   UNL d   1       3.449  -1.302   0.000  0.00  0.00     0.005 A 
BRANCH  20  23
ATOM     23  S   UNL d   1       5.209  -2.609   0.000  0.00  0.00     0.271 S 
ATOM     24  O   UNL d   1       5.421  -1.802   0.000  0.00  0.00    -0.200 OA
ATOM     25  O   UNL d   1       4.997  -3.399   0.000  0.00  0.00    -0.200 OA
BRANCH  23  26
ATOM     26  N   UNL d   1       5.995  -2.850   0.000  0.00  0.00    -0.226 N 
ATOM     27  C   UNL d   1       6.178  -3.661   0.000  0.00  0.00     0.111 C 
ATOM     28  C   UNL d   1       6.607  -2.309   0.000  0.00  0.00     0.111 C 
ENDBRANCH  23  26
ENDBRANCH  20  23
ENDBRANCH   2  17
TORSDOF 6
