REMARK  3 active torsions:
REMARK  status: ('A' for Active; 'I' for Inactive)
REMARK    1  A    between atoms: C_6  and  C_2 
REMARK       I    between atoms: N_8  and  C_6 
REMARK    2  A    between atoms: C_14  and  N_8 
REMARK    3  A    between atoms: C_15  and  C_14 
ROOT
ATOM      1  N   UNL d   1      -0.258   0.696   0.000  0.00  0.00    -0.252 N 
ATOM      2  C   UNL d   1       1.167   0.696   0.000  0.00  0.00     0.133 A 
ATOM      3  C   UNL d   1       0.454   1.108   0.000  0.00  0.00     0.272 A 
ATOM      4  C   UNL d   1      -0.258  -0.129   0.000  0.00  0.00     0.182 A 
ATOM      5  N   UNL d   1       0.454  -0.542   0.000  0.00  0.00    -0.220 NA
ATOM      6  C   UNL d   1       1.167  -0.129   0.000  0.00  0.00     0.111 A 
ATOM      7  S   UNL d   1      -1.046  -0.388   0.000  0.00  0.00    -0.048 SA
ATOM      8  O   UNL d   1       0.454   1.933   0.000  0.00  0.00    -0.266 OA
ATOM      9  C   UNL d   1      -1.046   0.946   0.000  0.00  0.00     0.092 A 
ATOM     10  C   UNL d   1      -1.525   0.275   0.000  0.00  0.00     0.057 A 
ENDROOT
BRANCH   2  11
ATOM     11  C   UNL d   1       1.892   1.108   0.000  0.00  0.00     0.285 C 
ATOM     12  N   UNL d   1       2.604   0.688   0.000  0.00  0.00    -0.208 NA
ATOM     13  O   UNL d   1       1.892   1.933   0.000  0.00  0.00    -0.265 OA
BRANCH  12  14
ATOM     14  C   UNL d   1       2.600  -0.138   0.000  0.00  0.00     0.085 C 
ATOM     15  C   UNL d   1       1.879  -0.550   0.000  0.00  0.00     0.021 C 
BRANCH  14  16
ATOM     16  C   UNL d   1       3.312  -0.550   0.000  0.00  0.00     0.019 C 
ATOM     17  C   UNL d   1       3.312  -1.379   0.000  0.00  0.00     0.002 C 
ENDBRANCH  14  16
ENDBRANCH  12  14
ENDBRANCH   2  11
TORSDOF 3
