REMARK  5 active torsions:
REMARK  status: ('A' for Active; 'I' for Inactive)
REMARK    1  A    between atoms: C_10  and  N_2 
REMARK       I    between atoms: N_3  and  C_6 
REMARK    2  A    between atoms: C_6  and  C_14 
REMARK    3  A    between atoms: C_17  and  C_10 
REMARK    4  A    between atoms: O_13  and  C_12 
REMARK    5  A    between atoms: C_14  and  O_13 
ROOT
ATOM      1  C   UNL d   1      -2.458   2.998   0.000  0.00  0.00     0.265 A 
ATOM      2  N   UNL d   1      -1.742   2.571   0.000  0.00  0.00    -0.272 N 
ATOM      3  C   UNL d   1      -3.174   2.575   0.000  0.00  0.00     0.059 A 
ATOM      4  C   UNL d   1      -3.174   1.746   0.000  0.00  0.00     0.029 A 
ATOM      5  C   UNL d   1      -2.462   1.332   0.000  0.00  0.00     0.021 A 
ATOM      6  C   UNL d   1      -1.742   1.742   0.000  0.00  0.00     0.083 A 
ATOM      7  O   UNL d   1      -2.458   3.819   0.000  0.00  0.00    -0.267 OA
ATOM      8  C   UNL d   1      -3.890   1.327   0.000  0.00  0.00     0.100 A 
ATOM      9  C   UNL d   1      -3.890   2.998   0.000  0.00  0.00     0.005 A 
ATOM     10  C   UNL d   1      -4.606   2.575   0.000  0.00  0.00     0.002 A 
ATOM     11  C   UNL d   1      -4.606   1.742   0.000  0.00  0.00     0.025 A 
ENDROOT
BRANCH   8  12
ATOM     12  O   UNL d   1      -3.890   0.502   0.000  0.00  0.00    -0.300 OA
BRANCH  12  13
ATOM     13  C   UNL d   1      -3.124   0.071   0.000  0.00  0.00     0.184 C 
BRANCH  13  14
ATOM     14  C   UNL d   1      -3.300  -0.833   0.000  0.00  0.00     0.290 C 
ATOM     15  N   UNL d   1      -2.689  -1.361   0.000  0.00  0.00    -0.272 N 
ATOM     16  C   UNL d   1      -2.848  -2.152   0.000  0.00  0.00     0.067 A 
ATOM     17  C   UNL d   1      -1.931  -1.097   0.000  0.00  0.00     0.083 A 
ATOM     18  C   UNL d   1      -2.236  -2.701   0.000  0.00  0.00     0.016 A 
ATOM     19  C   UNL d   1      -3.606  -2.429   0.000  0.00  0.00     0.018 A 
ATOM     20  C   UNL d   1      -2.383  -3.493   0.000  0.00  0.00     0.001 A 
ATOM     21  C   UNL d   1      -1.470  -2.416   0.000  0.00  0.00     0.003 A 
ATOM     22  C   UNL d   1      -3.153  -3.748   0.000  0.00  0.00     0.000 A 
ATOM     23  C   UNL d   1      -3.777  -3.216   0.000  0.00  0.00     0.002 A 
ATOM     24  C   UNL d   1      -1.319  -1.625   0.000  0.00  0.00     0.019 A 
ATOM     25  O   UNL d   1      -4.167  -1.118   0.000  0.00  0.00    -0.264 OA
ENDBRANCH  13  14
ENDBRANCH  12  13
ENDBRANCH   8  12
BRANCH   2  26
ATOM     26  C   UNL d   1      -1.026   2.978   0.000  0.00  0.00     0.083 C 
BRANCH  26  27
ATOM     27  C   UNL d   1      -1.018   3.803   0.000  0.00  0.00     0.018 A 
ATOM     28  C   UNL d   1      -1.721   4.209   0.000  0.00  0.00     0.002 A 
ATOM     29  C   UNL d   1      -1.717   5.029   0.000  0.00  0.00     0.007 A 
ATOM     30  C   UNL d   1      -1.001   5.444   0.000  0.00  0.00     0.035 A 
ATOM     31  C   UNL d   1      -0.285   5.029   0.000  0.00  0.00     0.007 A 
ATOM     32 BR   UNL d   1      -0.988   6.269   0.000  0.00  0.00    -0.049 Br
ATOM     33  C   UNL d   1      -0.285   4.200   0.000  0.00  0.00     0.002 A 
ENDBRANCH  26  27
ENDBRANCH   2  26
TORSDOF 5
