REMARK  9 active torsions:
REMARK  status: ('A' for Active; 'I' for Inactive)
REMARK    1  A    between atoms: C_21  and  N_1 
REMARK    2  A    between atoms: S_7  and  C_2 
REMARK       I    between atoms: C_6  and  N_18 
REMARK    3  A    between atoms: C_15  and  C_6 
REMARK    4  A    between atoms: C_19  and  S_7 
REMARK    5  A    between atoms: C_8  and  C_19 
REMARK       I    between atoms: N_11  and  C_8 
REMARK    6  A    between atoms: C_9  and  C_20 
REMARK    7  A    between atoms: C_20  and  N_11 
REMARK    8  A    between atoms: N_18  and  C_23 
REMARK    9  A    between atoms: C_23  and  C_21 
ROOT
ATOM      1  N   UNL d   1      -2.157   1.292   0.000  0.00  0.00    -0.302 N 
ATOM      2  C   UNL d   1      -2.571   2.566   0.000  0.00  0.00     0.049 A 
ATOM      3  C   UNL d   1      -1.902   2.090   0.000  0.00  0.00     0.087 A 
ATOM      4  C   UNL d   1      -3.243   2.077   0.000  0.00  0.00     0.024 A 
ATOM      5  C   UNL d   1      -2.984   1.292   0.000  0.00  0.00     0.065 A 
ATOM      6  C   UNL d   1      -4.046   2.253   0.000  0.00  0.00     0.002 A 
ATOM      7  C   UNL d   1      -3.536   0.685   0.000  0.00  0.00     0.018 A 
ATOM      8  C   UNL d   1      -4.598   1.638   0.000  0.00  0.00     0.000 A 
ATOM      9  C   UNL d   1      -4.347   0.853   0.000  0.00  0.00     0.002 A 
ENDROOT
BRANCH   1  10
ATOM     10  C   UNL d   1      -1.676   0.623   0.000  0.00  0.00     0.101 C 
BRANCH  10  11
ATOM     11  C   UNL d   1      -2.015  -0.130   0.000  0.00  0.00     0.121 C 
BRANCH  11  12
ATOM     12  N   UNL d   1      -1.526  -0.802   0.000  0.00  0.00    -0.205 NA
ATOM     13  C   UNL d   1      -1.864  -1.559   0.000  0.00  0.00     0.279 C 
ATOM     14  O   UNL d   1      -2.692  -1.643   0.000  0.00  0.00    -0.265 OA
BRANCH  13  15
ATOM     15  C   UNL d   1      -1.379  -2.224   0.000  0.00  0.00     0.058 A 
ATOM     16  C   UNL d   1      -0.573  -2.144   0.000  0.00  0.00     0.005 A 
ATOM     17  C   UNL d   1      -0.071  -2.800   0.000  0.00  0.00     0.000 A 
ATOM     18  C   UNL d   1      -0.397  -3.561   0.000  0.00  0.00     0.000 A 
ATOM     19  C   UNL d   1      -1.225  -3.653   0.000  0.00  0.00     0.000 A 
ATOM     20  C   UNL d   1      -1.714  -2.984   0.000  0.00  0.00     0.005 A 
ENDBRANCH  13  15
ENDBRANCH  11  12
ENDBRANCH  10  11
ENDBRANCH   1  10
BRANCH   2  21
ATOM     21  S   UNL d   1      -2.579   3.394   0.000  0.00  0.00    -0.080 SA
BRANCH  21  22
ATOM     22  C   UNL d   1      -1.864   3.808   0.000  0.00  0.00     0.098 C 
BRANCH  22  23
ATOM     23  C   UNL d   1      -1.149   3.406   0.000  0.00  0.00     0.286 C 
ATOM     24  N   UNL d   1      -0.435   3.812   0.000  0.00  0.00    -0.204 NA
ATOM     25  O   UNL d   1      -1.149   2.579   0.000  0.00  0.00    -0.265 OA
BRANCH  24  26
ATOM     26  C   UNL d   1      -0.439   4.631   0.000  0.00  0.00     0.127 C 
BRANCH  26  27
ATOM     27  C   UNL d   1       0.276   5.045   0.000  0.00  0.00     0.119 A 
ATOM     28  O   UNL d   1       0.355   5.860   0.000  0.00  0.00    -0.304 OA
ATOM     29  C   UNL d   1       1.158   6.035   0.000  0.00  0.00     0.123 A 
ATOM     30  C   UNL d   1       1.572   5.333   0.000  0.00  0.00     0.029 A 
ATOM     31  C   UNL d   1       1.028   4.719   0.000  0.00  0.00     0.028 A 
ENDBRANCH  26  27
ENDBRANCH  24  26
ENDBRANCH  22  23
ENDBRANCH  21  22
ENDBRANCH   2  21
TORSDOF 9
