REMARK  2 active torsions:
REMARK  status: ('A' for Active; 'I' for Inactive)
REMARK    1  A    between atoms: C_8  and  N_1 
REMARK    2  A    between atoms: C_12  and  C_8 
ROOT
ATOM      1  N   UNL d   1       2.672  -0.719   0.000  0.00  0.00    -0.238 N 
ATOM      2  C   UNL d   1       2.196  -1.195   0.000  0.00  0.00     0.267 A 
ATOM      3  C   UNL d   1       2.549   0.056   0.000  0.00  0.00     0.267 A 
ATOM      4  C   UNL d   1       1.815   0.437   0.000  0.00  0.00     0.057 A 
ATOM      5  C   UNL d   1       1.394  -1.191   0.000  0.00  0.00     0.057 A 
ATOM      6  C   UNL d   1       1.064   0.079   0.000  0.00  0.00     0.005 A 
ATOM      7  C   UNL d   1       0.921  -0.683   0.000  0.00  0.00     0.005 A 
ATOM      8  O   UNL d   1       2.537  -2.005   0.000  0.00  0.00    -0.267 OA
ATOM      9  O   UNL d   1       3.180   0.520   0.000  0.00  0.00    -0.267 OA
ATOM     10  C   UNL d   1       1.203  -1.850   0.000  0.00  0.00     0.005 A 
ATOM     11  C   UNL d   1       1.898   1.259   0.000  0.00  0.00     0.005 A 
ATOM     12  C   UNL d   1       0.397   0.560   0.000  0.00  0.00     0.000 A 
ATOM     13  C   UNL d   1       0.242  -0.846   0.000  0.00  0.00     0.000 A 
ATOM     14  C   UNL d   1       1.219   1.735   0.000  0.00  0.00     0.000 A 
ATOM     15  C   UNL d   1       0.469   1.382   0.000  0.00  0.00     0.000 A 
ATOM     16  C   UNL d   1       0.052  -1.513   0.000  0.00  0.00     0.000 A 
ATOM     17  C   UNL d   1       0.528  -2.013   0.000  0.00  0.00     0.000 A 
ENDROOT
BRANCH   1  18
ATOM     18  C   UNL d   1       3.518  -0.989   0.000  0.00  0.00     0.111 C 
BRANCH  18  19
ATOM     19  C   UNL d   1       3.704  -1.850   0.000  0.00  0.00     0.118 A 
ATOM     20  O   UNL d   1       3.113  -2.505   0.000  0.00  0.00    -0.304 OA
ATOM     21  C   UNL d   1       3.554  -3.268   0.000  0.00  0.00     0.123 A 
ATOM     22  C   UNL d   1       4.419  -3.085   0.000  0.00  0.00     0.029 A 
ATOM     23  C   UNL d   1       4.507  -2.208   0.000  0.00  0.00     0.028 A 
ENDBRANCH  18  19
ENDBRANCH   1  18
TORSDOF 2
