REMARK  6 active torsions:
REMARK  status: ('A' for Active; 'I' for Inactive)
REMARK    1  A    between atoms: N_3  and  C_1 
REMARK    2  A    between atoms: S_2  and  C_10 
REMARK    3  A    between atoms: N_8  and  S_2 
REMARK       I    between atoms: C_9  and  N_3 
REMARK    4  A    between atoms: C_23  and  N_4 
REMARK    5  A    between atoms: C_13  and  C_9 
REMARK    6  A    between atoms: O_25  and  C_14 
ROOT
ATOM      1  N   UNL d   1       2.104  -0.267   0.000  0.00  0.00    -0.184 NA
ATOM      2  C   UNL d   1       2.288  -1.079   0.000  0.00  0.00     0.281 C 
ATOM      3  O   UNL d   1       1.679  -1.637   0.000  0.00  0.00    -0.265 OA
ENDROOT
BRANCH   2   4
ATOM      4  C   UNL d   1       3.079  -1.325   0.000  0.00  0.00     0.058 A 
ATOM      5  C   UNL d   1       3.254  -2.129   0.000  0.00  0.00     0.005 A 
ATOM      6  C   UNL d   1       4.042  -2.375   0.000  0.00  0.00     0.013 A 
ATOM      7  C   UNL d   1       4.654  -1.817   0.000  0.00  0.00     0.104 A 
ATOM      8  C   UNL d   1       4.467  -1.004   0.000  0.00  0.00     0.013 A 
ATOM      9  C   UNL d   1       3.679  -0.754   0.000  0.00  0.00     0.005 A 
BRANCH   7  10
ATOM     10  S   UNL d   1       5.442  -2.062   0.000  0.00  0.00     0.272 S 
ATOM     11  O   UNL d   1       5.654  -1.254   0.000  0.00  0.00    -0.200 OA
ATOM     12  O   UNL d   1       5.229  -2.854   0.000  0.00  0.00    -0.200 OA
BRANCH  10  13
ATOM     13  N   UNL d   1       6.229  -2.304   0.000  0.00  0.00    -0.225 N 
ATOM     14  C   UNL d   1       6.404  -3.104   0.000  0.00  0.00     0.118 A 
ATOM     15  C   UNL d   1       7.192  -3.350   0.000  0.00  0.00     0.142 A 
ATOM     16  O   UNL d   1       7.800  -2.792   0.000  0.00  0.00    -0.300 OA
ATOM     17  C   UNL d   1       7.617  -1.988   0.000  0.00  0.00     0.142 A 
ATOM     18  C   UNL d   1       6.829  -1.742   0.000  0.00  0.00     0.118 A 
ENDBRANCH  10  13
ENDBRANCH   7  10
ENDBRANCH   2   4
BRANCH   1  19
ATOM     19  C   UNL d   1       1.304  -0.025   0.000  0.00  0.00     0.182 A 
ATOM     20  N   UNL d   1       1.042   0.750   0.000  0.00  0.00    -0.283 N 
ATOM     21  C   UNL d   1       0.217   0.750   0.000  0.00  0.00     0.094 A 
ATOM     22  C   UNL d   1      -0.346   1.371   0.000  0.00  0.00     0.111 A 
ATOM     23  C   UNL d   1      -0.037  -0.029   0.000  0.00  0.00     0.050 A 
ATOM     24  C   UNL d   1      -1.146   1.188   0.000  0.00  0.00     0.026 A 
ATOM     25  C   UNL d   1      -1.408   0.408   0.000  0.00  0.00     0.003 A 
ATOM     26  C   UNL d   1      -0.850  -0.204   0.000  0.00  0.00     0.008 A 
ATOM     27  S   UNL d   1       0.629  -0.517   0.000  0.00  0.00    -0.048 SA
BRANCH  20  28
ATOM     28  C   UNL d   1       1.517   1.425   0.000  0.00  0.00     0.082 C 
ATOM     29  C   UNL d   1       2.342   1.425   0.000  0.00  0.00     0.021 C 
ENDBRANCH  20  28
BRANCH  22  30
ATOM     30  O   UNL d   1      -0.096   2.146   0.000  0.00  0.00    -0.327 OA
ATOM     31  C   UNL d   1       0.704   2.321   0.000  0.00  0.00     0.181 C 
ENDBRANCH  22  30
ENDBRANCH   1  19
TORSDOF 6
