REMARK  3 active torsions:
REMARK  status: ('A' for Active; 'I' for Inactive)
REMARK    1  A    between atoms: C_7  and  C_2 
REMARK       I    between atoms: N_9  and  C_7 
REMARK    2  A    between atoms: C_12  and  N_9 
REMARK    3  A    between atoms: C_11  and  C_12 
ROOT
ATOM      1  C   UNL d   1       5.476  -0.753   0.000  0.00  0.00     0.285 C 
ATOM      2  N   UNL d   1       6.187  -1.173   0.000  0.00  0.00    -0.206 NA
ATOM      3  O   UNL d   1       5.480   0.071   0.000  0.00  0.00    -0.265 OA
ENDROOT
BRANCH   1   4
ATOM      4  C   UNL d   1       4.752  -1.164   0.000  0.00  0.00     0.133 A 
ATOM      5  C   UNL d   1       4.033  -0.753   0.000  0.00  0.00     0.272 A 
ATOM      6  N   UNL d   1       3.330  -1.164   0.000  0.00  0.00    -0.252 N 
ATOM      7  O   UNL d   1       4.033   0.071   0.000  0.00  0.00    -0.266 OA
ATOM      8  C   UNL d   1       3.330  -1.987   0.000  0.00  0.00     0.182 A 
ATOM      9  C   UNL d   1       2.545  -0.915   0.000  0.00  0.00     0.092 A 
ATOM     10  N   UNL d   1       4.033  -2.399   0.000  0.00  0.00    -0.220 NA
ATOM     11  S   UNL d   1       2.545  -2.249   0.000  0.00  0.00    -0.048 SA
ATOM     12  C   UNL d   1       4.752  -1.987   0.000  0.00  0.00     0.111 A 
ATOM     13  C   UNL d   1       2.062  -1.584   0.000  0.00  0.00     0.057 A 
ENDBRANCH   1   4
BRANCH   2  14
ATOM     14  C   UNL d   1       6.178  -1.996   0.000  0.00  0.00     0.103 C 
BRANCH  14  15
ATOM     15  C   UNL d   1       6.889  -2.407   0.000  0.00  0.00     0.030 A 
ATOM     16  C   UNL d   1       7.609  -1.996   0.000  0.00  0.00     0.059 A 
ATOM     17 CL   UNL d   1       7.609  -1.173   0.000  0.00  0.00    -0.082 Cl
ATOM     18  C   UNL d   1       8.320  -2.399   0.000  0.00  0.00     0.011 A 
ATOM     19  C   UNL d   1       8.324  -3.231   0.000  0.00  0.00     0.001 A 
ATOM     20  C   UNL d   1       7.609  -3.642   0.000  0.00  0.00     0.000 A 
ATOM     21  C   UNL d   1       6.889  -3.231   0.000  0.00  0.00     0.002 A 
ENDBRANCH  14  15
ENDBRANCH   2  14
TORSDOF 3
