REMARK  5 active torsions:
REMARK  status: ('A' for Active; 'I' for Inactive)
REMARK       I    between atoms: C_7  and  N_1 
REMARK    1  A    between atoms: C_11  and  C_3 
REMARK    2  A    between atoms: C_14  and  C_5 
REMARK    3  A    between atoms: C_18  and  C_7 
REMARK    4  A    between atoms: C_17  and  O_19 
REMARK    5  A    between atoms: O_19  and  C_18 
ROOT
ATOM      1  N   UNL d   1      -4.079  -0.894   0.000  0.00  0.00    -0.193 N 
ATOM      2  N   UNL d   1      -4.863  -0.637   0.000  0.00  0.00    -0.162 NA
ATOM      3  C   UNL d   1      -5.344  -1.311   0.000  0.00  0.00     0.109 A 
ATOM      4  C   UNL d   1      -4.079  -1.719   0.000  0.00  0.00     0.088 A 
ATOM      5  C   UNL d   1      -4.863  -1.971   0.000  0.00  0.00     0.041 A 
ATOM      6  C   UNL d   1      -3.364  -0.481   0.000  0.00  0.00     0.305 C 
ATOM      7  O   UNL d   1      -2.649  -0.894   0.000  0.00  0.00    -0.263 OA
ENDROOT
BRANCH   4   8
ATOM      8  C   UNL d   1      -3.433  -2.232   0.000  0.00  0.00     0.018 A 
ATOM      9  C   UNL d   1      -3.557  -3.043   0.000  0.00  0.00     0.004 A 
ATOM     10  C   UNL d   1      -2.910  -3.561   0.000  0.00  0.00     0.030 A 
ATOM     11  C   UNL d   1      -2.154  -3.259   0.000  0.00  0.00     0.140 A 
ATOM     12  C   UNL d   1      -2.030  -2.438   0.000  0.00  0.00     0.030 A 
ATOM     13  F   UNL d   1      -1.508  -3.781   0.000  0.00  0.00    -0.204 F 
ATOM     14  C   UNL d   1      -2.667  -1.930   0.000  0.00  0.00     0.004 A 
ENDBRANCH   4   8
BRANCH   6  15
ATOM     15  C   UNL d   1      -3.364   0.344   0.000  0.00  0.00     0.185 C 
BRANCH  15  16
ATOM     16  O   UNL d   1      -4.079   0.756   0.000  0.00  0.00    -0.300 OA
BRANCH  16  17
ATOM     17  C   UNL d   1      -4.079   1.581   0.000  0.00  0.00     0.100 A 
ATOM     18  C   UNL d   1      -3.364   1.994   0.000  0.00  0.00     0.029 A 
ATOM     19  C   UNL d   1      -3.364   2.819   0.000  0.00  0.00     0.059 A 
ATOM     20  C   UNL d   1      -2.654   1.581   0.000  0.00  0.00     0.021 A 
ATOM     21  C   UNL d   1      -2.654   3.231   0.000  0.00  0.00     0.265 A 
ATOM     22  C   UNL d   1      -4.079   3.231   0.000  0.00  0.00     0.005 A 
ATOM     23  O   UNL d   1      -2.654   4.056   0.000  0.00  0.00    -0.267 OA
ATOM     24  N   UNL d   1      -1.939   2.819   0.000  0.00  0.00    -0.270 N 
ATOM     25  C   UNL d   1      -1.939   1.994   0.000  0.00  0.00     0.083 A 
ATOM     26  C   UNL d   1      -1.219   3.240   0.000  0.00  0.00     0.102 C 
ATOM     27  C   UNL d   1      -4.794   2.819   0.000  0.00  0.00     0.002 A 
ATOM     28  C   UNL d   1      -4.794   1.994   0.000  0.00  0.00     0.025 A 
ENDBRANCH  16  17
ENDBRANCH  15  16
ENDBRANCH   6  15
BRANCH   3  29
ATOM     29  C   UNL d   1      -6.160  -1.279   0.000  0.00  0.00     0.049 A 
ATOM     30  S   UNL d   1      -6.595  -0.568   0.000  0.00  0.00    -0.085 SA
ATOM     31  C   UNL d   1      -7.388  -0.761   0.000  0.00  0.00     0.035 A 
ATOM     32  C   UNL d   1      -7.457  -1.581   0.000  0.00  0.00     0.007 A 
ATOM     33  C   UNL d   1      -6.701  -1.902   0.000  0.00  0.00     0.009 A 
ENDBRANCH   3  29
TORSDOF 5
