REMARK  3 active torsions:
REMARK  status: ('A' for Active; 'I' for Inactive)
REMARK    1  A    between atoms: C_8  and  N_1 
REMARK    2  A    between atoms: O_16  and  C_11 
REMARK    3  A    between atoms: C_19  and  O_16 
ROOT
ATOM      1  N   UNL d   1       2.790  -1.449   0.000  0.00  0.00    -0.240 N 
ATOM      2  C   UNL d   1       2.259  -2.068   0.000  0.00  0.00     0.267 A 
ATOM      3  C   UNL d   1       2.628  -0.639   0.000  0.00  0.00     0.267 A 
ATOM      4  C   UNL d   1       1.897  -0.253   0.000  0.00  0.00     0.057 A 
ATOM      5  C   UNL d   1       1.437  -2.043   0.000  0.00  0.00     0.057 A 
ATOM      6  C   UNL d   1       1.150  -0.590   0.000  0.00  0.00     0.005 A 
ATOM      7  C   UNL d   1       0.938  -1.387   0.000  0.00  0.00     0.005 A 
ATOM      8  O   UNL d   1       2.595  -2.828   0.000  0.00  0.00    -0.267 OA
ATOM      9  O   UNL d   1       3.293  -0.149   0.000  0.00  0.00    -0.267 OA
ATOM     10  C   UNL d   1       1.985   0.560   0.000  0.00  0.00     0.005 A 
ATOM     11  C   UNL d   1       1.121  -2.794   0.000  0.00  0.00     0.005 A 
ATOM     12  C   UNL d   1       0.125  -1.486   0.000  0.00  0.00     0.000 A 
ATOM     13  C   UNL d   1       0.477  -0.104   0.000  0.00  0.00     0.000 A 
ATOM     14  C   UNL d   1       0.565   0.718   0.000  0.00  0.00     0.000 A 
ATOM     15  C   UNL d   1      -0.199  -2.242   0.000  0.00  0.00     0.000 A 
ATOM     16  C   UNL d   1       0.303  -2.902   0.000  0.00  0.00     0.000 A 
ATOM     17  C   UNL d   1       1.312   1.046   0.000  0.00  0.00     0.000 A 
ENDROOT
BRANCH   1  18
ATOM     18  C   UNL d   1       3.591  -1.661   0.000  0.00  0.00     0.092 A 
ATOM     19  C   UNL d   1       4.173  -1.075   0.000  0.00  0.00     0.116 A 
ATOM     20  C   UNL d   1       4.974  -1.287   0.000  0.00  0.00     0.026 A 
ATOM     21  C   UNL d   1       5.194  -2.093   0.000  0.00  0.00     0.002 A 
ATOM     22  C   UNL d   1       4.601  -2.682   0.000  0.00  0.00     0.002 A 
ATOM     23  C   UNL d   1       3.803  -2.466   0.000  0.00  0.00     0.020 A 
BRANCH  19  24
ATOM     24  O   UNL d   1       3.953  -0.278   0.000  0.00  0.00    -0.304 OA
BRANCH  24  25
ATOM     25  C   UNL d   1       4.534   0.299   0.000  0.00  0.00     0.123 C 
ATOM     26  C   UNL d   1       4.314   1.092   0.000  0.00  0.00     0.029 C 
ENDBRANCH  24  25
ENDBRANCH  19  24
ENDBRANCH   1  18
TORSDOF 3
