REMARK  9 active torsions:
REMARK  status: ('A' for Active; 'I' for Inactive)
REMARK    1  A    between atoms: N_4  and  C_1 
REMARK    2  A    between atoms: C_12  and  C_3 
REMARK       I    between atoms: C_11  and  N_4 
REMARK       I    between atoms: C_6  and  N_5 
REMARK    3  A    between atoms: O_27  and  C_6 
REMARK       I    between atoms: N_7  and  C_10 
REMARK    4  A    between atoms: C_10  and  C_28 
REMARK    5  A    between atoms: C_29  and  C_11 
REMARK    6  A    between atoms: C_25  and  C_18 
REMARK    7  A    between atoms: S_26  and  C_29 
REMARK    8  A    between atoms: C_28  and  S_26 
REMARK    9  A    between atoms: C_32  and  O_27 
ROOT
ATOM      1  N   UNL d   1       2.273   1.613   0.000  0.00  0.00    -0.182 NA
ATOM      2  C   UNL d   1       2.871   1.066   0.000  0.00  0.00     0.288 C 
ATOM      3  O   UNL d   1       2.700   0.272   0.000  0.00  0.00    -0.265 OA
ENDROOT
BRANCH   1   4
ATOM      4  C   UNL d   1       1.496   1.362   0.000  0.00  0.00     0.197 A 
ATOM      5  N   UNL d   1       1.241   0.585   0.000  0.00  0.00    -0.221 NA
ATOM      6  C   UNL d   1       0.430   0.585   0.000  0.00  0.00     0.090 A 
ATOM      7  C   UNL d   1       0.188   1.362   0.000  0.00  0.00     0.058 A 
ATOM      8  S   UNL d   1       0.840   1.839   0.000  0.00  0.00    -0.046 SA
BRANCH   6   9
ATOM      9  C   UNL d   1      -0.046  -0.067   0.000  0.00  0.00     0.018 A 
ATOM     10  C   UNL d   1      -0.848   0.021   0.000  0.00  0.00     0.002 A 
ATOM     11  C   UNL d   1      -1.329  -0.631   0.000  0.00  0.00     0.000 A 
ATOM     12  C   UNL d   1      -0.999  -1.371   0.000  0.00  0.00     0.000 A 
ATOM     13  C   UNL d   1      -0.188  -1.459   0.000  0.00  0.00     0.000 A 
ATOM     14  C   UNL d   1       0.280  -0.802   0.000  0.00  0.00     0.002 A 
BRANCH  12  15
ATOM     15  C   UNL d   1      -1.488  -2.044   0.000  0.00  0.00     0.000 A 
ATOM     16  C   UNL d   1      -2.315  -1.948   0.000  0.00  0.00     0.000 A 
ATOM     17  C   UNL d   1      -2.804  -2.612   0.000  0.00  0.00     0.000 A 
ATOM     18  C   UNL d   1      -2.466  -3.373   0.000  0.00  0.00     0.000 A 
ATOM     19  C   UNL d   1      -1.638  -3.460   0.000  0.00  0.00     0.000 A 
ATOM     20  C   UNL d   1      -1.153  -2.788   0.000  0.00  0.00     0.000 A 
ENDBRANCH  12  15
ENDBRANCH   6   9
ENDBRANCH   1   4
BRANCH   2  21
ATOM     21  C   UNL d   1       3.640   1.316   0.000  0.00  0.00     0.098 C 
BRANCH  21  22
ATOM     22  S   UNL d   1       4.217   0.677   0.000  0.00  0.00    -0.076 SA
BRANCH  22  23
ATOM     23  C   UNL d   1       5.057   0.853   0.000  0.00  0.00     0.097 C 
BRANCH  23  24
ATOM     24  C   UNL d   1       5.629   0.222   0.000  0.00  0.00     0.271 C 
ATOM     25  N   UNL d   1       5.366  -0.594   0.000  0.00  0.00    -0.269 N 
ATOM     26  C   UNL d   1       5.934  -1.233   0.000  0.00  0.00     0.102 A 
ATOM     27  C   UNL d   1       4.518  -0.769   0.000  0.00  0.00     0.102 A 
ATOM     28  C   UNL d   1       5.667  -2.048   0.000  0.00  0.00     0.104 A 
ATOM     29  N   UNL d   1       4.819  -2.223   0.000  0.00  0.00    -0.249 N 
ATOM     30  C   UNL d   1       4.254  -1.584   0.000  0.00  0.00     0.104 A 
ATOM     31  C   UNL d   1       4.564  -3.009   0.000  0.00  0.00     0.378 C 
ATOM     32  O   UNL d   1       5.115  -3.627   0.000  0.00  0.00    -0.237 OA
ATOM     33  O   UNL d   1       6.461   0.397   0.000  0.00  0.00    -0.266 OA
BRANCH  31  34
ATOM     34  O   UNL d   1       3.753  -3.176   0.000  0.00  0.00    -0.257 OA
BRANCH  34  35
ATOM     35  C   UNL d   1       3.201  -2.562   0.000  0.00  0.00     0.128 C 
ATOM     36  C   UNL d   1       2.386  -2.725   0.000  0.00  0.00     0.029 C 
ENDBRANCH  34  35
ENDBRANCH  31  34
ENDBRANCH  23  24
ENDBRANCH  22  23
ENDBRANCH  21  22
ENDBRANCH   2  21
TORSDOF 9
