REMARK  8 active torsions:
REMARK  status: ('A' for Active; 'I' for Inactive)
REMARK    1  A    between atoms: N_10  and  C_1 
REMARK    2  A    between atoms: C_20  and  N_2 
REMARK    3  A    between atoms: C_4  and  S_13 
REMARK       I    between atoms: C_14  and  N_10 
REMARK       I    between atoms: C_12  and  N_18 
REMARK    4  A    between atoms: C_16  and  C_12 
REMARK    5  A    between atoms: S_13  and  C_19 
REMARK    6  A    between atoms: C_19  and  C_14 
REMARK    7  A    between atoms: N_18  and  C_22 
REMARK    8  A    between atoms: C_22  and  C_20 
ROOT
ATOM      1  N   UNL d   1      -2.151   1.288   0.000  0.00  0.00    -0.302 N 
ATOM      2  C   UNL d   1      -2.563   2.559   0.000  0.00  0.00     0.049 A 
ATOM      3  C   UNL d   1      -1.896   2.084   0.000  0.00  0.00     0.087 A 
ATOM      4  C   UNL d   1      -3.234   2.071   0.000  0.00  0.00     0.024 A 
ATOM      5  C   UNL d   1      -2.976   1.288   0.000  0.00  0.00     0.065 A 
ATOM      6  C   UNL d   1      -4.034   2.246   0.000  0.00  0.00     0.002 A 
ATOM      7  C   UNL d   1      -3.526   0.683   0.000  0.00  0.00     0.018 A 
ATOM      8  C   UNL d   1      -4.585   1.634   0.000  0.00  0.00     0.000 A 
ATOM      9  C   UNL d   1      -4.334   0.850   0.000  0.00  0.00     0.002 A 
ENDROOT
BRANCH   1  10
ATOM     10  C   UNL d   1      -1.671   0.621   0.000  0.00  0.00     0.101 C 
BRANCH  10  11
ATOM     11  C   UNL d   1      -2.009  -0.129   0.000  0.00  0.00     0.121 C 
BRANCH  11  12
ATOM     12  N   UNL d   1      -1.521  -0.800   0.000  0.00  0.00    -0.205 NA
ATOM     13  C   UNL d   1      -1.859  -1.555   0.000  0.00  0.00     0.279 C 
ATOM     14  O   UNL d   1      -2.684  -1.638   0.000  0.00  0.00    -0.265 OA
BRANCH  13  15
ATOM     15  C   UNL d   1      -1.375  -2.217   0.000  0.00  0.00     0.058 A 
ATOM     16  C   UNL d   1      -0.571  -2.138   0.000  0.00  0.00     0.005 A 
ATOM     17  C   UNL d   1      -0.071  -2.792   0.000  0.00  0.00     0.000 A 
ATOM     18  C   UNL d   1      -0.396  -3.551   0.000  0.00  0.00     0.000 A 
ATOM     19  C   UNL d   1      -1.221  -3.643   0.000  0.00  0.00     0.000 A 
ATOM     20  C   UNL d   1      -1.709  -2.976   0.000  0.00  0.00     0.005 A 
ENDBRANCH  13  15
ENDBRANCH  11  12
ENDBRANCH  10  11
ENDBRANCH   1  10
BRANCH   2  21
ATOM     21  S   UNL d   1      -2.571   3.384   0.000  0.00  0.00    -0.080 SA
BRANCH  21  22
ATOM     22  C   UNL d   1      -1.859   3.797   0.000  0.00  0.00     0.098 C 
BRANCH  22  23
ATOM     23  C   UNL d   1      -1.138   3.384   0.000  0.00  0.00     0.288 C 
ATOM     24  N   UNL d   1      -0.433   3.801   0.000  0.00  0.00    -0.181 NA
ATOM     25  O   UNL d   1      -1.138   2.563   0.000  0.00  0.00    -0.265 OA
BRANCH  24  26
ATOM     26  C   UNL d   1       0.292   3.397   0.000  0.00  0.00     0.219 A 
ATOM     27  S   UNL d   1       1.038   3.734   0.000  0.00  0.00    -0.026 SA
ATOM     28  C   UNL d   1       1.592   3.122   0.000  0.00  0.00     0.135 A 
ATOM     29  C   UNL d   1       2.413   3.213   0.000  0.00  0.00     0.030 C 
ATOM     30  N   UNL d   1       1.200   2.409   0.000  0.00  0.00    -0.139 NA
ATOM     31  N   UNL d   1       0.392   2.571   0.000  0.00  0.00    -0.121 NA
ENDBRANCH  24  26
ENDBRANCH  22  23
ENDBRANCH  21  22
ENDBRANCH   2  21
TORSDOF 8
