REMARK  6 active torsions:
REMARK  status: ('A' for Active; 'I' for Inactive)
REMARK    1  A    between atoms: N_8  and  C_1 
REMARK    2  A    between atoms: C_6  and  N_2 
REMARK       I    between atoms: C_12  and  N_8 
REMARK    3  A    between atoms: C_20  and  C_12 
REMARK    4  A    between atoms: O_24  and  C_13 
REMARK    5  A    between atoms: O_25  and  C_15 
REMARK    6  A    between atoms: C_19  and  C_20 
ROOT
ATOM      1  C   UNL d   1      -3.281   2.554   0.000  0.00  0.00     0.169 A 
ATOM      2  N   UNL d   1      -4.109   2.554   0.000  0.00  0.00    -0.212 N 
ATOM      3  C   UNL d   1      -3.018   1.764   0.000  0.00  0.00     0.065 A 
ATOM      4  N   UNL d   1      -4.359   1.764   0.000  0.00  0.00    -0.163 NA
ATOM      5  C   UNL d   1      -3.686   1.279   0.000  0.00  0.00     0.114 A 
ATOM      6  S   UNL d   1      -2.608   0.489   0.000  0.00  0.00     0.091 S 
ATOM      7  C   UNL d   1      -3.436   0.489   0.000  0.00  0.00     0.090 A 
ATOM      8  C   UNL d   1      -2.353   1.279   0.000  0.00  0.00     0.073 A 
ATOM      9  O   UNL d   1      -2.119  -0.180   0.000  0.00  0.00    -0.247 OA
ENDROOT
BRANCH   1  10
ATOM     10  N   UNL d   1      -2.792   3.223   0.000  0.00  0.00    -0.189 NA
ATOM     11  C   UNL d   1      -1.977   3.143   0.000  0.00  0.00     0.281 C 
ATOM     12  O   UNL d   1      -1.630   2.382   0.000  0.00  0.00    -0.265 OA
BRANCH  11  13
ATOM     13  C   UNL d   1      -1.488   3.808   0.000  0.00  0.00     0.063 C 
BRANCH  13  14
ATOM     14  C   UNL d   1      -1.827   4.543   0.000  0.00  0.00     0.007 A 
ATOM     15  C   UNL d   1      -2.654   4.631   0.000  0.00  0.00     0.026 A 
ATOM     16  C   UNL d   1      -2.993   5.383   0.000  0.00  0.00     0.116 A 
ATOM     17  C   UNL d   1      -2.504   6.048   0.000  0.00  0.00     0.116 A 
ATOM     18  C   UNL d   1      -1.688   5.973   0.000  0.00  0.00     0.026 A 
ATOM     19  C   UNL d   1      -1.350   5.216   0.000  0.00  0.00     0.002 A 
BRANCH  16  20
ATOM     20  O   UNL d   1      -3.808   5.467   0.000  0.00  0.00    -0.326 OA
ATOM     21  C   UNL d   1      -4.146   6.219   0.000  0.00  0.00     0.181 C 
ENDBRANCH  16  20
BRANCH  17  22
ATOM     22  O   UNL d   1      -2.842   6.800   0.000  0.00  0.00    -0.326 OA
ATOM     23  C   UNL d   1      -2.366   7.473   0.000  0.00  0.00     0.181 C 
ENDBRANCH  17  22
ENDBRANCH  13  14
ENDBRANCH  11  13
ENDBRANCH   1  10
BRANCH   2  24
ATOM     24  C   UNL d   1      -4.598   3.218   0.000  0.00  0.00     0.085 A 
ATOM     25  C   UNL d   1      -5.413   3.122   0.000  0.00  0.00     0.018 A 
ATOM     26  C   UNL d   1      -5.902   3.787   0.000  0.00  0.00     0.002 A 
ATOM     27  C   UNL d   1      -5.739   2.370   0.000  0.00  0.00     0.002 C 
ATOM     28  C   UNL d   1      -6.713   3.695   0.000  0.00  0.00     0.000 C 
ATOM     29  C   UNL d   1      -5.563   4.539   0.000  0.00  0.00     0.000 A 
ATOM     30  C   UNL d   1      -4.748   4.619   0.000  0.00  0.00     0.002 A 
ATOM     31  C   UNL d   1      -4.259   3.971   0.000  0.00  0.00     0.019 A 
ENDBRANCH   2  24
TORSDOF 6
