REMARK  5 active torsions:
REMARK  status: ('A' for Active; 'I' for Inactive)
REMARK    1  A    between atoms: N_6  and  S_1 
REMARK    2  A    between atoms: C_11  and  S_1 
REMARK    3  A    between atoms: C_2  and  N_8 
REMARK    4  A    between atoms: C_10  and  C_3 
REMARK       I    between atoms: N_8  and  C_9 
REMARK    5  A    between atoms: C_9  and  C_17 
REMARK       I    between atoms: N_26  and  C_10 
ROOT
ATOM      1  N   UNL d   1       1.796  -0.622   0.000  0.00  0.00    -0.201 NA
ATOM      2  C   UNL d   1       1.983  -1.436   0.000  0.00  0.00     0.280 C 
ATOM      3  O   UNL d   1       1.369  -1.996   0.000  0.00  0.00    -0.265 OA
ENDROOT
BRANCH   2   4
ATOM      4  C   UNL d   1       2.776  -1.672   0.000  0.00  0.00     0.058 A 
ATOM      5  C   UNL d   1       2.942  -2.481   0.000  0.00  0.00     0.005 A 
ATOM      6  C   UNL d   1       3.734  -2.730   0.000  0.00  0.00     0.013 A 
ATOM      7  C   UNL d   1       4.344  -2.170   0.000  0.00  0.00     0.104 A 
ATOM      8  C   UNL d   1       4.157  -1.361   0.000  0.00  0.00     0.013 A 
ATOM      9  C   UNL d   1       3.365  -1.120   0.000  0.00  0.00     0.005 A 
BRANCH   7  10
ATOM     10  S   UNL d   1       5.128  -2.415   0.000  0.00  0.00     0.271 S 
ATOM     11  O   UNL d   1       4.908  -3.203   0.000  0.00  0.00    -0.200 OA
ATOM     12  O   UNL d   1       5.344  -1.610   0.000  0.00  0.00    -0.200 OA
BRANCH  10  13
ATOM     13  N   UNL d   1       5.904  -2.655   0.000  0.00  0.00    -0.231 N 
ATOM     14  C   UNL d   1       6.514  -2.108   0.000  0.00  0.00     0.075 A 
ATOM     15  C   UNL d   1       6.340  -1.299   0.000  0.00  0.00     0.020 C 
ATOM     16  C   UNL d   1       7.294  -2.357   0.000  0.00  0.00     0.018 A 
ATOM     17  C   UNL d   1       7.468  -3.166   0.000  0.00  0.00     0.003 A 
ATOM     18  C   UNL d   1       6.862  -3.713   0.000  0.00  0.00     0.020 A 
ATOM     19  C   UNL d   1       6.091  -3.452   0.000  0.00  0.00     0.092 A 
ENDBRANCH  10  13
ENDBRANCH   7  10
ENDBRANCH   2   4
BRANCH   1  20
ATOM     20  C   UNL d   1       1.000  -0.390   0.000  0.00  0.00     0.119 A 
ATOM     21  C   UNL d   1       0.739   0.394   0.000  0.00  0.00     0.082 A 
ATOM     22  C   UNL d   1      -0.083   0.394   0.000  0.00  0.00     0.016 A 
ATOM     23  C   UNL d   1      -0.631   1.004   0.000  0.00  0.00     0.020 A 
ATOM     24  C   UNL d   1      -0.336  -0.390   0.000  0.00  0.00     0.049 A 
ATOM     25  C   UNL d   1      -1.440   0.830   0.000  0.00  0.00     0.080 A 
ATOM     26  N   UNL d   1      -1.701   0.046   0.000  0.00  0.00    -0.301 N 
ATOM     27  C   UNL d   1      -1.141  -0.560   0.000  0.00  0.00     0.087 A 
ATOM     28  C   UNL d   1      -2.498  -0.124   0.000  0.00  0.00     0.100 C 
ATOM     29  S   UNL d   1       0.340  -0.875   0.000  0.00  0.00    -0.066 SA
BRANCH  21  30
ATOM     30  C   UNL d   1       1.212   1.066   0.000  0.00  0.00     0.281 C 
ATOM     31  O   UNL d   1       0.863   1.792   0.000  0.00  0.00    -0.265 OA
ATOM     32  N   UNL d   1       2.033   0.992   0.000  0.00  0.00    -0.205 NA
ATOM     33  C   UNL d   1       2.518   1.655   0.000  0.00  0.00     0.123 C 
ENDBRANCH  21  30
ENDBRANCH   1  20
TORSDOF 5
