REMARK  4 active torsions:
REMARK  status: ('A' for Active; 'I' for Inactive)
REMARK    1  A    between atoms: N_7  and  C_1 
REMARK    2  A    between atoms: C_9  and  N_3 
REMARK       I    between atoms: C_11  and  N_7 
REMARK    3  A    between atoms: C_15  and  C_11 
REMARK    4  A    between atoms: C_17  and  C_15 
ROOT
ATOM      1  C   UNL d   1      -3.283   2.555   0.000  0.00  0.00     0.169 A 
ATOM      2  C   UNL d   1      -3.020   1.765   0.000  0.00  0.00     0.065 A 
ATOM      3  N   UNL d   1      -4.111   2.555   0.000  0.00  0.00    -0.212 N 
ATOM      4  N   UNL d   1      -4.362   1.765   0.000  0.00  0.00    -0.163 NA
ATOM      5  C   UNL d   1      -3.689   1.280   0.000  0.00  0.00     0.114 A 
ATOM      6  S   UNL d   1      -2.610   0.489   0.000  0.00  0.00     0.091 S 
ATOM      7  C   UNL d   1      -3.438   0.489   0.000  0.00  0.00     0.090 A 
ATOM      8  C   UNL d   1      -2.355   1.280   0.000  0.00  0.00     0.073 A 
ATOM      9  O   UNL d   1      -2.120  -0.180   0.000  0.00  0.00    -0.247 OA
ENDROOT
BRANCH   1  10
ATOM     10  N   UNL d   1      -2.794   3.225   0.000  0.00  0.00    -0.189 NA
ATOM     11  C   UNL d   1      -1.978   3.145   0.000  0.00  0.00     0.281 C 
ATOM     12  O   UNL d   1      -1.631   2.384   0.000  0.00  0.00    -0.265 OA
BRANCH  11  13
ATOM     13  C   UNL d   1      -1.489   3.810   0.000  0.00  0.00     0.063 C 
BRANCH  13  14
ATOM     14  C   UNL d   1      -1.828   4.559   0.000  0.00  0.00     0.005 A 
ATOM     15  C   UNL d   1      -1.343   5.224   0.000  0.00  0.00     0.003 A 
ATOM     16  C   UNL d   1      -1.681   5.977   0.000  0.00  0.00     0.030 A 
ATOM     17  C   UNL d   1      -2.505   6.064   0.000  0.00  0.00     0.140 A 
ATOM     18  C   UNL d   1      -2.982   5.395   0.000  0.00  0.00     0.030 A 
ATOM     19  F   UNL d   1      -2.844   6.817   0.000  0.00  0.00    -0.204 F 
ATOM     20  C   UNL d   1      -2.647   4.642   0.000  0.00  0.00     0.003 A 
ENDBRANCH  13  14
ENDBRANCH  11  13
ENDBRANCH   1  10
BRANCH   3  21
ATOM     21  C   UNL d   1      -4.601   3.220   0.000  0.00  0.00     0.085 A 
ATOM     22  C   UNL d   1      -4.262   3.973   0.000  0.00  0.00     0.031 A 
ATOM     23  C   UNL d   1      -4.751   4.622   0.000  0.00  0.00     0.059 A 
ATOM     24 CL   UNL d   1      -4.425   5.374   0.000  0.00  0.00    -0.082 Cl
ATOM     25  C   UNL d   1      -5.571   4.534   0.000  0.00  0.00     0.011 A 
ATOM     26  C   UNL d   1      -5.905   3.789   0.000  0.00  0.00     0.002 A 
ATOM     27  C   UNL d   1      -5.416   3.124   0.000  0.00  0.00     0.019 A 
ENDBRANCH   3  21
TORSDOF 4
