REMARK  10 active torsions:
REMARK  status: ('A' for Active; 'I' for Inactive)
REMARK    1  A    between atoms: C_4  and  N_1 
REMARK    2  A    between atoms: C_10  and  C_2 
REMARK    3  A    between atoms: N_16  and  C_4 
REMARK    4  A    between atoms: O_22  and  C_8 
REMARK    5  A    between atoms: O_15  and  C_10 
REMARK    6  A    between atoms: O_23  and  C_11 
REMARK    7  A    between atoms: C_14  and  O_15 
REMARK    8  A    between atoms: C_25  and  N_16 
REMARK    9  A    between atoms: O_24  and  C_28 
REMARK   10  A    between atoms: C_28  and  C_25 
ROOT
ATOM      1  N   UNL d   1      -0.476   2.909   0.000  0.00  0.00    -0.280 N 
ATOM      2  C   UNL d   1      -1.191   2.497   0.000  0.00  0.00     0.091 A 
ATOM      3  C   UNL d   1      -1.896   2.909   0.000  0.00  0.00     0.020 A 
ATOM      4  C   UNL d   1      -1.896   3.733   0.000  0.00  0.00     0.005 A 
ATOM      5  C   UNL d   1      -2.606   2.497   0.000  0.00  0.00     0.028 A 
ATOM      6  C   UNL d   1      -0.476   3.733   0.000  0.00  0.00     0.082 A 
ATOM      7  C   UNL d   1      -3.321   2.909   0.000  0.00  0.00     0.116 A 
ATOM      8  C   UNL d   1      -2.606   4.146   0.000  0.00  0.00     0.026 A 
ATOM      9  C   UNL d   1      -3.321   3.733   0.000  0.00  0.00     0.116 A 
ATOM     10  C   UNL d   1      -1.191   4.146   0.000  0.00  0.00     0.019 A 
ENDROOT
BRANCH   2  11
ATOM     11  C   UNL d   1      -1.191   1.672   0.000  0.00  0.00     0.140 C 
BRANCH  11  12
ATOM     12  O   UNL d   1      -0.476   1.260   0.000  0.00  0.00    -0.304 OA
BRANCH  12  13
ATOM     13  C   UNL d   1      -0.476   0.435   0.000  0.00  0.00     0.100 A 
ATOM     14  C   UNL d   1       0.238   0.023   0.000  0.00  0.00     0.025 A 
ATOM     15  C   UNL d   1       0.238  -0.802   0.000  0.00  0.00     0.002 A 
ATOM     16  C   UNL d   1       0.953  -1.223   0.000  0.00  0.00     0.000 C 
ATOM     17  C   UNL d   1      -0.476  -1.214   0.000  0.00  0.00     0.000 A 
ATOM     18  C   UNL d   1      -1.191  -0.802   0.000  0.00  0.00     0.002 A 
ATOM     19  C   UNL d   1      -1.191   0.023   0.000  0.00  0.00     0.025 A 
ATOM     20  C   UNL d   1      -1.906  -1.228   0.000  0.00  0.00     0.000 C 
ENDBRANCH  12  13
ENDBRANCH  11  12
ENDBRANCH   2  11
BRANCH   1  21
ATOM     21  C   UNL d   1       0.247   2.497   0.000  0.00  0.00     0.206 C 
ATOM     22  S   UNL d   1       0.247   1.663   0.000  0.00  0.00    -0.038 SA
BRANCH  21  23
ATOM     23  N   UNL d   1       0.953   2.909   0.000  0.00  0.00    -0.215 NA
BRANCH  23  24
ATOM     24  C   UNL d   1       0.953   3.733   0.000  0.00  0.00     0.128 C 
BRANCH  24  25
ATOM     25  C   UNL d   1       1.667   4.146   0.000  0.00  0.00     0.137 C 
BRANCH  25  26
ATOM     26  O   UNL d   1       1.667   4.961   0.000  0.00  0.00    -0.325 OA
ATOM     27  C   UNL d   1       2.377   5.373   0.000  0.00  0.00     0.182 C 
ENDBRANCH  25  26
ENDBRANCH  24  25
ENDBRANCH  23  24
ENDBRANCH  21  23
ENDBRANCH   1  21
BRANCH   7  28
ATOM     28  O   UNL d   1      -4.040   2.497   0.000  0.00  0.00    -0.326 OA
ATOM     29  C   UNL d   1      -4.764   2.909   0.000  0.00  0.00     0.181 C 
ENDBRANCH   7  28
BRANCH   9  30
ATOM     30  O   UNL d   1      -4.040   4.146   0.000  0.00  0.00    -0.326 OA
ATOM     31  C   UNL d   1      -4.764   3.733   0.000  0.00  0.00     0.181 C 
ENDBRANCH   9  30
TORSDOF 10
