REMARK  4 active torsions:
REMARK  status: ('A' for Active; 'I' for Inactive)
REMARK    1  A    between atoms: C_11  and  N_1 
REMARK    2  A    between atoms: S_7  and  C_2 
REMARK    3  A    between atoms: C_13  and  S_7 
REMARK    4  A    between atoms: C_8  and  C_13 
REMARK       I    between atoms: N_9  and  C_8 
ROOT
ATOM      1  N   UNL d   1      -2.213   1.911   0.000  0.00  0.00    -0.254 N 
ATOM      2  C   UNL d   1      -2.213   2.735   0.000  0.00  0.00     0.182 A 
ATOM      3  C   UNL d   1      -2.928   1.498   0.000  0.00  0.00     0.274 A 
ATOM      4  C   UNL d   1      -3.638   1.911   0.000  0.00  0.00     0.104 A 
ATOM      5  N   UNL d   1      -2.928   3.147   0.000  0.00  0.00    -0.222 NA
ATOM      6  C   UNL d   1      -3.638   2.735   0.000  0.00  0.00     0.095 A 
ATOM      7  S   UNL d   1      -4.421   1.659   0.000  0.00  0.00    -0.080 SA
ATOM      8  O   UNL d   1      -2.928   0.673   0.000  0.00  0.00    -0.266 OA
ATOM      9  C   UNL d   1      -4.421   2.992   0.000  0.00  0.00     0.027 A 
ATOM     10  C   UNL d   1      -4.902   2.332   0.000  0.00  0.00     0.037 A 
ENDROOT
BRANCH   2  11
ATOM     11  S   UNL d   1      -1.494   3.157   0.000  0.00  0.00    -0.044 SA
BRANCH  11  12
ATOM     12  C   UNL d   1      -0.779   2.744   0.000  0.00  0.00     0.099 C 
BRANCH  12  13
ATOM     13  C   UNL d   1      -0.064   3.157   0.000  0.00  0.00     0.271 C 
ATOM     14  N   UNL d   1      -0.064   3.981   0.000  0.00  0.00    -0.272 N 
ATOM     15  C   UNL d   1      -0.683   4.527   0.000  0.00  0.00     0.083 A 
ATOM     16  C   UNL d   1       0.646   4.394   0.000  0.00  0.00     0.083 A 
ATOM     17  C   UNL d   1      -0.339   5.283   0.000  0.00  0.00     0.021 A 
ATOM     18  C   UNL d   1       0.472   5.200   0.000  0.00  0.00     0.021 A 
ATOM     19  O   UNL d   1       0.651   2.744   0.000  0.00  0.00    -0.266 OA
ENDBRANCH  12  13
ENDBRANCH  11  12
ENDBRANCH   2  11
BRANCH   1  20
ATOM     20  C   UNL d   1      -1.507   1.498   0.000  0.00  0.00     0.069 A 
ATOM     21  C   UNL d   1      -1.507   0.673   0.000  0.00  0.00     0.018 A 
ATOM     22  C   UNL d   1      -0.793   0.261   0.000  0.00  0.00     0.002 A 
ATOM     23  C   UNL d   1      -0.078   0.673   0.000  0.00  0.00     0.000 A 
ATOM     24  C   UNL d   1      -0.078   1.498   0.000  0.00  0.00     0.002 A 
ATOM     25  C   UNL d   1       0.651   0.261   0.000  0.00  0.00     0.000 C 
ATOM     26  C   UNL d   1      -0.793   1.911   0.000  0.00  0.00     0.018 A 
ENDBRANCH   1  20
TORSDOF 4
