REMARK  3 active torsions:
REMARK  status: ('A' for Active; 'I' for Inactive)
REMARK    1  A    between atoms: S_6  and  C_1 
REMARK    2  A    between atoms: C_9  and  S_6 
REMARK    3  A    between atoms: C_7  and  C_9 
REMARK       I    between atoms: N_8  and  C_7 
ROOT
ATOM      1  C   UNL d   1      -2.479   3.370   0.000  0.00  0.00     0.049 A 
ATOM      2  N   UNL d   1      -2.879   2.094   0.000  0.00  0.00    -0.245 NA
ATOM      3  C   UNL d   1      -2.217   2.589   0.000  0.00  0.00     0.087 A 
ATOM      4  C   UNL d   1      -3.301   3.370   0.000  0.00  0.00     0.025 A 
ATOM      5  C   UNL d   1      -3.554   2.585   0.000  0.00  0.00     0.082 A 
ATOM      6  C   UNL d   1      -1.428   2.351   0.000  0.00  0.00     0.021 C 
ATOM      7  C   UNL d   1      -3.857   3.976   0.000  0.00  0.00     0.002 A 
ATOM      8  C   UNL d   1      -4.361   2.406   0.000  0.00  0.00     0.019 A 
ATOM      9  C   UNL d   1      -4.664   3.811   0.000  0.00  0.00     0.000 A 
ATOM     10  C   UNL d   1      -4.912   3.012   0.000  0.00  0.00     0.002 A 
ENDROOT
BRANCH   1  11
ATOM     11  S   UNL d   1      -1.997   4.049   0.000  0.00  0.00    -0.080 SA
BRANCH  11  12
ATOM     12  C   UNL d   1      -2.351   4.798   0.000  0.00  0.00     0.097 C 
BRANCH  12  13
ATOM     13  C   UNL d   1      -1.869   5.473   0.000  0.00  0.00     0.272 C 
ATOM     14  N   UNL d   1      -2.227   6.225   0.000  0.00  0.00    -0.267 N 
ATOM     15  C   UNL d   1      -1.749   6.900   0.000  0.00  0.00     0.110 A 
ATOM     16  C   UNL d   1      -3.053   6.299   0.000  0.00  0.00     0.110 A 
ATOM     17  C   UNL d   1      -2.103   7.649   0.000  0.00  0.00     0.142 A 
ATOM     18  O   UNL d   1      -2.929   7.727   0.000  0.00  0.00    -0.300 OA
ATOM     19  C   UNL d   1      -3.402   7.043   0.000  0.00  0.00     0.142 A 
ATOM     20  O   UNL d   1      -1.042   5.404   0.000  0.00  0.00    -0.266 OA
ENDBRANCH  12  13
ENDBRANCH  11  12
ENDBRANCH   1  11
TORSDOF 3
