REMARK  3 active torsions:
REMARK  status: ('A' for Active; 'I' for Inactive)
REMARK    1  A    between atoms: N_9  and  C_2 
REMARK    2  A    between atoms: C_11  and  N_9 
REMARK    3  A    between atoms: O_14  and  C_13 
ROOT
ATOM      1  C   UNL d   1      -3.465   2.819   0.000  0.00  0.00     0.154 A 
ATOM      2  C   UNL d   1      -4.175   3.231   0.000  0.00  0.00     0.185 A 
ATOM      3  C   UNL d   1      -3.465   1.994   0.000  0.00  0.00     0.186 A 
ATOM      4  N   UNL d   1      -2.681   3.075   0.000  0.00  0.00    -0.218 NA
ATOM      5  N   UNL d   1      -2.681   1.742   0.000  0.00  0.00    -0.203 NA
ATOM      6  N   UNL d   1      -4.890   2.819   0.000  0.00  0.00    -0.203 NA
ATOM      7  N   UNL d   1      -4.175   1.581   0.000  0.00  0.00    -0.203 NA
ATOM      8  C   UNL d   1      -2.200   2.402   0.000  0.00  0.00     0.201 A 
ATOM      9  C   UNL d   1      -4.890   1.994   0.000  0.00  0.00     0.202 A 
ENDROOT
BRANCH   2  10
ATOM     10  N   UNL d   1      -4.175   4.056   0.000  0.00  0.00    -0.225 NA
BRANCH  10  11
ATOM     11  C   UNL d   1      -3.465   4.469   0.000  0.00  0.00     0.085 A 
ATOM     12  C   UNL d   1      -2.750   4.056   0.000  0.00  0.00     0.043 A 
ATOM     13  C   UNL d   1      -2.035   4.469   0.000  0.00  0.00     0.096 A 
ATOM     14  C   UNL d   1      -2.035   5.294   0.000  0.00  0.00     0.024 A 
ATOM     15  C   UNL d   1      -2.759   5.706   0.000  0.00  0.00     0.004 A 
ATOM     16  C   UNL d   1      -3.465   5.294   0.000  0.00  0.00     0.019 A 
BRANCH  13  17
ATOM     17  O   UNL d   1      -1.315   4.052   0.000  0.00  0.00    -0.328 OA
ATOM     18  C   UNL d   1      -1.315   3.227   0.000  0.00  0.00     0.181 C 
ENDBRANCH  13  17
ENDBRANCH  10  11
ENDBRANCH   2  10
TORSDOF 3
