REMARK  6 active torsions:
REMARK  status: ('A' for Active; 'I' for Inactive)
REMARK    1  A    between atoms: C_13  and  N_1 
REMARK    2  A    between atoms: S_9  and  C_2 
REMARK    3  A    between atoms: C_10  and  C_7 
REMARK    4  A    between atoms: C_19  and  S_9 
REMARK    5  A    between atoms: O_23  and  C_10 
REMARK    6  A    between atoms: C_14  and  C_19 
ROOT
ATOM      1  N   UNL d   1      -2.212   1.910   0.000  0.00  0.00    -0.254 N 
ATOM      2  C   UNL d   1      -2.212   2.735   0.000  0.00  0.00     0.182 A 
ATOM      3  C   UNL d   1      -2.927   1.498   0.000  0.00  0.00     0.274 A 
ATOM      4  C   UNL d   1      -3.637   1.910   0.000  0.00  0.00     0.104 A 
ATOM      5  N   UNL d   1      -2.927   3.147   0.000  0.00  0.00    -0.222 NA
ATOM      6  C   UNL d   1      -3.637   2.735   0.000  0.00  0.00     0.095 A 
ATOM      7  S   UNL d   1      -4.420   1.658   0.000  0.00  0.00    -0.080 SA
ATOM      8  O   UNL d   1      -2.927   0.673   0.000  0.00  0.00    -0.266 OA
ATOM      9  C   UNL d   1      -4.420   2.991   0.000  0.00  0.00     0.027 A 
ATOM     10  C   UNL d   1      -4.901   2.332   0.000  0.00  0.00     0.037 A 
ENDROOT
BRANCH   2  11
ATOM     11  S   UNL d   1      -1.493   3.156   0.000  0.00  0.00    -0.047 SA
BRANCH  11  12
ATOM     12  C   UNL d   1      -0.779   2.744   0.000  0.00  0.00     0.063 C 
BRANCH  12  13
ATOM     13  C   UNL d   1      -0.064   3.156   0.000  0.00  0.00     0.107 A 
ATOM     14  O   UNL d   1       0.110   3.967   0.000  0.00  0.00    -0.301 OA
ATOM     15  C   UNL d   1       0.925   4.049   0.000  0.00  0.00     0.163 A 
ATOM     16  C   UNL d   1       1.264   3.294   0.000  0.00  0.00     0.032 A 
ATOM     17  C   UNL d   1       0.650   2.744   0.000  0.00  0.00     0.027 A 
BRANCH  15  18
ATOM     18  C   UNL d   1       1.347   4.760   0.000  0.00  0.00     0.319 C 
ATOM     19  O   UNL d   1       2.171   4.760   0.000  0.00  0.00    -0.257 OA
BRANCH  18  20
ATOM     20  O   UNL d   1       0.934   5.474   0.000  0.00  0.00    -0.294 OA
ATOM     21  C   UNL d   1       1.347   6.189   0.000  0.00  0.00     0.185 C 
ENDBRANCH  18  20
ENDBRANCH  15  18
ENDBRANCH  12  13
ENDBRANCH  11  12
ENDBRANCH   2  11
BRANCH   1  22
ATOM     22  C   UNL d   1      -1.507   1.498   0.000  0.00  0.00     0.069 A 
ATOM     23  C   UNL d   1      -1.507   0.673   0.000  0.00  0.00     0.018 A 
ATOM     24  C   UNL d   1      -0.792   0.261   0.000  0.00  0.00     0.002 A 
ATOM     25  C   UNL d   1      -0.078   0.673   0.000  0.00  0.00     0.000 A 
ATOM     26  C   UNL d   1      -0.078   1.498   0.000  0.00  0.00     0.002 A 
ATOM     27  C   UNL d   1       0.650   0.261   0.000  0.00  0.00     0.000 C 
ATOM     28  C   UNL d   1      -0.792   1.910   0.000  0.00  0.00     0.018 A 
ENDBRANCH   1  22
TORSDOF 6
