REMARK  4 active torsions:
REMARK  status: ('A' for Active; 'I' for Inactive)
REMARK    1  A    between atoms: S_7  and  C_1 
REMARK       I    between atoms: N_5  and  C_9 
REMARK    2  A    between atoms: C_10  and  S_7 
REMARK    3  A    between atoms: C_15  and  N_8 
REMARK    4  A    between atoms: C_9  and  C_10 
ROOT
ATOM      1  N   UNL d   1      -2.223   6.215   0.000  0.00  0.00    -0.269 N 
ATOM      2  N   UNL d   1      -2.924   7.714   0.000  0.00  0.00    -0.301 N 
ATOM      3  C   UNL d   1      -1.865   5.463   0.000  0.00  0.00     0.271 C 
ATOM      4  C   UNL d   1      -3.048   6.288   0.000  0.00  0.00     0.102 A 
ATOM      5  C   UNL d   1      -1.746   6.889   0.000  0.00  0.00     0.102 A 
ATOM      6  C   UNL d   1      -2.099   7.636   0.000  0.00  0.00     0.100 A 
ATOM      7  C   UNL d   1      -3.396   7.031   0.000  0.00  0.00     0.100 A 
ATOM      8  O   UNL d   1      -1.040   5.395   0.000  0.00  0.00    -0.266 OA
ENDROOT
BRANCH   3   9
ATOM      9  C   UNL d   1      -2.347   4.790   0.000  0.00  0.00     0.097 C 
BRANCH   9  10
ATOM     10  S   UNL d   1      -1.994   4.043   0.000  0.00  0.00    -0.080 SA
BRANCH  10  11
ATOM     11  C   UNL d   1      -2.475   3.364   0.000  0.00  0.00     0.049 A 
ATOM     12  C   UNL d   1      -2.214   2.585   0.000  0.00  0.00     0.087 A 
ATOM     13  N   UNL d   1      -2.874   2.090   0.000  0.00  0.00    -0.245 NA
ATOM     14  C   UNL d   1      -1.425   2.347   0.000  0.00  0.00     0.021 C 
ATOM     15  C   UNL d   1      -3.547   2.580   0.000  0.00  0.00     0.082 A 
ATOM     16  C   UNL d   1      -3.295   3.364   0.000  0.00  0.00     0.025 A 
ATOM     17  C   UNL d   1      -4.354   2.402   0.000  0.00  0.00     0.019 A 
ATOM     18  C   UNL d   1      -3.850   3.969   0.000  0.00  0.00     0.002 A 
ATOM     19  C   UNL d   1      -4.657   3.804   0.000  0.00  0.00     0.000 A 
ATOM     20  C   UNL d   1      -4.904   3.007   0.000  0.00  0.00     0.002 A 
ENDBRANCH  10  11
ENDBRANCH   9  10
ENDBRANCH   3   9
BRANCH   2  21
ATOM     21  C   UNL d   1      -3.268   8.461   0.000  0.00  0.00     0.064 A 
ATOM     22  C   UNL d   1      -2.791   9.135   0.000  0.00  0.00     0.018 A 
ATOM     23  C   UNL d   1      -3.144   9.891   0.000  0.00  0.00     0.002 A 
ATOM     24  C   UNL d   1      -3.969   9.960   0.000  0.00  0.00     0.000 A 
ATOM     25  C   UNL d   1      -4.441   9.286   0.000  0.00  0.00     0.002 A 
ATOM     26  C   UNL d   1      -4.093   8.543   0.000  0.00  0.00     0.018 A 
ENDBRANCH   2  21
TORSDOF 4
