REMARK  5 active torsions:
REMARK  status: ('A' for Active; 'I' for Inactive)
REMARK    1  A    between atoms: C_10  and  N_1 
REMARK    2  A    between atoms: S_7  and  C_2 
REMARK    3  A    between atoms: C_12  and  S_7 
REMARK    4  A    between atoms: C_9  and  C_12 
REMARK    5  A    between atoms: O_16  and  C_9 
ROOT
ATOM      1  N   UNL d   1       5.834  -7.717   0.000  0.00  0.00    -0.254 N 
ATOM      2  C   UNL d   1       5.834  -6.887   0.000  0.00  0.00     0.182 A 
ATOM      3  C   UNL d   1       5.115  -8.130   0.000  0.00  0.00     0.274 A 
ATOM      4  C   UNL d   1       4.401  -7.717   0.000  0.00  0.00     0.104 A 
ATOM      5  N   UNL d   1       5.115  -6.470   0.000  0.00  0.00    -0.222 NA
ATOM      6  C   UNL d   1       4.401  -6.887   0.000  0.00  0.00     0.095 A 
ATOM      7  S   UNL d   1       3.621  -7.968   0.000  0.00  0.00    -0.080 SA
ATOM      8  O   UNL d   1       5.115  -8.955   0.000  0.00  0.00    -0.266 OA
ATOM      9  C   UNL d   1       3.621  -6.631   0.000  0.00  0.00     0.027 A 
ATOM     10  C   UNL d   1       3.138  -7.287   0.000  0.00  0.00     0.037 A 
ENDROOT
BRANCH   2  11
ATOM     11  S   UNL d   1       6.556  -6.470   0.000  0.00  0.00    -0.044 SA
BRANCH  11  12
ATOM     12  C   UNL d   1       6.532  -5.640   0.000  0.00  0.00     0.095 C 
ATOM     13  C   UNL d   1       5.809  -5.252   0.000  0.00  0.00     0.013 C 
BRANCH  12  14
ATOM     14  C   UNL d   1       7.060  -5.318   0.000  0.00  0.00     0.302 C 
ATOM     15  O   UNL d   1       7.783  -5.710   0.000  0.00  0.00    -0.259 OA
BRANCH  14  16
ATOM     16  O   UNL d   1       7.035  -4.488   0.000  0.00  0.00    -0.295 OA
ATOM     17  C   UNL d   1       6.309  -4.092   0.000  0.00  0.00     0.185 C 
ENDBRANCH  14  16
ENDBRANCH  12  14
ENDBRANCH  11  12
ENDBRANCH   2  11
BRANCH   1  18
ATOM     18  C   UNL d   1       6.544  -8.130   0.000  0.00  0.00     0.069 A 
ATOM     19  C   UNL d   1       7.263  -7.717   0.000  0.00  0.00     0.018 A 
ATOM     20  C   UNL d   1       7.977  -8.130   0.000  0.00  0.00     0.002 A 
ATOM     21  C   UNL d   1       7.977  -8.955   0.000  0.00  0.00     0.000 A 
ATOM     22  C   UNL d   1       7.258  -9.368   0.000  0.00  0.00     0.002 A 
ATOM     23  C   UNL d   1       6.544  -8.955   0.000  0.00  0.00     0.018 A 
ENDBRANCH   1  18
TORSDOF 5
