REMARK  5 active torsions:
REMARK  status: ('A' for Active; 'I' for Inactive)
REMARK    1  A    between atoms: N_12  and  C_5 
REMARK    2  A    between atoms: C_21  and  N_9 
REMARK    3  A    between atoms: C_10  and  S_20 
REMARK    4  A    between atoms: S_20  and  C_26 
REMARK    5  A    between atoms: C_26  and  C_21 
ROOT
ATOM      1  C   UNL d   1       3.359  -4.627   0.000  0.00  0.00     0.191 A 
ATOM      2  C   UNL d   1       3.359  -3.807   0.000  0.00  0.00     0.173 A 
ATOM      3  N   UNL d   1       4.142  -4.884   0.000  0.00  0.00    -0.042 NA
ATOM      4  N   UNL d   1       2.647  -5.037   0.000  0.00  0.00    -0.240 N 
ATOM      5  C   UNL d   1       4.623  -4.217   0.000  0.00  0.00     0.722 A 
ATOM      6  N   UNL d   1       1.930  -3.807   0.000  0.00  0.00    -0.223 N 
ATOM      7  C   UNL d   1       1.930  -4.627   0.000  0.00  0.00     0.343 A 
ATOM      8  C   UNL d   1       2.647  -3.393   0.000  0.00  0.00     0.288 A 
ATOM      9  N   UNL d   1       4.142  -3.546   0.000  0.00  0.00    -0.132 N 
ATOM     10  O   UNL d   1       1.210  -5.049   0.000  0.00  0.00    -0.245 OA
ATOM     11  O   UNL d   1       2.647  -2.564   0.000  0.00  0.00    -0.265 OA
ATOM     12  C   UNL d   1       2.647  -5.857   0.000  0.00  0.00     0.105 C 
ATOM     13  C   UNL d   1       1.218  -3.397   0.000  0.00  0.00     0.107 C 
ENDROOT
BRANCH   9  14
ATOM     14  C   UNL d   1       4.399  -2.763   0.000  0.00  0.00     0.105 C 
BRANCH  14  15
ATOM     15  C   UNL d   1       5.211  -2.589   0.000  0.00  0.00     0.057 C 
BRANCH  15  16
ATOM     16  S   UNL d   1       5.460  -1.794   0.000  0.00  0.00    -0.059 SA
BRANCH  16  17
ATOM     17  C   UNL d   1       6.276  -1.620   0.000  0.00  0.00     0.141 A 
ATOM     18  N   UNL d   1       6.822  -2.228   0.000  0.00  0.00    -0.232 NA
ATOM     19  C   UNL d   1       7.568  -1.901   0.000  0.00  0.00     0.088 A 
ATOM     20  C   UNL d   1       8.318  -2.253   0.000  0.00  0.00     0.020 A 
ATOM     21  C   UNL d   1       7.497  -1.093   0.000  0.00  0.00     0.049 A 
ATOM     22  C   UNL d   1       8.997  -1.777   0.000  0.00  0.00     0.002 A 
ATOM     23  C   UNL d   1       8.922  -0.969   0.000  0.00  0.00     0.001 A 
ATOM     24  C   UNL d   1       8.168  -0.621   0.000  0.00  0.00     0.008 A 
ATOM     25  S   UNL d   1       6.677  -0.911   0.000  0.00  0.00    -0.060 SA
ENDBRANCH  16  17
ENDBRANCH  15  16
ENDBRANCH  14  15
ENDBRANCH   9  14
BRANCH   5  26
ATOM     26  N   UNL d   1       5.443  -4.262   0.000  0.00  0.00    -0.139 N 
ATOM     27  C   UNL d   1       5.820  -4.987   0.000  0.00  0.00     0.098 A 
ATOM     28  C   UNL d   1       6.652  -5.033   0.000  0.00  0.00     0.020 A 
ATOM     29  C   UNL d   1       7.096  -4.329   0.000  0.00  0.00     0.003 A 
ATOM     30  C   UNL d   1       6.715  -3.604   0.000  0.00  0.00     0.020 A 
ATOM     31  C   UNL d   1       7.920  -4.374   0.000  0.00  0.00     0.000 C 
ATOM     32  C   UNL d   1       5.890  -3.571   0.000  0.00  0.00     0.098 A 
ENDBRANCH   5  26
TORSDOF 5
