REMARK  8 active torsions:
REMARK  status: ('A' for Active; 'I' for Inactive)
REMARK    1  A    between atoms: C_4  and  N_1 
REMARK    2  A    between atoms: C_10  and  C_2 
REMARK    3  A    between atoms: N_14  and  C_4 
REMARK    4  A    between atoms: O_17  and  C_8 
REMARK    5  A    between atoms: O_15  and  C_10 
REMARK    6  A    between atoms: O_18  and  C_11 
REMARK    7  A    between atoms: C_16  and  O_15 
REMARK    8  A    between atoms: C_25  and  C_19 
ROOT
ATOM      1  N   UNL d   1      -0.477   2.910   0.000  0.00  0.00    -0.280 N 
ATOM      2  C   UNL d   1      -1.192   2.498   0.000  0.00  0.00     0.091 A 
ATOM      3  C   UNL d   1      -1.897   2.910   0.000  0.00  0.00     0.020 A 
ATOM      4  C   UNL d   1      -1.897   3.735   0.000  0.00  0.00     0.005 A 
ATOM      5  C   UNL d   1      -2.608   2.498   0.000  0.00  0.00     0.028 A 
ATOM      6  C   UNL d   1      -0.477   3.735   0.000  0.00  0.00     0.082 A 
ATOM      7  C   UNL d   1      -3.323   2.910   0.000  0.00  0.00     0.116 A 
ATOM      8  C   UNL d   1      -2.608   4.148   0.000  0.00  0.00     0.026 A 
ATOM      9  C   UNL d   1      -3.323   3.735   0.000  0.00  0.00     0.116 A 
ATOM     10  C   UNL d   1      -1.192   4.148   0.000  0.00  0.00     0.019 A 
ENDROOT
BRANCH   2  11
ATOM     11  C   UNL d   1      -1.192   1.673   0.000  0.00  0.00     0.140 C 
BRANCH  11  12
ATOM     12  O   UNL d   1      -0.477   1.260   0.000  0.00  0.00    -0.304 OA
BRANCH  12  13
ATOM     13  C   UNL d   1      -0.477   0.435   0.000  0.00  0.00     0.100 A 
ATOM     14  C   UNL d   1       0.238   0.023   0.000  0.00  0.00     0.025 A 
ATOM     15  C   UNL d   1       0.238  -0.802   0.000  0.00  0.00     0.002 A 
ATOM     16  C   UNL d   1      -0.477  -1.215   0.000  0.00  0.00     0.000 A 
ATOM     17  C   UNL d   1      -1.192  -0.802   0.000  0.00  0.00     0.002 A 
ATOM     18  C   UNL d   1      -1.192   0.023   0.000  0.00  0.00     0.025 A 
BRANCH  16  19
ATOM     19  C   UNL d   1      -0.477  -2.040   0.000  0.00  0.00     0.000 C 
ATOM     20  C   UNL d   1       0.234  -2.452   0.000  0.00  0.00     0.000 C 
ENDBRANCH  16  19
ENDBRANCH  12  13
ENDBRANCH  11  12
ENDBRANCH   2  11
BRANCH   1  21
ATOM     21  C   UNL d   1       0.247   2.498   0.000  0.00  0.00     0.206 C 
ATOM     22  S   UNL d   1       0.247   1.664   0.000  0.00  0.00    -0.038 SA
BRANCH  21  23
ATOM     23  N   UNL d   1       0.953   2.910   0.000  0.00  0.00    -0.215 NA
ATOM     24  C   UNL d   1       0.953   3.735   0.000  0.00  0.00     0.122 C 
ENDBRANCH  21  23
ENDBRANCH   1  21
BRANCH   7  25
ATOM     25  O   UNL d   1      -4.043   2.498   0.000  0.00  0.00    -0.326 OA
ATOM     26  C   UNL d   1      -4.767   2.910   0.000  0.00  0.00     0.181 C 
ENDBRANCH   7  25
BRANCH   9  27
ATOM     27  O   UNL d   1      -4.043   4.148   0.000  0.00  0.00    -0.326 OA
ATOM     28  C   UNL d   1      -4.767   3.735   0.000  0.00  0.00     0.181 C 
ENDBRANCH   9  27
TORSDOF 8
