REMARK  5 active torsions:
REMARK  status: ('A' for Active; 'I' for Inactive)
REMARK    1  A    between atoms: N_12  and  C_4 
REMARK    2  A    between atoms: C_19  and  N_5 
REMARK    3  A    between atoms: C_11  and  S_18 
REMARK    4  A    between atoms: S_18  and  C_21 
REMARK    5  A    between atoms: C_21  and  C_19 
ROOT
ATOM      1  C   UNL d   1      -2.661   1.127   0.000  0.00  0.00     0.191 A 
ATOM      2  C   UNL d   1      -2.661   1.951   0.000  0.00  0.00     0.174 A 
ATOM      3  N   UNL d   1      -1.878   0.875   0.000  0.00  0.00    -0.042 NA
ATOM      4  C   UNL d   1      -1.397   1.534   0.000  0.00  0.00     0.722 A 
ATOM      5  N   UNL d   1      -1.878   2.208   0.000  0.00  0.00    -0.132 N 
ATOM      6  N   UNL d   1      -3.376   0.715   0.000  0.00  0.00    -0.239 N 
ATOM      7  C   UNL d   1      -4.091   1.127   0.000  0.00  0.00     0.358 A 
ATOM      8  N   UNL d   1      -4.091   1.951   0.000  0.00  0.00    -0.152 NA
ATOM      9  C   UNL d   1      -3.376   2.364   0.000  0.00  0.00     0.303 A 
ATOM     10  O   UNL d   1      -4.805   0.710   0.000  0.00  0.00    -0.244 OA
ATOM     11  O   UNL d   1      -3.376   3.188   0.000  0.00  0.00    -0.263 OA
ATOM     12  C   UNL d   1      -3.376  -0.101   0.000  0.00  0.00     0.105 C 
ENDROOT
BRANCH   5  13
ATOM     13  C   UNL d   1      -1.622   2.996   0.000  0.00  0.00     0.105 C 
BRANCH  13  14
ATOM     14  C   UNL d   1      -0.811   3.170   0.000  0.00  0.00     0.058 C 
BRANCH  14  15
ATOM     15  S   UNL d   1      -0.559   3.967   0.000  0.00  0.00    -0.041 SA
BRANCH  15  16
ATOM     16  C   UNL d   1       0.252   4.132   0.000  0.00  0.00     0.215 A 
ATOM     17  N   UNL d   1       0.802   3.527   0.000  0.00  0.00    -0.214 NA
ATOM     18  C   UNL d   1       1.544   3.857   0.000  0.00  0.00     0.107 A 
ATOM     19  C   UNL d   1       2.295   3.504   0.000  0.00  0.00     0.021 A 
ATOM     20  C   UNL d   1       1.475   4.663   0.000  0.00  0.00     0.120 A 
ATOM     21  C   UNL d   1       2.973   3.981   0.000  0.00  0.00     0.002 A 
ATOM     22  C   UNL d   1       2.900   4.787   0.000  0.00  0.00     0.002 A 
ATOM     23  C   UNL d   1       2.148   5.130   0.000  0.00  0.00     0.026 A 
ATOM     24  O   UNL d   1       0.660   4.842   0.000  0.00  0.00    -0.283 OA
ENDBRANCH  15  16
ENDBRANCH  14  15
ENDBRANCH  13  14
ENDBRANCH   5  13
BRANCH   4  25
ATOM     25  N   UNL d   1      -0.573   1.567   0.000  0.00  0.00    -0.139 N 
ATOM     26  C   UNL d   1      -0.188   2.304   0.000  0.00  0.00     0.098 A 
ATOM     27  C   UNL d   1       0.637   2.336   0.000  0.00  0.00     0.020 A 
ATOM     28  C   UNL d   1       1.077   1.645   0.000  0.00  0.00     0.003 A 
ATOM     29  C   UNL d   1       0.692   0.916   0.000  0.00  0.00     0.020 A 
ATOM     30  C   UNL d   1      -0.133   0.875   0.000  0.00  0.00     0.098 A 
ENDBRANCH   4  25
TORSDOF 5
