REMARK  5 active torsions:
REMARK  status: ('A' for Active; 'I' for Inactive)
REMARK    1  A    between atoms: C_12  and  N_1 
REMARK    2  A    between atoms: S_9  and  C_2 
REMARK       I    between atoms: N_7  and  C_10 
REMARK    3  A    between atoms: C_19  and  N_8 
REMARK    4  A    between atoms: C_14  and  S_9 
REMARK    5  A    between atoms: C_10  and  C_14 
ROOT
ATOM      1  N   UNL d   1      -2.214   1.911   0.000  0.00  0.00    -0.254 N 
ATOM      2  C   UNL d   1      -2.214   2.736   0.000  0.00  0.00     0.182 A 
ATOM      3  C   UNL d   1      -2.929   1.499   0.000  0.00  0.00     0.274 A 
ATOM      4  C   UNL d   1      -3.639   1.911   0.000  0.00  0.00     0.104 A 
ATOM      5  N   UNL d   1      -2.929   3.149   0.000  0.00  0.00    -0.222 NA
ATOM      6  C   UNL d   1      -3.639   2.736   0.000  0.00  0.00     0.095 A 
ATOM      7  S   UNL d   1      -4.423   1.659   0.000  0.00  0.00    -0.080 SA
ATOM      8  O   UNL d   1      -2.929   0.674   0.000  0.00  0.00    -0.266 OA
ATOM      9  C   UNL d   1      -4.423   2.993   0.000  0.00  0.00     0.027 A 
ATOM     10  C   UNL d   1      -4.904   2.333   0.000  0.00  0.00     0.037 A 
ENDROOT
BRANCH   2  11
ATOM     11  S   UNL d   1      -1.494   3.158   0.000  0.00  0.00    -0.044 SA
BRANCH  11  12
ATOM     12  C   UNL d   1      -0.779   2.745   0.000  0.00  0.00     0.099 C 
BRANCH  12  13
ATOM     13  C   UNL d   1      -0.064   3.158   0.000  0.00  0.00     0.272 C 
ATOM     14  N   UNL d   1      -0.064   3.983   0.000  0.00  0.00    -0.269 N 
ATOM     15  C   UNL d   1      -0.779   4.395   0.000  0.00  0.00     0.102 A 
ATOM     16  C   UNL d   1       0.651   4.395   0.000  0.00  0.00     0.102 A 
ATOM     17  C   UNL d   1      -0.770   5.216   0.000  0.00  0.00     0.100 A 
ATOM     18  N   UNL d   1      -0.064   5.628   0.000  0.00  0.00    -0.301 N 
ATOM     19  C   UNL d   1       0.651   5.216   0.000  0.00  0.00     0.100 A 
ATOM     20  O   UNL d   1       0.651   2.745   0.000  0.00  0.00    -0.266 OA
BRANCH  18  21
ATOM     21  C   UNL d   1      -0.064   6.453   0.000  0.00  0.00     0.064 A 
ATOM     22  C   UNL d   1       0.651   6.866   0.000  0.00  0.00     0.018 A 
ATOM     23  C   UNL d   1       0.651   7.691   0.000  0.00  0.00     0.002 A 
ATOM     24  C   UNL d   1      -0.064   8.103   0.000  0.00  0.00     0.000 A 
ATOM     25  C   UNL d   1      -0.779   7.691   0.000  0.00  0.00     0.002 A 
ATOM     26  C   UNL d   1      -0.779   6.866   0.000  0.00  0.00     0.018 A 
ENDBRANCH  18  21
ENDBRANCH  12  13
ENDBRANCH  11  12
ENDBRANCH   2  11
BRANCH   1  27
ATOM     27  C   UNL d   1      -1.508   1.499   0.000  0.00  0.00     0.069 A 
ATOM     28  C   UNL d   1      -1.508   0.674   0.000  0.00  0.00     0.018 A 
ATOM     29  C   UNL d   1      -0.793   0.261   0.000  0.00  0.00     0.002 A 
ATOM     30  C   UNL d   1      -0.078   0.674   0.000  0.00  0.00     0.000 A 
ATOM     31  C   UNL d   1      -0.078   1.499   0.000  0.00  0.00     0.002 A 
ATOM     32  C   UNL d   1      -0.793   1.911   0.000  0.00  0.00     0.018 A 
ENDBRANCH   1  27
TORSDOF 5
