REMARK  5 active torsions:
REMARK  status: ('A' for Active; 'I' for Inactive)
REMARK    1  A    between atoms: C_7  and  C_1 
REMARK    2  A    between atoms: C_5  and  S_14 
REMARK       I    between atoms: N_13  and  C_7 
REMARK    3  A    between atoms: C_18  and  N_13 
REMARK    4  A    between atoms: S_14  and  C_19 
REMARK    5  A    between atoms: C_19  and  C_18 
ROOT
ATOM      1  C   UNL d   1       5.461  -7.959   0.000  0.00  0.00     0.056 C 
ENDROOT
BRANCH   1   2
ATOM      2  S   UNL d   1       5.810  -8.715   0.000  0.00  0.00    -0.083 SA
BRANCH   2   3
ATOM      3  C   UNL d   1       5.328  -9.393   0.000  0.00  0.00     0.050 A 
ATOM      4  C   UNL d   1       4.505  -9.393   0.000  0.00  0.00     0.025 A 
ATOM      5  C   UNL d   1       4.252 -10.187   0.000  0.00  0.00     0.082 A 
ATOM      6  C   UNL d   1       3.944  -8.782   0.000  0.00  0.00     0.002 A 
ATOM      7  C   UNL d   1       3.445 -10.365   0.000  0.00  0.00     0.019 A 
ATOM      8  N   UNL d   1       4.929 -10.665   0.000  0.00  0.00    -0.243 NA
ATOM      9  C   UNL d   1       2.893  -9.754   0.000  0.00  0.00     0.002 A 
ATOM     10  C   UNL d   1       3.146  -8.956   0.000  0.00  0.00     0.000 A 
ATOM     11  C   UNL d   1       5.590 -10.174   0.000  0.00  0.00     0.105 A 
ENDBRANCH   2   3
ENDBRANCH   1   2
BRANCH   1  12
ATOM     12  C   UNL d   1       5.939  -7.286   0.000  0.00  0.00     0.109 C 
BRANCH  12  13
ATOM     13  N   UNL d   1       5.590  -6.525   0.000  0.00  0.00    -0.204 NA
ATOM     14  C   UNL d   1       6.064  -5.852   0.000  0.00  0.00     0.302 C 
ATOM     15  O   UNL d   1       5.715  -5.104   0.000  0.00  0.00    -0.263 OA
BRANCH  14  16
ATOM     16  C   UNL d   1       6.895  -5.927   0.000  0.00  0.00     0.158 A 
ATOM     17  O   UNL d   1       7.394  -6.587   0.000  0.00  0.00    -0.296 OA
ATOM     18  C   UNL d   1       8.171  -6.313   0.000  0.00  0.00     0.134 A 
ATOM     19 BR   UNL d   1       8.857  -6.787   0.000  0.00  0.00    -0.022 Br
ATOM     20  C   UNL d   1       8.158  -5.490   0.000  0.00  0.00     0.034 A 
ATOM     21  C   UNL d   1       7.369  -5.253   0.000  0.00  0.00     0.032 A 
ENDBRANCH  14  16
ENDBRANCH  12  13
ENDBRANCH   1  12
TORSDOF 5
