REMARK  5 active torsions:
REMARK  status: ('A' for Active; 'I' for Inactive)
REMARK    1  A    between atoms: C_7  and  C_1 
REMARK    2  A    between atoms: C_13  and  N_3 
REMARK       I    between atoms: C_6  and  N_10 
REMARK    3  A    between atoms: C_8  and  C_6 
REMARK    4  A    between atoms: C_14  and  C_7 
REMARK    5  A    between atoms: N_10  and  C_14 
ROOT
ATOM      1  C   UNL d   1      -1.428   2.448   0.000  0.00  0.00     0.058 C 
ENDROOT
BRANCH   1   2
ATOM      2  C   UNL d   1      -2.218   2.696   0.000  0.00  0.00     0.149 A 
ATOM      3  N   UNL d   1      -2.480   3.472   0.000  0.00  0.00    -0.227 NA
ATOM      4  C   UNL d   1      -3.302   3.467   0.000  0.00  0.00     0.099 A 
ATOM      5  C   UNL d   1      -3.858   4.088   0.000  0.00  0.00     0.021 A 
ATOM      6  C   UNL d   1      -3.555   2.682   0.000  0.00  0.00     0.083 A 
ATOM      7  C   UNL d   1      -4.666   3.908   0.000  0.00  0.00     0.002 A 
ATOM      8  C   UNL d   1      -4.914   3.123   0.000  0.00  0.00     0.002 A 
ATOM      9  C   UNL d   1      -4.363   2.503   0.000  0.00  0.00     0.019 A 
ATOM     10  N   UNL d   1      -2.880   2.200   0.000  0.00  0.00    -0.289 N 
BRANCH  10  11
ATOM     11  C   UNL d   1      -2.866   1.373   0.000  0.00  0.00     0.082 C 
ATOM     12  C   UNL d   1      -3.578   0.951   0.000  0.00  0.00     0.021 C 
ENDBRANCH  10  11
ENDBRANCH   1   2
BRANCH   1  13
ATOM     13  C   UNL d   1      -0.822   3.013   0.000  0.00  0.00     0.105 C 
BRANCH  13  14
ATOM     14  N   UNL d   1      -0.037   2.779   0.000  0.00  0.00    -0.206 NA
ATOM     15  C   UNL d   1       0.565   3.344   0.000  0.00  0.00     0.279 C 
ATOM     16  O   UNL d   1       1.350   3.100   0.000  0.00  0.00    -0.265 OA
BRANCH  15  17
ATOM     17  C   UNL d   1       0.377   4.143   0.000  0.00  0.00     0.058 A 
ATOM     18  C   UNL d   1       0.978   4.703   0.000  0.00  0.00     0.007 A 
ATOM     19  C   UNL d   1       0.790   5.502   0.000  0.00  0.00     0.030 A 
ATOM     20  C   UNL d   1       0.005   5.750   0.000  0.00  0.00     0.140 A 
ATOM     21  C   UNL d   1      -0.593   5.185   0.000  0.00  0.00     0.030 A 
ATOM     22  F   UNL d   1      -0.188   6.559   0.000  0.00  0.00    -0.204 F 
ATOM     23  C   UNL d   1      -0.409   4.391   0.000  0.00  0.00     0.007 A 
ENDBRANCH  15  17
ENDBRANCH  13  14
ENDBRANCH   1  13
TORSDOF 5
