REMARK  3 active torsions:
REMARK  status: ('A' for Active; 'I' for Inactive)
REMARK    1  A    between atoms: S_9  and  C_3 
REMARK    2  A    between atoms: C_12  and  S_9 
REMARK    3  A    between atoms: C_14  and  C_12 
ROOT
ATOM      1  C   UNL d   1      -2.222   1.306   0.000  0.00  0.00     0.155 A 
ATOM      2  C   UNL d   1      -2.484   2.093   0.000  0.00  0.00     0.107 A 
ATOM      3  C   UNL d   1      -1.127   2.539   0.000  0.00  0.00     0.182 A 
ATOM      4  N   UNL d   1      -0.865   1.762   0.000  0.00  0.00    -0.250 N 
ATOM      5  N   UNL d   1      -1.932   2.714   0.000  0.00  0.00    -0.220 NA
ATOM      6  C   UNL d   1      -1.417   1.141   0.000  0.00  0.00     0.285 A 
ATOM      7  N   UNL d   1      -2.885   0.814   0.000  0.00  0.00    -0.239 NA
ATOM      8  C   UNL d   1      -3.308   2.093   0.000  0.00  0.00     0.037 A 
ATOM      9  C   UNL d   1      -3.561   1.297   0.000  0.00  0.00     0.083 A 
ATOM     10  O   UNL d   1      -1.146   0.354   0.000  0.00  0.00    -0.265 OA
ATOM     11  C   UNL d   1      -0.051   1.596   0.000  0.00  0.00     0.104 C 
ATOM     12  C   UNL d   1      -3.865   2.700   0.000  0.00  0.00     0.003 A 
ATOM     13  C   UNL d   1      -4.371   1.118   0.000  0.00  0.00     0.019 A 
ATOM     14  C   UNL d   1      -4.674   2.521   0.000  0.00  0.00     0.000 A 
ATOM     15  C   UNL d   1      -4.923   1.734   0.000  0.00  0.00     0.002 A 
ENDROOT
BRANCH   3  16
ATOM     16  S   UNL d   1      -0.575   3.156   0.000  0.00  0.00    -0.050 SA
BRANCH  16  17
ATOM     17  C   UNL d   1      -0.828   3.943   0.000  0.00  0.00     0.032 C 
ATOM     18  C   UNL d   1      -0.276   4.555   0.000  0.00  0.00     0.007 C 
BRANCH  17  19
ATOM     19  C   UNL d   1      -1.638   4.099   0.000  0.00  0.00     0.006 A 
ATOM     20  C   UNL d   1      -1.900   4.877   0.000  0.00  0.00     0.001 A 
ATOM     21  C   UNL d   1      -2.714   5.051   0.000  0.00  0.00     0.000 A 
ATOM     22  C   UNL d   1      -3.257   4.435   0.000  0.00  0.00     0.000 A 
ATOM     23  C   UNL d   1      -3.004   3.653   0.000  0.00  0.00     0.000 A 
ATOM     24  C   UNL d   1      -2.190   3.487   0.000  0.00  0.00     0.001 A 
ENDBRANCH  17  19
ENDBRANCH  16  17
ENDBRANCH   3  16
TORSDOF 3
