REMARK  5 active torsions:
REMARK  status: ('A' for Active; 'I' for Inactive)
REMARK    1  A    between atoms: C_6  and  C_1 
REMARK    2  A    between atoms: N_7  and  C_2 
REMARK    3  A    between atoms: O_11  and  C_6 
REMARK       I    between atoms: C_8  and  N_7 
REMARK    4  A    between atoms: C_14  and  C_8 
REMARK    5  A    between atoms: C_15  and  O_11 
ROOT
ATOM      1  C   UNL d   1      -2.214   1.756   0.000  0.00  0.00     0.162 A 
ATOM      2  C   UNL d   1      -2.475   2.539   0.000  0.00  0.00     0.109 A 
ATOM      3  N   UNL d   1      -2.874   1.265   0.000  0.00  0.00    -0.239 NA
ATOM      4  C   UNL d   1      -3.296   2.530   0.000  0.00  0.00     0.037 A 
ATOM      5  C   UNL d   1      -3.548   1.746   0.000  0.00  0.00     0.083 A 
ATOM      6  C   UNL d   1      -3.850   3.144   0.000  0.00  0.00     0.003 A 
ATOM      7  C   UNL d   1      -4.355   1.568   0.000  0.00  0.00     0.019 A 
ATOM      8  C   UNL d   1      -4.657   2.966   0.000  0.00  0.00     0.000 A 
ATOM      9  C   UNL d   1      -4.905   2.182   0.000  0.00  0.00     0.002 A 
ENDROOT
BRANCH   1  10
ATOM     10  C   UNL d   1      -1.425   1.513   0.000  0.00  0.00     0.320 C 
ATOM     11  O   UNL d   1      -0.821   2.072   0.000  0.00  0.00    -0.257 OA
BRANCH  10  12
ATOM     12  O   UNL d   1      -1.233   0.711   0.000  0.00  0.00    -0.270 OA
BRANCH  12  13
ATOM     13  C   UNL d   1      -1.838   0.151   0.000  0.00  0.00     0.126 C 
ATOM     14  C   UNL d   1      -1.650  -0.646   0.000  0.00  0.00     0.029 C 
ENDBRANCH  12  13
ENDBRANCH  10  12
ENDBRANCH   1  10
BRANCH   2  15
ATOM     15  N   UNL d   1      -1.994   3.213   0.000  0.00  0.00    -0.206 NA
ATOM     16  C   UNL d   1      -2.347   3.970   0.000  0.00  0.00     0.279 C 
ATOM     17  O   UNL d   1      -3.172   4.038   0.000  0.00  0.00    -0.265 OA
BRANCH  16  18
ATOM     18  C   UNL d   1      -1.866   4.639   0.000  0.00  0.00     0.062 C 
ATOM     19  C   UNL d   1      -2.214   5.391   0.000  0.00  0.00     0.005 C 
ENDBRANCH  16  18
ENDBRANCH   2  15
TORSDOF 5
