REMARK  7 active torsions:
REMARK  status: ('A' for Active; 'I' for Inactive)
REMARK    1  A    between atoms: C_7  and  C_1 
REMARK    2  A    between atoms: S_8  and  C_3 
REMARK       I    between atoms: C_6  and  N_13 
REMARK    3  A    between atoms: C_10  and  C_6 
REMARK    4  A    between atoms: C_20  and  S_8 
REMARK    5  A    between atoms: N_13  and  C_21 
REMARK    6  A    between atoms: O_19  and  C_14 
REMARK    7  A    between atoms: C_21  and  C_20 
ROOT
ATOM      1  C   UNL d   1      -2.211   1.300   0.000  0.00  0.00     0.087 A 
ATOM      2  N   UNL d   1      -2.870   0.810   0.000  0.00  0.00    -0.245 NA
ATOM      3  C   UNL d   1      -2.471   2.082   0.000  0.00  0.00     0.049 A 
ATOM      4  C   UNL d   1      -3.291   2.082   0.000  0.00  0.00     0.025 A 
ATOM      5  C   UNL d   1      -3.542   1.291   0.000  0.00  0.00     0.082 A 
ATOM      6  C   UNL d   1      -3.844   2.687   0.000  0.00  0.00     0.002 A 
ATOM      7  C   UNL d   1      -4.348   1.112   0.000  0.00  0.00     0.019 A 
ATOM      8  C   UNL d   1      -4.650   2.508   0.000  0.00  0.00     0.000 A 
ATOM      9  C   UNL d   1      -4.897   1.725   0.000  0.00  0.00     0.002 A 
ENDROOT
BRANCH   3  10
ATOM     10  S   UNL d   1      -1.991   2.755   0.000  0.00  0.00    -0.083 SA
BRANCH  10  11
ATOM     11  C   UNL d   1      -2.343   3.510   0.000  0.00  0.00     0.056 C 
BRANCH  11  12
ATOM     12  C   UNL d   1      -1.863   4.183   0.000  0.00  0.00     0.109 C 
BRANCH  12  13
ATOM     13  N   UNL d   1      -2.211   4.920   0.000  0.00  0.00    -0.206 NA
ATOM     14  C   UNL d   1      -1.739   5.593   0.000  0.00  0.00     0.279 C 
ATOM     15  O   UNL d   1      -2.096   6.348   0.000  0.00  0.00    -0.265 OA
BRANCH  14  16
ATOM     16  C   UNL d   1      -0.915   5.524   0.000  0.00  0.00     0.058 A 
ATOM     17  C   UNL d   1      -0.563   4.769   0.000  0.00  0.00     0.005 A 
ATOM     18  C   UNL d   1       0.261   4.700   0.000  0.00  0.00     0.000 A 
ATOM     19  C   UNL d   1       0.732   5.382   0.000  0.00  0.00     0.000 A 
ATOM     20  C   UNL d   1       0.384   6.128   0.000  0.00  0.00     0.000 A 
ATOM     21  C   UNL d   1      -0.439   6.197   0.000  0.00  0.00     0.005 A 
ENDBRANCH  14  16
ENDBRANCH  12  13
ENDBRANCH  11  12
ENDBRANCH  10  11
ENDBRANCH   3  10
BRANCH   1  22
ATOM     22  C   UNL d   1      -1.442   1.016   0.000  0.00  0.00     0.018 A 
ATOM     23  C   UNL d   1      -1.300   0.201   0.000  0.00  0.00     0.004 A 
ATOM     24  C   UNL d   1      -0.531  -0.087   0.000  0.00  0.00     0.024 A 
ATOM     25  C   UNL d   1       0.101   0.439   0.000  0.00  0.00     0.094 A 
ATOM     26  C   UNL d   1      -0.037   1.259   0.000  0.00  0.00     0.024 A 
ATOM     27  C   UNL d   1      -0.805   1.547   0.000  0.00  0.00     0.004 A 
BRANCH  25  28
ATOM     28  O   UNL d   1       0.883   0.146   0.000  0.00  0.00    -0.328 OA
ATOM     29  C   UNL d   1       1.524   0.673   0.000  0.00  0.00     0.181 C 
ENDBRANCH  25  28
ENDBRANCH   1  22
TORSDOF 7
