REMARK  5 active torsions:
REMARK  status: ('A' for Active; 'I' for Inactive)
REMARK    1  A    between atoms: C_5  and  N_1 
REMARK    2  A    between atoms: C_8  and  C_2 
REMARK    3  A    between atoms: C_7  and  C_5 
REMARK    4  A    between atoms: N_10  and  C_8 
REMARK       I    between atoms: C_9  and  N_10 
REMARK    5  A    between atoms: C_17  and  C_9 
ROOT
ATOM      1  N   UNL d   1      -2.870   2.192   0.000  0.00  0.00    -0.288 N 
ATOM      2  C   UNL d   1      -2.211   2.687   0.000  0.00  0.00     0.167 A 
ATOM      3  N   UNL d   1      -2.471   3.460   0.000  0.00  0.00    -0.225 NA
ATOM      4  C   UNL d   1      -3.542   2.673   0.000  0.00  0.00     0.083 A 
ATOM      5  C   UNL d   1      -3.291   3.455   0.000  0.00  0.00     0.099 A 
ATOM      6  C   UNL d   1      -4.348   2.494   0.000  0.00  0.00     0.019 A 
ATOM      7  C   UNL d   1      -3.844   4.073   0.000  0.00  0.00     0.021 A 
ATOM      8  C   UNL d   1      -4.897   3.112   0.000  0.00  0.00     0.002 A 
ATOM      9  C   UNL d   1      -4.650   3.895   0.000  0.00  0.00     0.002 A 
ENDROOT
BRANCH   1  10
ATOM     10  C   UNL d   1      -2.856   1.368   0.000  0.00  0.00     0.084 C 
BRANCH  10  11
ATOM     11  C   UNL d   1      -3.556   0.947   0.000  0.00  0.00     0.045 A 
ATOM     12  C   UNL d   1      -4.284   1.355   0.000  0.00  0.00     0.141 A 
ATOM     13  F   UNL d   1      -4.293   2.179   0.000  0.00  0.00    -0.204 F 
ATOM     14  C   UNL d   1      -4.998   0.934   0.000  0.00  0.00     0.030 A 
ATOM     15  C   UNL d   1      -4.993   0.105   0.000  0.00  0.00     0.002 A 
ATOM     16  C   UNL d   1      -4.256  -0.293   0.000  0.00  0.00     0.000 A 
ATOM     17  C   UNL d   1      -3.551   0.124   0.000  0.00  0.00     0.004 A 
ENDBRANCH  10  11
ENDBRANCH   1  10
BRANCH   2  18
ATOM     18  C   UNL d   1      -1.423   2.439   0.000  0.00  0.00     0.140 C 
BRANCH  18  19
ATOM     19  N   UNL d   1      -0.819   3.002   0.000  0.00  0.00    -0.203 NA
ATOM     20  C   UNL d   1      -0.037   2.769   0.000  0.00  0.00     0.279 C 
ATOM     21  O   UNL d   1       0.151   1.963   0.000  0.00  0.00    -0.265 OA
BRANCH  20  22
ATOM     22  C   UNL d   1       0.563   3.323   0.000  0.00  0.00     0.062 C 
ATOM     23  C   UNL d   1       1.336   3.085   0.000  0.00  0.00     0.005 C 
ENDBRANCH  20  22
ENDBRANCH  18  19
ENDBRANCH   2  18
TORSDOF 5
