REMARK  4 active torsions:
REMARK  status: ('A' for Active; 'I' for Inactive)
REMARK    1  A    between atoms: S_10  and  C_6 
REMARK    2  A    between atoms: C_16  and  S_10 
REMARK    3  A    between atoms: C_11  and  C_16 
REMARK       I    between atoms: N_13  and  C_11 
REMARK    4  A    between atoms: C_14  and  N_13 
ROOT
ATOM      1  C   UNL d   1      -2.221   1.306   0.000  0.00  0.00     0.155 A 
ATOM      2  C   UNL d   1      -2.483   2.092   0.000  0.00  0.00     0.107 A 
ATOM      3  N   UNL d   1      -0.865   1.761   0.000  0.00  0.00    -0.250 N 
ATOM      4  C   UNL d   1      -1.416   1.141   0.000  0.00  0.00     0.285 A 
ATOM      5  N   UNL d   1      -1.931   2.713   0.000  0.00  0.00    -0.220 NA
ATOM      6  C   UNL d   1      -1.127   2.538   0.000  0.00  0.00     0.182 A 
ATOM      7  N   UNL d   1      -2.883   0.814   0.000  0.00  0.00    -0.239 NA
ATOM      8  C   UNL d   1      -3.307   2.092   0.000  0.00  0.00     0.037 A 
ATOM      9  C   UNL d   1      -3.559   1.297   0.000  0.00  0.00     0.083 A 
ATOM     10  O   UNL d   1      -1.145   0.354   0.000  0.00  0.00    -0.265 OA
ATOM     11  C   UNL d   1      -0.051   1.596   0.000  0.00  0.00     0.104 C 
ATOM     12  C   UNL d   1      -3.863   2.699   0.000  0.00  0.00     0.003 A 
ATOM     13  C   UNL d   1      -4.369   1.117   0.000  0.00  0.00     0.019 A 
ATOM     14  C   UNL d   1      -4.672   2.520   0.000  0.00  0.00     0.000 A 
ATOM     15  C   UNL d   1      -4.921   1.734   0.000  0.00  0.00     0.002 A 
ENDROOT
BRANCH   6  16
ATOM     16  S   UNL d   1      -0.575   3.155   0.000  0.00  0.00    -0.044 SA
BRANCH  16  17
ATOM     17  C   UNL d   1      -0.828   3.941   0.000  0.00  0.00     0.101 C 
BRANCH  17  18
ATOM     18  C   UNL d   1      -0.276   4.553   0.000  0.00  0.00     0.286 C 
ATOM     19  N   UNL d   1      -0.538   5.330   0.000  0.00  0.00    -0.208 NA
ATOM     20  O   UNL d   1       0.529   4.396   0.000  0.00  0.00    -0.265 OA
BRANCH  19  21
ATOM     21  C   UNL d   1       0.014   5.951   0.000  0.00  0.00     0.085 A 
ATOM     22  C   UNL d   1      -0.248   6.723   0.000  0.00  0.00     0.019 A 
ATOM     23  C   UNL d   1       0.303   7.344   0.000  0.00  0.00     0.002 A 
ATOM     24  C   UNL d   1       0.046   8.144   0.000  0.00  0.00     0.000 C 
ATOM     25  C   UNL d   1       1.108   7.179   0.000  0.00  0.00     0.000 A 
ATOM     26  C   UNL d   1       1.371   6.392   0.000  0.00  0.00     0.002 A 
ATOM     27  C   UNL d   1       0.819   5.785   0.000  0.00  0.00     0.019 A 
ENDBRANCH  19  21
ENDBRANCH  17  18
ENDBRANCH  16  17
ENDBRANCH   6  16
TORSDOF 4
