REMARK  4 active torsions:
REMARK  status: ('A' for Active; 'I' for Inactive)
REMARK    1  A    between atoms: S_9  and  C_3 
REMARK    2  A    between atoms: C_12  and  S_9 
REMARK    3  A    between atoms: C_11  and  C_12 
REMARK    4  A    between atoms: O_16  and  C_11 
ROOT
ATOM      1  C   UNL d   1      -2.218   1.304   0.000  0.00  0.00     0.155 A 
ATOM      2  C   UNL d   1      -2.480   2.090   0.000  0.00  0.00     0.107 A 
ATOM      3  C   UNL d   1      -1.125   2.535   0.000  0.00  0.00     0.182 A 
ATOM      4  N   UNL d   1      -0.863   1.759   0.000  0.00  0.00    -0.250 N 
ATOM      5  N   UNL d   1      -1.929   2.710   0.000  0.00  0.00    -0.220 NA
ATOM      6  C   UNL d   1      -1.415   1.139   0.000  0.00  0.00     0.285 A 
ATOM      7  N   UNL d   1      -2.880   0.813   0.000  0.00  0.00    -0.239 NA
ATOM      8  C   UNL d   1      -3.302   2.090   0.000  0.00  0.00     0.037 A 
ATOM      9  C   UNL d   1      -3.555   1.295   0.000  0.00  0.00     0.083 A 
ATOM     10  O   UNL d   1      -1.144   0.354   0.000  0.00  0.00    -0.265 OA
ATOM     11  C   UNL d   1      -0.051   1.594   0.000  0.00  0.00     0.104 C 
ATOM     12  C   UNL d   1      -3.858   2.696   0.000  0.00  0.00     0.003 A 
ATOM     13  C   UNL d   1      -4.363   1.116   0.000  0.00  0.00     0.019 A 
ATOM     14  C   UNL d   1      -4.666   2.517   0.000  0.00  0.00     0.000 A 
ATOM     15  C   UNL d   1      -4.914   1.731   0.000  0.00  0.00     0.002 A 
ENDROOT
BRANCH   3  16
ATOM     16  S   UNL d   1      -0.574   3.151   0.000  0.00  0.00    -0.044 SA
BRANCH  16  17
ATOM     17  C   UNL d   1      -0.827   3.936   0.000  0.00  0.00     0.095 C 
ATOM     18  C   UNL d   1      -0.276   4.547   0.000  0.00  0.00     0.013 C 
BRANCH  17  19
ATOM     19  C   UNL d   1      -1.635   4.101   0.000  0.00  0.00     0.302 C 
ATOM     20  O   UNL d   1      -1.897   4.868   0.000  0.00  0.00    -0.259 OA
BRANCH  19  21
ATOM     21  O   UNL d   1      -2.186   3.481   0.000  0.00  0.00    -0.295 OA
ATOM     22  C   UNL d   1      -2.999   3.647   0.000  0.00  0.00     0.185 C 
ENDBRANCH  19  21
ENDBRANCH  17  19
ENDBRANCH  16  17
ENDBRANCH   3  16
TORSDOF 4
