REMARK  3 active torsions:
REMARK  status: ('A' for Active; 'I' for Inactive)
REMARK    1  A    between atoms: S_10  and  C_3 
REMARK    2  A    between atoms: C_14  and  S_10 
REMARK    3  A    between atoms: C_16  and  C_14 
ROOT
ATOM      1  C   UNL d   1      -2.215   1.303   0.000  0.00  0.00     0.155 A 
ATOM      2  C   UNL d   1      -2.477   2.087   0.000  0.00  0.00     0.107 A 
ATOM      3  C   UNL d   1      -1.124   2.532   0.000  0.00  0.00     0.182 A 
ATOM      4  N   UNL d   1      -0.862   1.757   0.000  0.00  0.00    -0.250 N 
ATOM      5  N   UNL d   1      -1.926   2.706   0.000  0.00  0.00    -0.220 NA
ATOM      6  C   UNL d   1      -1.413   1.137   0.000  0.00  0.00     0.285 A 
ATOM      7  N   UNL d   1      -2.876   0.812   0.000  0.00  0.00    -0.239 NA
ATOM      8  C   UNL d   1      -3.298   2.087   0.000  0.00  0.00     0.037 A 
ATOM      9  C   UNL d   1      -3.550   1.293   0.000  0.00  0.00     0.083 A 
ATOM     10  O   UNL d   1      -1.142   0.353   0.000  0.00  0.00    -0.265 OA
ATOM     11  C   UNL d   1      -0.050   1.591   0.000  0.00  0.00     0.104 C 
ATOM     12  C   UNL d   1      -3.853   2.692   0.000  0.00  0.00     0.003 A 
ATOM     13  C   UNL d   1      -4.357   1.115   0.000  0.00  0.00     0.019 A 
ATOM     14  C   UNL d   1      -4.660   2.513   0.000  0.00  0.00     0.000 A 
ATOM     15  C   UNL d   1      -4.908   1.729   0.000  0.00  0.00     0.002 A 
ENDROOT
BRANCH   3  16
ATOM     16  S   UNL d   1      -0.573   3.146   0.000  0.00  0.00    -0.050 SA
BRANCH  16  17
ATOM     17  C   UNL d   1      -0.826   3.931   0.000  0.00  0.00     0.032 C 
ATOM     18  C   UNL d   1      -0.275   4.541   0.000  0.00  0.00     0.007 C 
BRANCH  17  19
ATOM     19  C   UNL d   1      -1.633   4.096   0.000  0.00  0.00     0.007 C 
ATOM     20  C   UNL d   1      -2.183   3.477   0.000  0.00  0.00     0.001 C 
ENDBRANCH  17  19
ENDBRANCH  16  17
ENDBRANCH   3  16
TORSDOF 3
