REMARK  7 active torsions:
REMARK  status: ('A' for Active; 'I' for Inactive)
REMARK    1  A    between atoms: C_8  and  C_1 
REMARK    2  A    between atoms: N_7  and  C_2 
REMARK    3  A    between atoms: C_5  and  N_7 
REMARK    4  A    between atoms: N_9  and  C_5 
REMARK    5  A    between atoms: O_14  and  C_8 
REMARK    6  A    between atoms: C_10  and  N_9 
REMARK    7  A    between atoms: C_20  and  O_14 
ROOT
ATOM      1  C   UNL d   1      -2.212   1.026   0.000  0.00  0.00     0.162 A 
ATOM      2  C   UNL d   1      -2.473   1.800   0.000  0.00  0.00     0.108 A 
ATOM      3  N   UNL d   1      -2.872   0.531   0.000  0.00  0.00    -0.239 NA
ATOM      4  C   UNL d   1      -3.293   1.795   0.000  0.00  0.00     0.037 A 
ATOM      5  C   UNL d   1      -3.545   1.012   0.000  0.00  0.00     0.083 A 
ATOM      6  C   UNL d   1      -3.847   2.405   0.000  0.00  0.00     0.003 A 
ATOM      7  C   UNL d   1      -4.351   0.834   0.000  0.00  0.00     0.019 A 
ATOM      8  C   UNL d   1      -4.653   2.235   0.000  0.00  0.00     0.000 A 
ATOM      9  C   UNL d   1      -4.901   1.443   0.000  0.00  0.00     0.002 A 
ENDROOT
BRANCH   2  10
ATOM     10  N   UNL d   1      -1.992   2.482   0.000  0.00  0.00    -0.216 NA
BRANCH  10  11
ATOM     11  C   UNL d   1      -2.345   3.229   0.000  0.00  0.00     0.221 C 
ATOM     12  S   UNL d   1      -3.169   3.307   0.000  0.00  0.00    -0.037 SA
BRANCH  11  13
ATOM     13  N   UNL d   1      -1.864   3.902   0.000  0.00  0.00    -0.217 NA
BRANCH  13  14
ATOM     14  C   UNL d   1      -2.212   4.649   0.000  0.00  0.00     0.084 A 
ATOM     15  C   UNL d   1      -3.037   4.731   0.000  0.00  0.00     0.018 A 
ATOM     16  C   UNL d   1      -3.527   4.049   0.000  0.00  0.00     0.002 C 
ATOM     17  C   UNL d   1      -3.389   5.473   0.000  0.00  0.00     0.002 A 
ATOM     18  C   UNL d   1      -2.908   6.146   0.000  0.00  0.00     0.000 A 
ATOM     19  C   UNL d   1      -2.084   6.078   0.000  0.00  0.00     0.002 A 
ATOM     20  C   UNL d   1      -1.740   5.322   0.000  0.00  0.00     0.019 A 
ENDBRANCH  13  14
ENDBRANCH  11  13
ENDBRANCH  10  11
ENDBRANCH   2  10
BRANCH   1  21
ATOM     21  C   UNL d   1      -1.424   0.779   0.000  0.00  0.00     0.320 C 
ATOM     22  O   UNL d   1      -0.820   1.342   0.000  0.00  0.00    -0.257 OA
BRANCH  21  23
ATOM     23  O   UNL d   1      -1.232  -0.018   0.000  0.00  0.00    -0.270 OA
BRANCH  23  24
ATOM     24  C   UNL d   1      -1.837  -0.582   0.000  0.00  0.00     0.126 C 
ATOM     25  C   UNL d   1      -1.649  -1.379   0.000  0.00  0.00     0.029 C 
ENDBRANCH  23  24
ENDBRANCH  21  23
ENDBRANCH   1  21
TORSDOF 7
