REMARK  8 active torsions:
REMARK  status: ('A' for Active; 'I' for Inactive)
REMARK    1  A    between atoms: C_4  and  C_1 
REMARK    2  A    between atoms: C_11  and  N_3 
REMARK    3  A    between atoms: N_7  and  C_4 
REMARK    4  A    between atoms: C_9  and  C_4 
REMARK       I    between atoms: C_8  and  N_7 
REMARK    5  A    between atoms: C_12  and  C_9 
REMARK    6  A    between atoms: C_18  and  C_11 
REMARK    7  A    between atoms: C_20  and  C_18 
REMARK    8  A    between atoms: C_19  and  C_20 
ROOT
ATOM      1  C   UNL d   1       5.665  -7.603   0.000  0.00  0.00     0.166 A 
ATOM      2  N   UNL d   1       5.411  -6.815   0.000  0.00  0.00    -0.225 NA
ATOM      3  N   UNL d   1       4.999  -8.086   0.000  0.00  0.00    -0.288 N 
ATOM      4  C   UNL d   1       4.328  -7.603   0.000  0.00  0.00     0.083 A 
ATOM      5  C   UNL d   1       4.591  -6.815   0.000  0.00  0.00     0.099 A 
ATOM      6  C   UNL d   1       3.528  -7.777   0.000  0.00  0.00     0.019 A 
ATOM      7  C   UNL d   1       4.041  -6.203   0.000  0.00  0.00     0.021 A 
ATOM      8  C   UNL d   1       2.974  -7.165   0.000  0.00  0.00     0.002 A 
ATOM      9  C   UNL d   1       3.228  -6.374   0.000  0.00  0.00     0.002 A 
ENDROOT
BRANCH   1  10
ATOM     10  C   UNL d   1       6.453  -7.861   0.000  0.00  0.00     0.119 C 
BRANCH  10  11
ATOM     11  N   UNL d   1       7.065  -7.311   0.000  0.00  0.00    -0.205 NA
ATOM     12  C   UNL d   1       6.899  -6.503   0.000  0.00  0.00     0.280 C 
ATOM     13  O   UNL d   1       7.511  -5.953   0.000  0.00  0.00    -0.265 OA
ATOM     14  C   UNL d   1       6.111  -6.240   0.000  0.00  0.00     0.068 C 
ENDBRANCH  10  11
BRANCH  10  15
ATOM     15  C   UNL d   1       6.624  -8.665   0.000  0.00  0.00     0.022 C 
BRANCH  15  16
ATOM     16  C   UNL d   1       7.403  -8.923   0.000  0.00  0.00     0.002 A 
ATOM     17  C   UNL d   1       7.578  -9.727   0.000  0.00  0.00     0.000 A 
ATOM     18  C   UNL d   1       8.361  -9.985   0.000  0.00  0.00     0.000 A 
ATOM     19  C   UNL d   1       8.973  -9.435   0.000  0.00  0.00     0.000 A 
ATOM     20  C   UNL d   1       8.798  -8.623   0.000  0.00  0.00     0.000 A 
ATOM     21  C   UNL d   1       8.015  -8.373   0.000  0.00  0.00     0.000 A 
ENDBRANCH  15  16
ENDBRANCH  10  15
ENDBRANCH   1  10
BRANCH   3  22
ATOM     22  C   UNL d   1       4.999  -8.915   0.000  0.00  0.00     0.082 C 
BRANCH  22  23
ATOM     23  C   UNL d   1       5.715  -9.327   0.000  0.00  0.00     0.019 C 
BRANCH  23  24
ATOM     24  C   UNL d   1       5.724 -10.152   0.000  0.00  0.00     0.002 C 
BRANCH  24  25
ATOM     25  C   UNL d   1       5.003 -10.564   0.000  0.00  0.00     0.000 C 
ATOM     26  C   UNL d   1       5.003 -11.398   0.000  0.00  0.00     0.000 C 
ENDBRANCH  24  25
ENDBRANCH  23  24
ENDBRANCH  22  23
ENDBRANCH   3  22
TORSDOF 8
