REMARK  4 active torsions:
REMARK  status: ('A' for Active; 'I' for Inactive)
REMARK    1  A    between atoms: S_3  and  C_1 
REMARK    2  A    between atoms: C_7  and  S_3 
REMARK    3  A    between atoms: S_11  and  C_4 
REMARK    4  A    between atoms: C_10  and  C_5 
ROOT
ATOM      1  C   UNL d   1      -2.708   2.409   0.000  0.00  0.00     0.199 A 
ATOM      2  N   UNL d   1      -3.532   2.409   0.000  0.00  0.00    -0.208 NA
ATOM      3  C   UNL d   1      -2.455   1.623   0.000  0.00  0.00     0.156 A 
ATOM      4  C   UNL d   1      -3.790   1.623   0.000  0.00  0.00     0.184 A 
ATOM      5  O   UNL d   1      -3.120   1.144   0.000  0.00  0.00    -0.281 OA
ENDROOT
BRANCH   1   6
ATOM      6  S   UNL d   1      -2.230   3.079   0.000  0.00  0.00     0.229 S 
ATOM      7  O   UNL d   1      -2.921   3.520   0.000  0.00  0.00    -0.215 OA
ATOM      8  O   UNL d   1      -1.535   2.642   0.000  0.00  0.00    -0.215 OA
BRANCH   6   9
ATOM      9  C   UNL d   1      -1.743   3.744   0.000  0.00  0.00     0.089 A 
ATOM     10  C   UNL d   1      -2.080   4.497   0.000  0.00  0.00     0.011 A 
ATOM     11  C   UNL d   1      -1.593   5.159   0.000  0.00  0.00     0.001 A 
ATOM     12  C   UNL d   1      -0.774   5.080   0.000  0.00  0.00     0.000 A 
ATOM     13  C   UNL d   1      -0.437   4.323   0.000  0.00  0.00     0.001 A 
ATOM     14  C   UNL d   1      -0.287   5.746   0.000  0.00  0.00     0.000 C 
ATOM     15  C   UNL d   1      -0.919   3.665   0.000  0.00  0.00     0.011 A 
ENDBRANCH   6   9
ENDBRANCH   1   6
BRANCH   3  16
ATOM     16  S   UNL d   1      -1.673   1.369   0.000  0.00  0.00    -0.086 SA
ATOM     17  C   UNL d   1      -1.506   0.562   0.000  0.00  0.00     0.076 C 
ENDBRANCH   3  16
BRANCH   4  18
ATOM     18  C   UNL d   1      -4.577   1.369   0.000  0.00  0.00     0.041 A 
ATOM     19  C   UNL d   1      -4.751   0.557   0.000  0.00  0.00     0.004 A 
ATOM     20  C   UNL d   1      -5.537   0.308   0.000  0.00  0.00     0.000 A 
ATOM     21  C   UNL d   1      -6.141   0.857   0.000  0.00  0.00     0.000 A 
ATOM     22  C   UNL d   1      -5.974   1.668   0.000  0.00  0.00     0.000 A 
ATOM     23  C   UNL d   1      -5.200   1.922   0.000  0.00  0.00     0.004 A 
ENDBRANCH   4  18
TORSDOF 4
