REMARK  6 active torsions:
REMARK  status: ('A' for Active; 'I' for Inactive)
REMARK    1  A    between atoms: S_3  and  C_1 
REMARK    2  A    between atoms: C_11  and  S_3 
REMARK    3  A    between atoms: S_8  and  C_4 
REMARK    4  A    between atoms: C_7  and  C_5 
REMARK    5  A    between atoms: C_16  and  S_8 
REMARK    6  A    between atoms: C_19  and  C_16 
ROOT
ATOM      1  C   UNL d   1      -2.719   2.418   0.000  0.00  0.00     0.200 A 
ATOM      2  N   UNL d   1      -3.546   2.418   0.000  0.00  0.00    -0.206 NA
ATOM      3  C   UNL d   1      -2.464   1.629   0.000  0.00  0.00     0.160 A 
ATOM      4  C   UNL d   1      -3.805   1.629   0.000  0.00  0.00     0.207 A 
ATOM      5  O   UNL d   1      -3.132   1.149   0.000  0.00  0.00    -0.279 OA
ENDROOT
BRANCH   1   6
ATOM      6  S   UNL d   1      -2.239   3.091   0.000  0.00  0.00     0.229 S 
ATOM      7  O   UNL d   1      -2.932   3.534   0.000  0.00  0.00    -0.215 OA
ATOM      8  O   UNL d   1      -1.541   2.652   0.000  0.00  0.00    -0.215 OA
BRANCH   6   9
ATOM      9  C   UNL d   1      -1.750   3.759   0.000  0.00  0.00     0.089 A 
ATOM     10  C   UNL d   1      -0.923   3.680   0.000  0.00  0.00     0.011 A 
ATOM     11  C   UNL d   1      -0.447   4.340   0.000  0.00  0.00     0.001 A 
ATOM     12  C   UNL d   1      -0.785   5.091   0.000  0.00  0.00     0.000 A 
ATOM     13  C   UNL d   1      -1.600   5.179   0.000  0.00  0.00     0.001 A 
ATOM     14  C   UNL d   1      -2.088   4.515   0.000  0.00  0.00     0.011 A 
ENDBRANCH   6   9
ENDBRANCH   1   6
BRANCH   3  15
ATOM     15  S   UNL d   1      -1.679   1.374   0.000  0.00  0.00    -0.060 SA
BRANCH  15  16
ATOM     16  C   UNL d   1      -1.512   0.564   0.000  0.00  0.00     0.037 C 
BRANCH  16  17
ATOM     17  C   UNL d   1      -2.126   0.013   0.000  0.00  0.00     0.006 C 
ATOM     18  C   UNL d   1      -1.950  -0.794   0.000  0.00  0.00     0.001 C 
ATOM     19  C   UNL d   1      -2.907   0.272   0.000  0.00  0.00     0.001 C 
ENDBRANCH  16  17
ENDBRANCH  15  16
ENDBRANCH   3  15
BRANCH   4  20
ATOM     20  C   UNL d   1      -4.594   1.374   0.000  0.00  0.00     0.141 A 
ATOM     21  O   UNL d   1      -4.857   0.585   0.000  0.00  0.00    -0.302 OA
ATOM     22  C   UNL d   1      -5.672   0.585   0.000  0.00  0.00     0.123 A 
ATOM     23  C   UNL d   1      -5.935   1.366   0.000  0.00  0.00     0.029 A 
ATOM     24  C   UNL d   1      -5.271   1.854   0.000  0.00  0.00     0.030 A 
ENDBRANCH   4  20
TORSDOF 6
