REMARK  6 active torsions:
REMARK  status: ('A' for Active; 'I' for Inactive)
REMARK    1  A    between atoms: S_7  and  C_1 
REMARK       I    between atoms: C_6  and  N_9 
REMARK    2  A    between atoms: C_13  and  C_6 
REMARK    3  A    between atoms: C_15  and  S_7 
REMARK    4  A    between atoms: N_9  and  C_16 
REMARK    5  A    between atoms: O_14  and  C_13 
REMARK    6  A    between atoms: C_16  and  C_15 
ROOT
ATOM      1  C   UNL d   1      -2.472   2.083   0.000  0.00  0.00     0.049 A 
ATOM      2  N   UNL d   1      -2.870   0.810   0.000  0.00  0.00    -0.245 NA
ATOM      3  C   UNL d   1      -2.211   1.300   0.000  0.00  0.00     0.087 A 
ATOM      4  C   UNL d   1      -3.291   2.083   0.000  0.00  0.00     0.025 A 
ATOM      5  C   UNL d   1      -3.543   1.291   0.000  0.00  0.00     0.082 A 
ATOM      6  C   UNL d   1      -1.423   1.057   0.000  0.00  0.00     0.021 C 
ATOM      7  C   UNL d   1      -3.845   2.687   0.000  0.00  0.00     0.002 A 
ATOM      8  C   UNL d   1      -4.348   1.112   0.000  0.00  0.00     0.019 A 
ATOM      9  C   UNL d   1      -4.650   2.508   0.000  0.00  0.00     0.000 A 
ATOM     10  C   UNL d   1      -4.897   1.726   0.000  0.00  0.00     0.002 A 
ENDROOT
BRANCH   1  11
ATOM     11  S   UNL d   1      -1.991   2.755   0.000  0.00  0.00    -0.083 SA
BRANCH  11  12
ATOM     12  C   UNL d   1      -2.343   3.510   0.000  0.00  0.00     0.056 C 
BRANCH  12  13
ATOM     13  C   UNL d   1      -1.863   4.183   0.000  0.00  0.00     0.109 C 
BRANCH  13  14
ATOM     14  N   UNL d   1      -2.211   4.920   0.000  0.00  0.00    -0.204 NA
ATOM     15  C   UNL d   1      -1.739   5.593   0.000  0.00  0.00     0.304 C 
ATOM     16  O   UNL d   1      -0.915   5.524   0.000  0.00  0.00    -0.263 OA
BRANCH  15  17
ATOM     17  C   UNL d   1      -2.096   6.348   0.000  0.00  0.00     0.179 C 
BRANCH  17  18
ATOM     18  O   UNL d   1      -1.616   7.021   0.000  0.00  0.00    -0.322 OA
ATOM     19  C   UNL d   1      -1.959   7.776   0.000  0.00  0.00     0.182 C 
ENDBRANCH  17  18
ENDBRANCH  15  17
ENDBRANCH  13  14
ENDBRANCH  12  13
ENDBRANCH  11  12
ENDBRANCH   1  11
TORSDOF 6
