REMARK  5 active torsions:
REMARK  status: ('A' for Active; 'I' for Inactive)
REMARK    1  A    between atoms: S_10  and  C_6 
REMARK    2  A    between atoms: C_15  and  S_10 
REMARK    3  A    between atoms: C_11  and  C_15 
REMARK       I    between atoms: N_13  and  C_11 
REMARK    4  A    between atoms: C_17  and  N_13 
REMARK    5  A    between atoms: O_25  and  C_18 
ROOT
ATOM      1  C   UNL d   1      -2.218   1.304   0.000  0.00  0.00     0.155 A 
ATOM      2  C   UNL d   1      -2.480   2.090   0.000  0.00  0.00     0.107 A 
ATOM      3  N   UNL d   1      -0.863   1.759   0.000  0.00  0.00    -0.250 N 
ATOM      4  C   UNL d   1      -1.415   1.139   0.000  0.00  0.00     0.285 A 
ATOM      5  N   UNL d   1      -1.929   2.710   0.000  0.00  0.00    -0.220 NA
ATOM      6  C   UNL d   1      -1.125   2.535   0.000  0.00  0.00     0.182 A 
ATOM      7  N   UNL d   1      -2.880   0.813   0.000  0.00  0.00    -0.239 NA
ATOM      8  C   UNL d   1      -3.302   2.090   0.000  0.00  0.00     0.037 A 
ATOM      9  C   UNL d   1      -3.555   1.295   0.000  0.00  0.00     0.083 A 
ATOM     10  O   UNL d   1      -1.144   0.354   0.000  0.00  0.00    -0.265 OA
ATOM     11  C   UNL d   1      -0.051   1.594   0.000  0.00  0.00     0.104 C 
ATOM     12  C   UNL d   1      -3.858   2.696   0.000  0.00  0.00     0.003 A 
ATOM     13  C   UNL d   1      -4.363   1.116   0.000  0.00  0.00     0.019 A 
ATOM     14  C   UNL d   1      -4.666   2.517   0.000  0.00  0.00     0.000 A 
ATOM     15  C   UNL d   1      -4.914   1.731   0.000  0.00  0.00     0.002 A 
ENDROOT
BRANCH   6  16
ATOM     16  S   UNL d   1      -0.574   3.151   0.000  0.00  0.00    -0.044 SA
BRANCH  16  17
ATOM     17  C   UNL d   1      -0.827   3.936   0.000  0.00  0.00     0.101 C 
BRANCH  17  18
ATOM     18  C   UNL d   1      -0.276   4.547   0.000  0.00  0.00     0.286 C 
ATOM     19  N   UNL d   1      -0.537   5.323   0.000  0.00  0.00    -0.208 NA
ATOM     20  O   UNL d   1       0.528   4.391   0.000  0.00  0.00    -0.265 OA
BRANCH  19  21
ATOM     21  C   UNL d   1       0.014   5.943   0.000  0.00  0.00     0.085 A 
ATOM     22  C   UNL d   1      -0.243   6.714   0.000  0.00  0.00     0.021 A 
ATOM     23  C   UNL d   1       0.308   7.334   0.000  0.00  0.00     0.026 A 
ATOM     24  C   UNL d   1       1.116   7.169   0.000  0.00  0.00     0.094 A 
ATOM     25  C   UNL d   1       1.369   6.370   0.000  0.00  0.00     0.026 A 
ATOM     26  C   UNL d   1       0.818   5.764   0.000  0.00  0.00     0.021 A 
BRANCH  24  27
ATOM     27  O   UNL d   1       1.658   7.798   0.000  0.00  0.00    -0.328 OA
ATOM     28  C   UNL d   1       1.392   8.574   0.000  0.00  0.00     0.181 C 
ENDBRANCH  24  27
ENDBRANCH  19  21
ENDBRANCH  17  18
ENDBRANCH  16  17
ENDBRANCH   6  16
TORSDOF 5
