REMARK  1 active torsions:
REMARK  status: ('A' for Active; 'I' for Inactive)
REMARK    1  A    between atoms: C_7  and  C_2 
ROOT
ATOM      1  C   UNL d   1      -3.472   2.730   0.000  0.00  0.00     0.074 A 
ATOM      2  C   UNL d   1      -2.758   3.142   0.000  0.00  0.00     0.088 A 
ATOM      3  C   UNL d   1      -3.472   1.906   0.000  0.00  0.00     0.088 A 
ATOM      4  C   UNL d   1      -2.043   1.906   0.000  0.00  0.00     0.221 A 
ATOM      5  N   UNL d   1      -2.758   1.493   0.000  0.00  0.00    -0.217 NA
ATOM      6  N   UNL d   1      -2.043   2.730   0.000  0.00  0.00    -0.217 NA
ATOM      7  C   UNL d   1      -4.178   3.142   0.000  0.00  0.00     0.199 A 
ATOM      8  S   UNL d   1      -1.328   1.493   0.000  0.00  0.00    -0.037 SA
ATOM      9  O   UNL d   1      -4.178   3.967   0.000  0.00  0.00    -0.286 OA
ATOM     10  C   UNL d   1      -4.178   1.493   0.000  0.00  0.00     0.019 A 
ATOM     11  C   UNL d   1      -4.901   2.730   0.000  0.00  0.00     0.042 A 
ATOM     12  C   UNL d   1      -4.901   1.906   0.000  0.00  0.00     0.005 A 
ENDROOT
BRANCH   2  13
ATOM     13  C   UNL d   1      -2.758   3.967   0.000  0.00  0.00     0.021 A 
ATOM     14  C   UNL d   1      -2.043   4.379   0.000  0.00  0.00     0.043 A 
ATOM     15  C   UNL d   1      -2.043   5.199   0.000  0.00  0.00     0.196 A 
ATOM     16  O   UNL d   1      -1.328   5.612   0.000  0.00  0.00    -0.287 OA
ATOM     17  C   UNL d   1      -2.758   5.612   0.000  0.00  0.00     0.042 A 
ATOM     18  C   UNL d   1      -3.472   5.199   0.000  0.00  0.00     0.003 A 
ATOM     19  C   UNL d   1      -3.472   4.379   0.000  0.00  0.00     0.002 A 
ENDBRANCH   2  13
TORSDOF 1
