REMARK  7 active torsions:
REMARK  status: ('A' for Active; 'I' for Inactive)
REMARK    1  A    between atoms: C_8  and  C_1 
REMARK    2  A    between atoms: N_7  and  C_2 
REMARK    3  A    between atoms: C_5  and  N_7 
REMARK    4  A    between atoms: N_9  and  C_5 
REMARK    5  A    between atoms: O_12  and  C_8 
REMARK    6  A    between atoms: C_13  and  N_9 
REMARK    7  A    between atoms: C_16  and  O_12 
ROOT
ATOM      1  C   UNL d   1      -2.216   1.028   0.000  0.00  0.00     0.162 A 
ATOM      2  C   UNL d   1      -2.477   1.803   0.000  0.00  0.00     0.108 A 
ATOM      3  N   UNL d   1      -2.876   0.532   0.000  0.00  0.00    -0.239 NA
ATOM      4  C   UNL d   1      -3.298   1.798   0.000  0.00  0.00     0.037 A 
ATOM      5  C   UNL d   1      -3.550   1.014   0.000  0.00  0.00     0.083 A 
ATOM      6  C   UNL d   1      -3.853   2.408   0.000  0.00  0.00     0.003 A 
ATOM      7  C   UNL d   1      -4.358   0.835   0.000  0.00  0.00     0.019 A 
ATOM      8  C   UNL d   1      -4.660   2.239   0.000  0.00  0.00     0.000 A 
ATOM      9  C   UNL d   1      -4.908   1.445   0.000  0.00  0.00     0.002 A 
ENDROOT
BRANCH   2  10
ATOM     10  N   UNL d   1      -1.995   2.486   0.000  0.00  0.00    -0.216 NA
BRANCH  10  11
ATOM     11  C   UNL d   1      -2.349   3.234   0.000  0.00  0.00     0.221 C 
ATOM     12  S   UNL d   1      -3.174   3.312   0.000  0.00  0.00    -0.037 SA
BRANCH  11  13
ATOM     13  N   UNL d   1      -1.867   3.908   0.000  0.00  0.00    -0.217 NA
BRANCH  13  14
ATOM     14  C   UNL d   1      -2.216   4.656   0.000  0.00  0.00     0.084 A 
ATOM     15  C   UNL d   1      -1.743   5.330   0.000  0.00  0.00     0.019 A 
ATOM     16  C   UNL d   1      -2.087   6.087   0.000  0.00  0.00     0.002 A 
ATOM     17  C   UNL d   1      -2.913   6.156   0.000  0.00  0.00     0.000 A 
ATOM     18  C   UNL d   1      -3.394   5.482   0.000  0.00  0.00     0.002 A 
ATOM     19  C   UNL d   1      -3.041   4.739   0.000  0.00  0.00     0.019 A 
ENDBRANCH  13  14
ENDBRANCH  11  13
ENDBRANCH  10  11
ENDBRANCH   2  10
BRANCH   1  20
ATOM     20  C   UNL d   1      -1.427   0.780   0.000  0.00  0.00     0.320 C 
ATOM     21  O   UNL d   1      -0.821   1.344   0.000  0.00  0.00    -0.257 OA
BRANCH  20  22
ATOM     22  O   UNL d   1      -1.234  -0.018   0.000  0.00  0.00    -0.270 OA
BRANCH  22  23
ATOM     23  C   UNL d   1      -1.839  -0.583   0.000  0.00  0.00     0.126 C 
ATOM     24  C   UNL d   1      -1.651  -1.381   0.000  0.00  0.00     0.029 C 
ENDBRANCH  22  23
ENDBRANCH  20  22
ENDBRANCH   1  20
TORSDOF 7
