REMARK  6 active torsions:
REMARK  status: ('A' for Active; 'I' for Inactive)
REMARK    1  A    between atoms: S_4  and  C_1 
REMARK    2  A    between atoms: C_9  and  N_2 
REMARK    3  A    between atoms: C_11  and  S_4 
REMARK    4  A    between atoms: C_6  and  C_11 
REMARK       I    between atoms: N_8  and  C_6 
REMARK    5  A    between atoms: C_12  and  N_8 
REMARK    6  A    between atoms: O_18  and  C_13 
ROOT
ATOM      1  S   UNL d   1      -2.869   2.998   0.000  0.00  0.00    -0.044 SA
ENDROOT
BRANCH   1   2
ATOM      2  C   UNL d   1      -3.667   3.217   0.000  0.00  0.00     0.180 A 
ATOM      3  N   UNL d   1      -4.304   2.704   0.000  0.00  0.00    -0.284 N 
ATOM      4  C   UNL d   1      -4.991   3.163   0.000  0.00  0.00     0.103 A 
ATOM      5  C   UNL d   1      -4.767   3.969   0.000  0.00  0.00     0.120 A 
ATOM      6  N   UNL d   1      -3.955   3.987   0.000  0.00  0.00    -0.219 NA
BRANCH   3   7
ATOM      7  C   UNL d   1      -4.304   1.879   0.000  0.00  0.00     0.066 A 
ATOM      8  C   UNL d   1      -3.598   1.467   0.000  0.00  0.00     0.018 A 
ATOM      9  C   UNL d   1      -3.598   0.642   0.000  0.00  0.00     0.002 A 
ATOM     10  C   UNL d   1      -4.304   0.229   0.000  0.00  0.00     0.000 A 
ATOM     11  C   UNL d   1      -5.019   0.642   0.000  0.00  0.00     0.002 A 
ATOM     12  C   UNL d   1      -5.019   1.467   0.000  0.00  0.00     0.018 A 
ENDBRANCH   3   7
ENDBRANCH   1   2
BRANCH   1  13
ATOM     13  C   UNL d   1      -2.278   3.575   0.000  0.00  0.00     0.101 C 
BRANCH  13  14
ATOM     14  C   UNL d   1      -1.494   3.364   0.000  0.00  0.00     0.286 C 
ATOM     15  N   UNL d   1      -0.917   3.942   0.000  0.00  0.00    -0.208 NA
ATOM     16  O   UNL d   1      -1.288   2.567   0.000  0.00  0.00    -0.265 OA
BRANCH  15  17
ATOM     17  C   UNL d   1      -0.124   3.735   0.000  0.00  0.00     0.085 A 
ATOM     18  C   UNL d   1       0.096   2.938   0.000  0.00  0.00     0.021 A 
ATOM     19  C   UNL d   1       0.894   2.723   0.000  0.00  0.00     0.026 A 
ATOM     20  C   UNL d   1       1.471   3.309   0.000  0.00  0.00     0.094 A 
ATOM     21  C   UNL d   1       1.238   4.107   0.000  0.00  0.00     0.026 A 
ATOM     22  C   UNL d   1       0.454   4.313   0.000  0.00  0.00     0.021 A 
BRANCH  20  23
ATOM     23  O   UNL d   1       2.273   3.089   0.000  0.00  0.00    -0.328 OA
ATOM     24  C   UNL d   1       2.851   3.680   0.000  0.00  0.00     0.181 C 
ENDBRANCH  20  23
ENDBRANCH  15  17
ENDBRANCH  13  14
ENDBRANCH   1  13
TORSDOF 6
