REMARK  7 active torsions:
REMARK  status: ('A' for Active; 'I' for Inactive)
REMARK    1  A    between atoms: S_6  and  C_1 
REMARK    2  A    between atoms: C_12  and  N_2 
REMARK       I    between atoms: N_4  and  C_8 
REMARK    3  A    between atoms: C_5  and  N_4 
REMARK    4  A    between atoms: C_15  and  S_6 
REMARK    5  A    between atoms: O_18  and  C_7 
REMARK    6  A    between atoms: C_8  and  C_15 
REMARK    7  A    between atoms: O_19  and  C_16 
ROOT
ATOM      1  N   UNL d   1      -0.917   3.942   0.000  0.00  0.00    -0.206 NA
ATOM      2  C   UNL d   1      -1.494   3.364   0.000  0.00  0.00     0.286 C 
ATOM      3  O   UNL d   1      -1.288   2.567   0.000  0.00  0.00    -0.265 OA
ENDROOT
BRANCH   2   4
ATOM      4  C   UNL d   1      -2.278   3.575   0.000  0.00  0.00     0.101 C 
BRANCH   4   5
ATOM      5  S   UNL d   1      -2.869   2.998   0.000  0.00  0.00    -0.044 SA
BRANCH   5   6
ATOM      6  C   UNL d   1      -3.667   3.218   0.000  0.00  0.00     0.180 A 
ATOM      7  N   UNL d   1      -4.304   2.704   0.000  0.00  0.00    -0.284 N 
ATOM      8  C   UNL d   1      -4.992   3.163   0.000  0.00  0.00     0.103 A 
ATOM      9  C   UNL d   1      -4.767   3.969   0.000  0.00  0.00     0.120 A 
ATOM     10  N   UNL d   1      -3.956   3.988   0.000  0.00  0.00    -0.219 NA
BRANCH   7  11
ATOM     11  C   UNL d   1      -4.304   1.879   0.000  0.00  0.00     0.066 A 
ATOM     12  C   UNL d   1      -5.019   1.467   0.000  0.00  0.00     0.018 A 
ATOM     13  C   UNL d   1      -5.019   0.642   0.000  0.00  0.00     0.002 A 
ATOM     14  C   UNL d   1      -4.304   0.229   0.000  0.00  0.00     0.000 A 
ATOM     15  C   UNL d   1      -3.598   0.642   0.000  0.00  0.00     0.002 A 
ATOM     16  C   UNL d   1      -3.598   1.467   0.000  0.00  0.00     0.018 A 
ENDBRANCH   7  11
ENDBRANCH   5   6
ENDBRANCH   4   5
ENDBRANCH   2   4
BRANCH   1  17
ATOM     17  C   UNL d   1      -0.124   3.736   0.000  0.00  0.00     0.107 A 
ATOM     18  C   UNL d   1       0.454   4.313   0.000  0.00  0.00     0.114 A 
ATOM     19  C   UNL d   1       1.242   4.107   0.000  0.00  0.00     0.050 A 
ATOM     20  C   UNL d   1       1.462   3.309   0.000  0.00  0.00     0.096 A 
ATOM     21  C   UNL d   1       0.880   2.718   0.000  0.00  0.00     0.026 A 
ATOM     22  C   UNL d   1       0.087   2.938   0.000  0.00  0.00     0.023 A 
BRANCH  18  23
ATOM     23  O   UNL d   1       0.247   5.106   0.000  0.00  0.00    -0.327 OA
ATOM     24  C   UNL d   1      -0.559   5.326   0.000  0.00  0.00     0.181 C 
ENDBRANCH  18  23
BRANCH  20  25
ATOM     25  O   UNL d   1       2.269   3.103   0.000  0.00  0.00    -0.328 OA
ATOM     26  C   UNL d   1       2.846   3.699   0.000  0.00  0.00     0.181 C 
ENDBRANCH  20  25
ENDBRANCH   1  17
TORSDOF 7
