REMARK  4 active torsions:
REMARK  status: ('A' for Active; 'I' for Inactive)
REMARK    1  A    between atoms: C_10  and  C_3 
REMARK    2  A    between atoms: S_8  and  C_4 
REMARK       I    between atoms: N_6  and  C_7 
REMARK    3  A    between atoms: C_7  and  C_9 
REMARK    4  A    between atoms: C_9  and  S_8 
ROOT
ATOM      1  O   UNL d   1      -3.680   3.800   0.000  0.00  0.00    -0.263 OA
ATOM      2  N   UNL d   1      -4.586   2.821   0.000  0.00  0.00    -0.120 NA
ATOM      3  C   UNL d   1      -4.489   3.634   0.000  0.00  0.00     0.205 A 
ATOM      4  C   UNL d   1      -3.276   3.083   0.000  0.00  0.00     0.236 A 
ATOM      5  N   UNL d   1      -3.832   2.477   0.000  0.00  0.00    -0.114 NA
ENDROOT
BRANCH   4   6
ATOM      6  S   UNL d   1      -2.449   2.987   0.000  0.00  0.00    -0.036 SA
BRANCH   6   7
ATOM      7  C   UNL d   1      -2.123   2.228   0.000  0.00  0.00     0.100 C 
BRANCH   7   8
ATOM      8  C   UNL d   1      -1.305   2.118   0.000  0.00  0.00     0.272 C 
ATOM      9  N   UNL d   1      -0.988   1.360   0.000  0.00  0.00    -0.272 N 
ATOM     10  C   UNL d   1      -1.484   0.698   0.000  0.00  0.00     0.083 A 
ATOM     11  C   UNL d   1      -0.161   1.264   0.000  0.00  0.00     0.083 A 
ATOM     12  C   UNL d   1      -1.153  -0.060   0.000  0.00  0.00     0.019 A 
ATOM     13  C   UNL d   1      -0.340  -0.156   0.000  0.00  0.00     0.003 A 
ATOM     14  C   UNL d   1       0.156   0.496   0.000  0.00  0.00     0.019 A 
ATOM     15  O   UNL d   1      -0.809   2.780   0.000  0.00  0.00    -0.266 OA
ENDBRANCH   7   8
ENDBRANCH   6   7
ENDBRANCH   4   6
BRANCH   3  16
ATOM     16  C   UNL d   1      -5.068   4.213   0.000  0.00  0.00     0.043 A 
ATOM     17  C   UNL d   1      -4.848   5.008   0.000  0.00  0.00     0.004 A 
ATOM     18  C   UNL d   1      -5.426   5.596   0.000  0.00  0.00     0.000 A 
ATOM     19  C   UNL d   1      -6.226   5.376   0.000  0.00  0.00     0.000 A 
ATOM     20  C   UNL d   1      -6.447   4.581   0.000  0.00  0.00     0.000 A 
ATOM     21  C   UNL d   1      -5.858   4.007   0.000  0.00  0.00     0.004 A 
ENDBRANCH   3  16
TORSDOF 4
