REMARK  3 active torsions:
REMARK  status: ('A' for Active; 'I' for Inactive)
REMARK       I    between atoms: N_3  and  C_8 
REMARK    1  A    between atoms: S_12  and  C_6 
REMARK    2  A    between atoms: C_8  and  C_14 
REMARK    3  A    between atoms: C_14  and  S_12 
ROOT
ATOM      1  S   UNL d   1       0.142   0.781   0.000  0.00  0.00    -0.060 SA
ENDROOT
BRANCH   1   2
ATOM      2  C   UNL d   1      -0.414   0.175   0.000  0.00  0.00     0.137 A 
ATOM      3  C   UNL d   1      -0.175  -0.607   0.000  0.00  0.00     0.141 A 
ATOM      4  O   UNL d   1       0.570  -0.956   0.000  0.00  0.00    -0.303 OA
ATOM      5  C   UNL d   1      -0.740  -1.204   0.000  0.00  0.00     0.110 A 
ATOM      6  C   UNL d   1       0.460  -1.769   0.000  0.00  0.00     0.102 A 
ATOM      7  C   UNL d   1       0.997  -2.404   0.000  0.00  0.00     0.025 A 
ATOM      8  C   UNL d   1      -0.345  -1.921   0.000  0.00  0.00     0.043 A 
ATOM      9  C   UNL d   1       0.722  -3.176   0.000  0.00  0.00     0.002 A 
ATOM     10  C   UNL d   1      -0.083  -3.327   0.000  0.00  0.00     0.000 A 
ATOM     11  C   UNL d   1      -0.620  -2.702   0.000  0.00  0.00     0.004 A 
ATOM     12  N   UNL d   1      -1.540  -1.020   0.000  0.00  0.00    -0.222 NA
ATOM     13  C   UNL d   1      -1.778  -0.239   0.000  0.00  0.00     0.200 A 
ATOM     14  N   UNL d   1      -1.222   0.368   0.000  0.00  0.00    -0.215 NA
ENDBRANCH   1   2
BRANCH   1  15
ATOM     15  C   UNL d   1      -0.097   1.558   0.000  0.00  0.00     0.098 C 
BRANCH  15  16
ATOM     16  C   UNL d   1       0.460   2.174   0.000  0.00  0.00     0.271 C 
ATOM     17  N   UNL d   1       0.211   2.964   0.000  0.00  0.00    -0.273 N 
ATOM     18  C   UNL d   1      -0.588   3.143   0.000  0.00  0.00     0.067 A 
ATOM     19  C   UNL d   1       0.772   3.580   0.000  0.00  0.00     0.083 A 
ATOM     20  C   UNL d   1      -0.841   3.929   0.000  0.00  0.00     0.016 A 
ATOM     21  C   UNL d   1      -1.144   2.532   0.000  0.00  0.00     0.018 A 
ATOM     22  C   UNL d   1      -1.650   4.118   0.000  0.00  0.00     0.001 A 
ATOM     23  C   UNL d   1      -0.285   4.540   0.000  0.00  0.00     0.003 A 
ATOM     24  C   UNL d   1      -2.201   3.497   0.000  0.00  0.00     0.000 A 
ATOM     25  C   UNL d   1      -1.953   2.711   0.000  0.00  0.00     0.002 A 
ATOM     26  C   UNL d   1       0.515   4.366   0.000  0.00  0.00     0.019 A 
ATOM     27  O   UNL d   1       1.268   1.994   0.000  0.00  0.00    -0.266 OA
ENDBRANCH  15  16
ENDBRANCH   1  15
TORSDOF 3
