REMARK  3 active torsions:
REMARK  status: ('A' for Active; 'I' for Inactive)
REMARK    1  A    between atoms: S_10  and  C_6 
REMARK    2  A    between atoms: C_13  and  S_10 
REMARK    3  A    between atoms: C_14  and  C_13 
ROOT
ATOM      1  C   UNL d   1      -2.218   2.655   0.000  0.00  0.00     0.141 A 
ATOM      2  O   UNL d   1      -2.880   2.163   0.000  0.00  0.00    -0.303 OA
ATOM      3  C   UNL d   1      -2.480   3.440   0.000  0.00  0.00     0.110 A 
ATOM      4  C   UNL d   1      -3.302   3.431   0.000  0.00  0.00     0.043 A 
ATOM      5  C   UNL d   1      -3.555   2.645   0.000  0.00  0.00     0.102 A 
ATOM      6  C   UNL d   1      -1.415   2.489   0.000  0.00  0.00     0.137 A 
ATOM      7  N   UNL d   1      -0.863   3.109   0.000  0.00  0.00    -0.215 NA
ATOM      8  N   UNL d   1      -1.929   4.051   0.000  0.00  0.00    -0.222 NA
ATOM      9  C   UNL d   1      -1.125   3.885   0.000  0.00  0.00     0.200 A 
ATOM     10  C   UNL d   1      -3.858   4.046   0.000  0.00  0.00     0.004 A 
ATOM     11  C   UNL d   1      -4.363   2.466   0.000  0.00  0.00     0.025 A 
ATOM     12  C   UNL d   1      -4.666   3.867   0.000  0.00  0.00     0.000 A 
ATOM     13  C   UNL d   1      -4.914   3.082   0.000  0.00  0.00     0.002 A 
ENDROOT
BRANCH   6  14
ATOM     14  S   UNL d   1      -1.144   1.704   0.000  0.00  0.00    -0.065 SA
BRANCH  14  15
ATOM     15  C   UNL d   1      -1.690   1.084   0.000  0.00  0.00     0.037 C 
BRANCH  15  16
ATOM     16  C   UNL d   1      -1.428   0.303   0.000  0.00  0.00     0.007 C 
ATOM     17  C   UNL d   1      -1.980  -0.308   0.000  0.00  0.00     0.001 C 
ENDBRANCH  15  16
ENDBRANCH  14  15
ENDBRANCH   6  14
TORSDOF 3
