REMARK  4 active torsions:
REMARK  status: ('A' for Active; 'I' for Inactive)
REMARK    1  A    between atoms: S_12  and  C_5 
REMARK       I    between atoms: N_7  and  C_9 
REMARK    2  A    between atoms: C_19  and  N_8 
REMARK    3  A    between atoms: C_9  and  C_14 
REMARK    4  A    between atoms: C_14  and  S_12 
ROOT
ATOM      1  C   UNL d   1      -1.693   1.086   0.000  0.00  0.00     0.098 C 
ENDROOT
BRANCH   1   2
ATOM      2  C   UNL d   1      -1.431   0.304   0.000  0.00  0.00     0.272 C 
ATOM      3  N   UNL d   1      -0.621   0.138   0.000  0.00  0.00    -0.269 N 
ATOM      4  C   UNL d   1      -0.078   0.755   0.000  0.00  0.00     0.102 A 
ATOM      5  C   UNL d   1      -0.359  -0.640   0.000  0.00  0.00     0.102 A 
ATOM      6  C   UNL d   1       0.732   0.589   0.000  0.00  0.00     0.100 A 
ATOM      7  N   UNL d   1       0.994  -0.193   0.000  0.00  0.00    -0.301 N 
ATOM      8  C   UNL d   1       0.446  -0.805   0.000  0.00  0.00     0.100 A 
ATOM      9  O   UNL d   1      -1.983  -0.308   0.000  0.00  0.00    -0.266 OA
BRANCH   7  10
ATOM     10  C   UNL d   1       1.799  -0.359   0.000  0.00  0.00     0.064 A 
ATOM     11  C   UNL d   1       2.062  -1.137   0.000  0.00  0.00     0.018 A 
ATOM     12  C   UNL d   1       2.871  -1.302   0.000  0.00  0.00     0.002 A 
ATOM     13  C   UNL d   1       3.414  -0.690   0.000  0.00  0.00     0.000 A 
ATOM     14  C   UNL d   1       3.152   0.092   0.000  0.00  0.00     0.002 A 
ATOM     15  C   UNL d   1       2.347   0.258   0.000  0.00  0.00     0.018 A 
ENDBRANCH   7  10
ENDBRANCH   1   2
BRANCH   1  16
ATOM     16  S   UNL d   1      -1.146   1.707   0.000  0.00  0.00    -0.060 SA
BRANCH  16  17
ATOM     17  C   UNL d   1      -1.417   2.494   0.000  0.00  0.00     0.137 A 
ATOM     18  C   UNL d   1      -2.223   2.660   0.000  0.00  0.00     0.141 A 
ATOM     19  O   UNL d   1      -2.885   2.167   0.000  0.00  0.00    -0.303 OA
ATOM     20  C   UNL d   1      -2.485   3.446   0.000  0.00  0.00     0.110 A 
ATOM     21  C   UNL d   1      -3.562   2.650   0.000  0.00  0.00     0.102 A 
ATOM     22  C   UNL d   1      -4.371   2.471   0.000  0.00  0.00     0.025 A 
ATOM     23  C   UNL d   1      -3.308   3.437   0.000  0.00  0.00     0.043 A 
ATOM     24  C   UNL d   1      -4.923   3.087   0.000  0.00  0.00     0.002 A 
ATOM     25  C   UNL d   1      -4.675   3.874   0.000  0.00  0.00     0.000 A 
ATOM     26  C   UNL d   1      -3.865   4.054   0.000  0.00  0.00     0.004 A 
ATOM     27  N   UNL d   1      -1.933   4.058   0.000  0.00  0.00    -0.222 NA
ATOM     28  C   UNL d   1      -1.127   3.893   0.000  0.00  0.00     0.200 A 
ATOM     29  N   UNL d   1      -0.865   3.115   0.000  0.00  0.00    -0.215 NA
ENDBRANCH  16  17
ENDBRANCH   1  16
TORSDOF 4
