REMARK  5 active torsions:
REMARK  status: ('A' for Active; 'I' for Inactive)
REMARK    1  A    between atoms: C_15  and  C_3 
REMARK    2  A    between atoms: S_9  and  C_4 
REMARK       I    between atoms: N_6  and  C_8 
REMARK    3  A    between atoms: C_16  and  N_7 
REMARK    4  A    between atoms: C_8  and  C_14 
REMARK    5  A    between atoms: C_14  and  S_9 
ROOT
ATOM      1  N   UNL d   1      -2.112   0.160   0.000  0.00  0.00    -0.269 N 
ATOM      2  N   UNL d   1      -2.043  -1.489   0.000  0.00  0.00    -0.301 N 
ATOM      3  C   UNL d   1      -2.153   0.990   0.000  0.00  0.00     0.272 C 
ATOM      4  C   UNL d   1      -2.804  -0.289   0.000  0.00  0.00     0.102 A 
ATOM      5  C   UNL d   1      -1.384  -0.220   0.000  0.00  0.00     0.102 A 
ATOM      6  C   UNL d   1      -1.342  -1.049   0.000  0.00  0.00     0.100 A 
ATOM      7  C   UNL d   1      -2.772  -1.113   0.000  0.00  0.00     0.100 A 
ATOM      8  O   UNL d   1      -1.466   1.439   0.000  0.00  0.00    -0.266 OA
ENDROOT
BRANCH   3   9
ATOM      9  C   UNL d   1      -2.887   1.361   0.000  0.00  0.00     0.100 C 
BRANCH   9  10
ATOM     10  S   UNL d   1      -2.937   2.186   0.000  0.00  0.00    -0.036 SA
BRANCH  10  11
ATOM     11  C   UNL d   1      -3.679   2.566   0.000  0.00  0.00     0.236 A 
ATOM     12  O   UNL d   1      -3.821   3.368   0.000  0.00  0.00    -0.263 OA
ATOM     13  C   UNL d   1      -4.641   3.487   0.000  0.00  0.00     0.205 A 
ATOM     14  N   UNL d   1      -4.999   2.749   0.000  0.00  0.00    -0.120 NA
ATOM     15  N   UNL d   1      -4.399   2.172   0.000  0.00  0.00    -0.114 NA
BRANCH  13  16
ATOM     16  C   UNL d   1      -5.054   4.202   0.000  0.00  0.00     0.043 A 
ATOM     17  C   UNL d   1      -4.641   4.912   0.000  0.00  0.00     0.004 A 
ATOM     18  C   UNL d   1      -5.054   5.627   0.000  0.00  0.00     0.000 A 
ATOM     19  C   UNL d   1      -5.878   5.627   0.000  0.00  0.00     0.000 A 
ATOM     20  C   UNL d   1      -6.291   4.912   0.000  0.00  0.00     0.000 A 
ATOM     21  C   UNL d   1      -5.878   4.202   0.000  0.00  0.00     0.004 A 
ENDBRANCH  13  16
ENDBRANCH  10  11
ENDBRANCH   9  10
ENDBRANCH   3   9
BRANCH   2  22
ATOM     22  C   UNL d   1      -2.002  -2.314   0.000  0.00  0.00     0.064 A 
ATOM     23  C   UNL d   1      -2.694  -2.754   0.000  0.00  0.00     0.018 A 
ATOM     24  C   UNL d   1      -2.662  -3.588   0.000  0.00  0.00     0.002 A 
ATOM     25  C   UNL d   1      -1.933  -3.963   0.000  0.00  0.00     0.000 A 
ATOM     26  C   UNL d   1      -1.232  -3.523   0.000  0.00  0.00     0.002 A 
ATOM     27  C   UNL d   1      -1.274  -2.694   0.000  0.00  0.00     0.018 A 
ENDBRANCH   2  22
TORSDOF 5
