REMARK  5 active torsions:
REMARK  status: ('A' for Active; 'I' for Inactive)
REMARK    1  A    between atoms: S_3  and  C_17 
REMARK    2  A    between atoms: N_11  and  S_3 
REMARK    3  A    between atoms: C_13  and  C_10 
REMARK    4  A    between atoms: C_12  and  N_11 
REMARK       I    between atoms: N_19  and  C_13 
REMARK    5  A    between atoms: C_31  and  N_19 
ROOT
ATOM      1  C   UNL d   1       8.041  -8.062   0.000  0.00  0.00     0.105 A 
ATOM      2  C   UNL d   1       7.623  -8.728   0.000  0.00  0.00     0.015 A 
ATOM      3  C   UNL d   1       7.665  -7.346   0.000  0.00  0.00     0.015 A 
ATOM      4  C   UNL d   1       6.471  -8.004   0.000  0.00  0.00     0.085 A 
ATOM      5  C   UNL d   1       6.886  -7.338   0.000  0.00  0.00     0.020 A 
ATOM      6  C   UNL d   1       6.811  -8.703   0.000  0.00  0.00     0.020 A 
ENDROOT
BRANCH   4   7
ATOM      7  N   UNL d   1       5.701  -8.004   0.000  0.00  0.00    -0.208 NA
ATOM      8  C   UNL d   1       5.287  -7.284   0.000  0.00  0.00     0.285 C 
ATOM      9  O   UNL d   1       5.705  -6.559   0.000  0.00  0.00    -0.265 OA
BRANCH   8  10
ATOM     10  C   UNL d   1       4.450  -7.275   0.000  0.00  0.00     0.089 A 
ATOM     11  C   UNL d   1       3.968  -6.605   0.000  0.00  0.00     0.018 A 
ATOM     12  C   UNL d   1       3.169  -6.861   0.000  0.00  0.00     0.081 A 
ATOM     13  C   UNL d   1       3.169  -7.698   0.000  0.00  0.00     0.117 A 
ATOM     14  C   UNL d   1       2.453  -6.442   0.000  0.00  0.00     0.268 A 
ATOM     15  N   UNL d   1       2.449  -8.104   0.000  0.00  0.00    -0.221 NA
ATOM     16  S   UNL d   1       3.960  -7.953   0.000  0.00  0.00    -0.063 SA
ATOM     17  C   UNL d   1       1.725  -7.690   0.000  0.00  0.00     0.151 A 
ATOM     18  N   UNL d   1       1.733  -6.861   0.000  0.00  0.00    -0.258 N 
ATOM     19  C   UNL d   1       1.009  -8.100   0.000  0.00  0.00     0.038 A 
ATOM     20  C   UNL d   1       1.009  -6.434   0.000  0.00  0.00     0.084 A 
ATOM     21  C   UNL d   1       0.293  -6.861   0.000  0.00  0.00     0.019 A 
ATOM     22  C   UNL d   1       0.293  -7.690   0.000  0.00  0.00     0.005 A 
ATOM     23  O   UNL d   1       2.453  -5.605   0.000  0.00  0.00    -0.267 OA
ENDBRANCH   8  10
ENDBRANCH   4   7
BRANCH   1  24
ATOM     24  S   UNL d   1       8.795  -8.100   0.000  0.00  0.00     0.287 S 
ATOM     25  O   UNL d   1       9.745  -7.598   0.000  0.00  0.00    -0.198 OA
ATOM     26  O   UNL d   1       8.820  -7.020   0.000  0.00  0.00    -0.198 OA
BRANCH  24  27
ATOM     27  N   UNL d   1       9.272  -8.983   0.000  0.00  0.00    -0.139 NA
BRANCH  27  28
ATOM     28  C   UNL d   1      10.046  -8.996   0.000  0.00  0.00     0.178 A 
ATOM     29  N   UNL d   1      10.402  -9.737   0.000  0.00  0.00    -0.207 NA
ATOM     30  C   UNL d   1      11.218  -9.737   0.000  0.00  0.00     0.164 A 
ATOM     31  C   UNL d   1      11.557 -10.415   0.000  0.00  0.00     0.042 C 
ATOM     32  N   UNL d   1      11.671  -9.029   0.000  0.00  0.00    -0.227 NA
ATOM     33  C   UNL d   1      11.302  -8.301   0.000  0.00  0.00     0.086 A 
ATOM     34  C   UNL d   1      10.490  -8.288   0.000  0.00  0.00     0.059 A 
ATOM     35  C   UNL d   1      11.704  -7.665   0.000  0.00  0.00     0.021 C 
ENDBRANCH  27  28
ENDBRANCH  24  27
ENDBRANCH   1  24
TORSDOF 5
