REMARK  4 active torsions:
REMARK  status: ('A' for Active; 'I' for Inactive)
REMARK    1  A    between atoms: C_11  and  C_9 
REMARK       I    between atoms: N_17  and  C_11 
REMARK    2  A    between atoms: C_19  and  N_17 
REMARK    3  A    between atoms: C_20  and  C_19 
REMARK    4  A    between atoms: C_21  and  C_20 
ROOT
ATOM      1  C   UNL d   1      -1.738   2.558   0.000  0.00  0.00     0.081 A 
ATOM      2  C   UNL d   1      -1.738   1.733   0.000  0.00  0.00     0.117 A 
ATOM      3  N   UNL d   1      -2.458   1.325   0.000  0.00  0.00    -0.221 NA
ATOM      4  N   UNL d   1      -3.163   2.562   0.000  0.00  0.00    -0.258 N 
ATOM      5  C   UNL d   1      -3.171   1.738   0.000  0.00  0.00     0.151 A 
ATOM      6  C   UNL d   1      -2.450   2.983   0.000  0.00  0.00     0.268 A 
ATOM      7  C   UNL d   1      -0.950   2.812   0.000  0.00  0.00     0.018 A 
ATOM      8  S   UNL d   1      -0.958   1.483   0.000  0.00  0.00    -0.063 SA
ATOM      9  C   UNL d   1      -0.471   2.146   0.000  0.00  0.00     0.089 A 
ATOM     10  C   UNL d   1      -3.875   1.333   0.000  0.00  0.00     0.035 A 
ATOM     11  C   UNL d   1      -3.875   2.983   0.000  0.00  0.00     0.084 A 
ATOM     12  O   UNL d   1      -2.446   3.800   0.000  0.00  0.00    -0.267 OA
ATOM     13  C   UNL d   1      -4.583   2.562   0.000  0.00  0.00     0.019 A 
ATOM     14  C   UNL d   1      -4.583   1.738   0.000  0.00  0.00     0.004 A 
ATOM     15  C   UNL d   1      -3.871   0.508   0.000  0.00  0.00     0.003 C 
ENDROOT
BRANCH   9  16
ATOM     16  C   UNL d   1       0.354   2.146   0.000  0.00  0.00     0.285 C 
ATOM     17  O   UNL d   1       0.767   2.858   0.000  0.00  0.00    -0.265 OA
ATOM     18  N   UNL d   1       0.767   1.433   0.000  0.00  0.00    -0.206 NA
BRANCH  18  19
ATOM     19  C   UNL d   1       1.592   1.433   0.000  0.00  0.00     0.102 C 
BRANCH  19  20
ATOM     20  C   UNL d   1       2.004   2.133   0.000  0.00  0.00     0.021 C 
BRANCH  20  21
ATOM     21  C   UNL d   1       2.837   2.133   0.000  0.00  0.00     0.002 C 
ATOM     22  C   UNL d   1       3.254   2.837   0.000  0.00  0.00     0.000 C 
ENDBRANCH  20  21
ENDBRANCH  19  20
ENDBRANCH  18  19
ENDBRANCH   9  16
TORSDOF 4
