REMARK  3 active torsions:
REMARK  status: ('A' for Active; 'I' for Inactive)
REMARK    1  A    between atoms: C_8  and  C_1 
REMARK    2  A    between atoms: N_5  and  C_2 
REMARK       I    between atoms: C_7  and  N_5 
REMARK    3  A    between atoms: C_9  and  C_7 
ROOT
ATOM      1  C   UNL d   1      -3.784   3.012   0.000  0.00  0.00     0.229 A 
ATOM      2  C   UNL d   1      -2.451   3.012   0.000  0.00  0.00     0.297 A 
ATOM      3  O   UNL d   1      -3.115   2.526   0.000  0.00  0.00    -0.252 OA
ATOM      4  N   UNL d   1      -3.527   3.788   0.000  0.00  0.00    -0.117 NA
ATOM      5  N   UNL d   1      -2.704   3.788   0.000  0.00  0.00    -0.101 NA
ENDROOT
BRANCH   2   6
ATOM      6  N   UNL d   1      -1.670   2.750   0.000  0.00  0.00    -0.165 NA
ATOM      7  C   UNL d   1      -1.504   1.952   0.000  0.00  0.00     0.282 C 
ATOM      8  O   UNL d   1      -2.114   1.392   0.000  0.00  0.00    -0.265 OA
BRANCH   7   9
ATOM      9  C   UNL d   1      -0.723   1.691   0.000  0.00  0.00     0.058 A 
ATOM     10  C   UNL d   1      -0.112   2.243   0.000  0.00  0.00     0.005 A 
ATOM     11  C   UNL d   1       0.677   1.990   0.000  0.00  0.00     0.000 A 
ATOM     12  C   UNL d   1       0.847   1.180   0.000  0.00  0.00     0.000 A 
ATOM     13  C   UNL d   1       0.229   0.631   0.000  0.00  0.00     0.000 A 
ATOM     14  C   UNL d   1       1.624   0.910   0.000  0.00  0.00     0.000 C 
ATOM     15  C   UNL d   1      -0.557   0.885   0.000  0.00  0.00     0.005 A 
ENDBRANCH   7   9
ENDBRANCH   2   6
BRANCH   1  16
ATOM     16  C   UNL d   1      -4.569   2.750   0.000  0.00  0.00     0.143 A 
ATOM     17  O   UNL d   1      -4.819   1.969   0.000  0.00  0.00    -0.301 OA
ATOM     18  C   UNL d   1      -5.641   1.965   0.000  0.00  0.00     0.123 A 
ATOM     19  C   UNL d   1      -5.903   2.750   0.000  0.00  0.00     0.029 A 
ATOM     20  C   UNL d   1      -5.242   3.236   0.000  0.00  0.00     0.030 A 
ENDBRANCH   1  16
TORSDOF 3
