REMARK  2 active torsions:
REMARK  status: ('A' for Active; 'I' for Inactive)
REMARK    1  A    between atoms: C_5  and  C_1 
REMARK    2  A    between atoms: N_7  and  C_3 
REMARK       I    between atoms: C_8  and  N_7 
ROOT
ATOM      1  C   UNL d   1      -3.784   3.011   0.000  0.00  0.00     0.231 A 
ATOM      2  O   UNL d   1      -3.115   2.525   0.000  0.00  0.00    -0.252 OA
ATOM      3  C   UNL d   1      -2.450   3.011   0.000  0.00  0.00     0.297 A 
ATOM      4  N   UNL d   1      -3.526   3.788   0.000  0.00  0.00    -0.117 NA
ATOM      5  N   UNL d   1      -2.704   3.788   0.000  0.00  0.00    -0.101 NA
ENDROOT
BRANCH   1   6
ATOM      6  C   UNL d   1      -4.569   2.749   0.000  0.00  0.00     0.168 A 
ATOM      7  O   UNL d   1      -5.179   3.298   0.000  0.00  0.00    -0.297 OA
ATOM      8  C   UNL d   1      -5.952   3.040   0.000  0.00  0.00     0.149 A 
ATOM      9  C   UNL d   1      -6.122   2.239   0.000  0.00  0.00     0.149 A 
ATOM     10  O   UNL d   1      -5.520   1.682   0.000  0.00  0.00    -0.299 OA
ATOM     11  C   UNL d   1      -4.743   1.940   0.000  0.00  0.00     0.151 A 
ENDBRANCH   1   6
BRANCH   3  12
ATOM     12  N   UNL d   1      -1.670   2.749   0.000  0.00  0.00    -0.165 NA
ATOM     13  C   UNL d   1      -1.503   1.952   0.000  0.00  0.00     0.282 C 
ATOM     14  O   UNL d   1      -2.118   1.391   0.000  0.00  0.00    -0.265 OA
ATOM     15  C   UNL d   1      -0.719   1.690   0.000  0.00  0.00     0.068 C 
ENDBRANCH   3  12
TORSDOF 2
