REMARK  5 active torsions:
REMARK  status: ('A' for Active; 'I' for Inactive)
REMARK    1  A    between atoms: C_7  and  C_1 
REMARK    2  A    between atoms: N_6  and  C_3 
REMARK       I    between atoms: C_8  and  N_6 
REMARK    3  A    between atoms: C_9  and  C_8 
REMARK    4  A    between atoms: C_11  and  C_9 
REMARK    5  A    between atoms: C_16  and  C_11 
ROOT
ATOM      1  N   UNL d   1      -1.667   2.746   0.000  0.00  0.00    -0.165 NA
ATOM      2  C   UNL d   1      -1.501   1.949   0.000  0.00  0.00     0.282 C 
ATOM      3  O   UNL d   1      -2.111   1.394   0.000  0.00  0.00    -0.265 OA
ENDROOT
BRANCH   1   4
ATOM      4  C   UNL d   1      -2.447   3.007   0.000  0.00  0.00     0.297 A 
ATOM      5  O   UNL d   1      -3.111   2.522   0.000  0.00  0.00    -0.252 OA
ATOM      6  C   UNL d   1      -3.779   3.007   0.000  0.00  0.00     0.229 A 
ATOM      7  N   UNL d   1      -3.521   3.783   0.000  0.00  0.00    -0.117 NA
ATOM      8  N   UNL d   1      -2.700   3.783   0.000  0.00  0.00    -0.101 NA
BRANCH   6   9
ATOM      9  C   UNL d   1      -4.562   2.746   0.000  0.00  0.00     0.143 A 
ATOM     10  O   UNL d   1      -4.811   1.966   0.000  0.00  0.00    -0.301 OA
ATOM     11  C   UNL d   1      -5.633   1.962   0.000  0.00  0.00     0.123 A 
ATOM     12  C   UNL d   1      -5.894   2.746   0.000  0.00  0.00     0.029 A 
ATOM     13  C   UNL d   1      -5.234   3.231   0.000  0.00  0.00     0.030 A 
ENDBRANCH   6   9
ENDBRANCH   1   4
BRANCH   2  14
ATOM     14  C   UNL d   1      -0.718   1.688   0.000  0.00  0.00     0.063 C 
BRANCH  14  15
ATOM     15  C   UNL d   1      -0.112   2.236   0.000  0.00  0.00     0.005 C 
BRANCH  15  16
ATOM     16  C   UNL d   1       0.676   1.978   0.000  0.00  0.00     0.000 A 
ATOM     17  C   UNL d   1       1.286   2.534   0.000  0.00  0.00     0.000 A 
ATOM     18  C   UNL d   1       2.070   2.277   0.000  0.00  0.00     0.000 A 
ATOM     19  C   UNL d   1       2.240   1.468   0.000  0.00  0.00     0.000 A 
ATOM     20  C   UNL d   1       1.622   0.929   0.000  0.00  0.00     0.000 A 
ATOM     21  C   UNL d   1       0.846   1.178   0.000  0.00  0.00     0.000 A 
ENDBRANCH  15  16
ENDBRANCH  14  15
ENDBRANCH   2  14
TORSDOF 5
