REMARK  6 active torsions:
REMARK  status: ('A' for Active; 'I' for Inactive)
REMARK    1  A    between atoms: C_9  and  S_1 
REMARK    2  A    between atoms: N_10  and  S_1 
REMARK    3  A    between atoms: C_2  and  N_6 
REMARK       I    between atoms: N_6  and  C_8 
REMARK    4  A    between atoms: C_8  and  C_15 
REMARK    5  A    between atoms: O_24  and  C_13 
REMARK    6  A    between atoms: O_23  and  C_14 
ROOT
ATOM      1  N   UNL d   1      -0.840   3.161   0.000  0.00  0.00    -0.183 NA
ATOM      2  C   UNL d   1      -0.670   3.973   0.000  0.00  0.00     0.281 C 
ATOM      3  O   UNL d   1       0.115   4.220   0.000  0.00  0.00    -0.265 OA
ENDROOT
BRANCH   1   4
ATOM      4  C   UNL d   1      -1.633   2.899   0.000  0.00  0.00     0.197 A 
ATOM      5  N   UNL d   1      -1.885   2.115   0.000  0.00  0.00    -0.218 NA
ATOM      6  C   UNL d   1      -2.707   2.115   0.000  0.00  0.00     0.114 A 
ATOM      7  C   UNL d   1      -3.262   1.509   0.000  0.00  0.00     0.112 A 
ATOM      8  C   UNL d   1      -2.959   2.899   0.000  0.00  0.00     0.074 A 
ATOM      9  C   UNL d   1      -4.069   1.679   0.000  0.00  0.00     0.028 A 
ATOM     10  C   UNL d   1      -4.317   2.473   0.000  0.00  0.00     0.027 A 
ATOM     11  C   UNL d   1      -3.766   3.078   0.000  0.00  0.00     0.102 A 
ATOM     12  S   UNL d   1      -2.284   3.381   0.000  0.00  0.00    -0.045 SA
BRANCH   7  13
ATOM     13  O   UNL d   1      -3.014   0.711   0.000  0.00  0.00    -0.327 OA
ATOM     14  C   UNL d   1      -3.574   0.105   0.000  0.00  0.00     0.181 C 
ENDBRANCH   7  13
BRANCH  11  15
ATOM     15  O   UNL d   1      -4.014   3.876   0.000  0.00  0.00    -0.328 OA
ATOM     16  C   UNL d   1      -4.817   4.055   0.000  0.00  0.00     0.181 C 
ENDBRANCH  11  15
ENDBRANCH   1   4
BRANCH   2  17
ATOM     17  C   UNL d   1      -1.280   4.505   0.000  0.00  0.00     0.058 A 
ATOM     18  C   UNL d   1      -2.060   4.253   0.000  0.00  0.00     0.005 A 
ATOM     19  C   UNL d   1      -2.679   4.794   0.000  0.00  0.00     0.013 A 
ATOM     20  C   UNL d   1      -2.514   5.606   0.000  0.00  0.00     0.104 A 
ATOM     21  C   UNL d   1      -1.729   5.867   0.000  0.00  0.00     0.013 A 
ATOM     22  C   UNL d   1      -1.115   5.317   0.000  0.00  0.00     0.005 A 
BRANCH  20  23
ATOM     23  S   UNL d   1      -3.133   6.152   0.000  0.00  0.00     0.271 S 
ATOM     24  O   UNL d   1      -2.583   6.771   0.000  0.00  0.00    -0.200 OA
ATOM     25  O   UNL d   1      -3.675   5.532   0.000  0.00  0.00    -0.200 OA
BRANCH  23  26
ATOM     26  N   UNL d   1      -3.752   6.693   0.000  0.00  0.00    -0.226 N 
ATOM     27  C   UNL d   1      -4.528   6.432   0.000  0.00  0.00     0.111 C 
ATOM     28  C   UNL d   1      -3.587   7.500   0.000  0.00  0.00     0.111 C 
ENDBRANCH  23  26
ENDBRANCH  20  23
ENDBRANCH   2  17
TORSDOF 6
