REMARK  5 active torsions:
REMARK  status: ('A' for Active; 'I' for Inactive)
REMARK    1  A    between atoms: N_5  and  C_1 
REMARK    2  A    between atoms: C_8  and  C_3 
REMARK       I    between atoms: C_7  and  N_5 
REMARK    3  A    between atoms: C_11  and  C_7 
REMARK    4  A    between atoms: C_21  and  C_20 
REMARK    5  A    between atoms: C_24  and  C_21 
ROOT
ATOM      1  N   UNL d   1      -1.671   2.752   0.000  0.00  0.00    -0.165 NA
ATOM      2  C   UNL d   1      -1.505   1.954   0.000  0.00  0.00     0.282 C 
ATOM      3  O   UNL d   1      -2.116   1.397   0.000  0.00  0.00    -0.265 OA
ENDROOT
BRANCH   1   4
ATOM      4  C   UNL d   1      -2.452   3.013   0.000  0.00  0.00     0.297 A 
ATOM      5  O   UNL d   1      -3.117   2.527   0.000  0.00  0.00    -0.253 OA
ATOM      6  C   UNL d   1      -3.787   3.013   0.000  0.00  0.00     0.206 A 
ATOM      7  N   UNL d   1      -3.529   3.791   0.000  0.00  0.00    -0.119 NA
ATOM      8  N   UNL d   1      -2.706   3.791   0.000  0.00  0.00    -0.101 NA
BRANCH   6   9
ATOM      9  C   UNL d   1      -4.572   2.752   0.000  0.00  0.00     0.045 A 
ATOM     10  C   UNL d   1      -5.196   3.304   0.000  0.00  0.00     0.030 A 
ATOM     11  C   UNL d   1      -5.956   3.042   0.000  0.00  0.00     0.123 A 
ATOM     12  O   UNL d   1      -6.571   3.599   0.000  0.00  0.00    -0.301 OA
ATOM     13  C   UNL d   1      -6.127   2.240   0.000  0.00  0.00     0.123 A 
ATOM     14  C   UNL d   1      -7.349   3.350   0.000  0.00  0.00     0.149 A 
ATOM     15  C   UNL d   1      -7.523   2.544   0.000  0.00  0.00     0.149 A 
ATOM     16  O   UNL d   1      -6.920   1.983   0.000  0.00  0.00    -0.301 OA
ATOM     17  C   UNL d   1      -5.532   1.692   0.000  0.00  0.00     0.027 A 
ATOM     18  C   UNL d   1      -4.738   1.941   0.000  0.00  0.00     0.006 A 
ENDBRANCH   6   9
ENDBRANCH   1   4
BRANCH   2  19
ATOM     19  C   UNL d   1      -0.723   1.692   0.000  0.00  0.00     0.058 A 
ATOM     20  C   UNL d   1      -0.120   2.253   0.000  0.00  0.00     0.005 A 
ATOM     21  C   UNL d   1       0.665   1.991   0.000  0.00  0.00     0.000 A 
ATOM     22  C   UNL d   1       0.840   1.185   0.000  0.00  0.00     0.000 A 
ATOM     23  C   UNL d   1       0.224   0.636   0.000  0.00  0.00     0.000 A 
ATOM     24  C   UNL d   1      -0.557   0.894   0.000  0.00  0.00     0.005 A 
BRANCH  22  25
ATOM     25  C   UNL d   1       1.621   0.931   0.000  0.00  0.00     0.000 C 
BRANCH  25  26
ATOM     26  C   UNL d   1       1.796   0.125   0.000  0.00  0.00     0.000 A 
ATOM     27  C   UNL d   1       2.585  -0.129   0.000  0.00  0.00     0.000 A 
ATOM     28  C   UNL d   1       2.756  -0.935   0.000  0.00  0.00     0.000 A 
ATOM     29  C   UNL d   1       2.136  -1.496   0.000  0.00  0.00     0.000 A 
ATOM     30  C   UNL d   1       1.351  -1.239   0.000  0.00  0.00     0.000 A 
ATOM     31  C   UNL d   1       1.176  -0.428   0.000  0.00  0.00     0.000 A 
ENDBRANCH  25  26
ENDBRANCH  22  25
ENDBRANCH   2  19
TORSDOF 5
