REMARK  8 active torsions:
REMARK  status: ('A' for Active; 'I' for Inactive)
REMARK    1  A    between atoms: N_3  and  C_1 
REMARK    2  A    between atoms: S_2  and  C_9 
REMARK    3  A    between atoms: N_10  and  S_2 
REMARK       I    between atoms: C_8  and  N_3 
REMARK    4  A    between atoms: C_15  and  C_8 
REMARK    5  A    between atoms: C_27  and  N_10 
REMARK       I    between atoms: C_16  and  N_17 
REMARK    6  A    between atoms: N_17  and  C_18 
REMARK    7  A    between atoms: C_30  and  C_27 
REMARK    8  A    between atoms: C_31  and  C_30 
ROOT
ATOM      1  N   UNL d   1       4.476   1.776   0.000  0.00  0.00    -0.184 NA
ATOM      2  C   UNL d   1       4.668   2.579   0.000  0.00  0.00     0.281 C 
ATOM      3  O   UNL d   1       4.066   3.155   0.000  0.00  0.00    -0.265 OA
ENDROOT
BRANCH   2   4
ATOM      4  C   UNL d   1       5.458   2.817   0.000  0.00  0.00     0.058 A 
ATOM      5  C   UNL d   1       6.060   2.252   0.000  0.00  0.00     0.005 A 
ATOM      6  C   UNL d   1       6.850   2.491   0.000  0.00  0.00     0.013 A 
ATOM      7  C   UNL d   1       7.050   3.293   0.000  0.00  0.00     0.104 A 
ATOM      8  C   UNL d   1       6.449   3.857   0.000  0.00  0.00     0.013 A 
ATOM      9  C   UNL d   1       5.654   3.619   0.000  0.00  0.00     0.005 A 
BRANCH   7  10
ATOM     10  S   UNL d   1       7.853   3.531   0.000  0.00  0.00     0.271 S 
ATOM     11  O   UNL d   1       8.651   3.757   0.000  0.00  0.00    -0.200 OA
ATOM     12  O   UNL d   1       7.623   4.317   0.000  0.00  0.00    -0.200 OA
BRANCH  10  13
ATOM     13  N   UNL d   1       8.078   2.729   0.000  0.00  0.00    -0.228 N 
ATOM     14  C   UNL d   1       7.502   2.131   0.000  0.00  0.00     0.111 C 
BRANCH  13  15
ATOM     15  C   UNL d   1       8.877   2.528   0.000  0.00  0.00     0.092 C 
BRANCH  15  16
ATOM     16  C   UNL d   1       9.445   3.118   0.000  0.00  0.00     0.020 C 
BRANCH  16  17
ATOM     17  C   UNL d   1      10.235   2.921   0.000  0.00  0.00     0.002 C 
ATOM     18  C   UNL d   1      10.812   3.531   0.000  0.00  0.00     0.000 C 
ENDBRANCH  16  17
ENDBRANCH  15  16
ENDBRANCH  13  15
ENDBRANCH  10  13
ENDBRANCH   7  10
ENDBRANCH   2   4
BRANCH   1  19
ATOM     19  C   UNL d   1       3.678   1.538   0.000  0.00  0.00     0.182 A 
ATOM     20  N   UNL d   1       3.410   0.761   0.000  0.00  0.00    -0.283 N 
ATOM     21  C   UNL d   1       2.587   0.761   0.000  0.00  0.00     0.072 A 
ATOM     22  C   UNL d   1       3.899   0.084   0.000  0.00  0.00     0.101 C 
ATOM     23  C   UNL d   1       2.031   0.146   0.000  0.00  0.00     0.020 A 
ATOM     24  C   UNL d   1       2.324   1.542   0.000  0.00  0.00     0.050 A 
ATOM     25  C   UNL d   1       1.229   0.322   0.000  0.00  0.00     0.021 A 
ATOM     26  C   UNL d   1       0.970   1.103   0.000  0.00  0.00     0.085 A 
ATOM     27  C   UNL d   1       1.521   1.718   0.000  0.00  0.00     0.027 A 
ATOM     28  S   UNL d   1       3.001   2.027   0.000  0.00  0.00    -0.048 SA
BRANCH  26  29
ATOM     29  N   UNL d   1       0.150   1.275   0.000  0.00  0.00    -0.208 NA
ATOM     30  C   UNL d   1      -0.397   0.648   0.000  0.00  0.00     0.279 C 
ATOM     31  O   UNL d   1      -1.204   0.811   0.000  0.00  0.00    -0.265 OA
ATOM     32  C   UNL d   1      -0.121  -0.130   0.000  0.00  0.00     0.068 C 
ENDBRANCH  26  29
ENDBRANCH   1  19
TORSDOF 8
