REMARK  6 active torsions:
REMARK  status: ('A' for Active; 'I' for Inactive)
REMARK    1  A    between atoms: N_8  and  S_1 
REMARK    2  A    between atoms: C_10  and  S_1 
REMARK    3  A    between atoms: C_2  and  N_6 
REMARK       I    between atoms: N_6  and  C_9 
REMARK    4  A    between atoms: C_9  and  C_15 
REMARK    5  A    between atoms: O_26  and  C_13 
REMARK    6  A    between atoms: O_27  and  C_14 
ROOT
ATOM      1  N   UNL d   1      -0.840   3.163   0.000  0.00  0.00    -0.183 NA
ATOM      2  C   UNL d   1      -0.670   3.975   0.000  0.00  0.00     0.281 C 
ATOM      3  O   UNL d   1       0.115   4.223   0.000  0.00  0.00    -0.265 OA
ENDROOT
BRANCH   2   4
ATOM      4  C   UNL d   1      -1.281   4.507   0.000  0.00  0.00     0.058 A 
ATOM      5  C   UNL d   1      -2.061   4.255   0.000  0.00  0.00     0.005 A 
ATOM      6  C   UNL d   1      -2.680   4.797   0.000  0.00  0.00     0.013 A 
ATOM      7  C   UNL d   1      -2.515   5.609   0.000  0.00  0.00     0.104 A 
ATOM      8  C   UNL d   1      -1.730   5.871   0.000  0.00  0.00     0.013 A 
ATOM      9  C   UNL d   1      -1.115   5.320   0.000  0.00  0.00     0.005 A 
BRANCH   7  10
ATOM     10  S   UNL d   1      -3.135   6.155   0.000  0.00  0.00     0.272 S 
ATOM     11  O   UNL d   1      -2.584   6.775   0.000  0.00  0.00    -0.200 OA
ATOM     12  O   UNL d   1      -3.677   5.535   0.000  0.00  0.00    -0.200 OA
BRANCH  10  13
ATOM     13  N   UNL d   1      -3.755   6.697   0.000  0.00  0.00    -0.225 N 
ATOM     14  C   UNL d   1      -4.530   6.435   0.000  0.00  0.00     0.118 A 
ATOM     15  C   UNL d   1      -5.145   6.986   0.000  0.00  0.00     0.142 A 
ATOM     16  O   UNL d   1      -4.980   7.785   0.000  0.00  0.00    -0.300 OA
ATOM     17  C   UNL d   1      -4.200   8.046   0.000  0.00  0.00     0.142 A 
ATOM     18  C   UNL d   1      -3.589   7.505   0.000  0.00  0.00     0.118 A 
ENDBRANCH  10  13
ENDBRANCH   7  10
ENDBRANCH   2   4
BRANCH   1  19
ATOM     19  C   UNL d   1      -1.634   2.901   0.000  0.00  0.00     0.197 A 
ATOM     20  N   UNL d   1      -1.887   2.116   0.000  0.00  0.00    -0.218 NA
ATOM     21  C   UNL d   1      -2.708   2.116   0.000  0.00  0.00     0.114 A 
ATOM     22  C   UNL d   1      -3.264   1.510   0.000  0.00  0.00     0.112 A 
ATOM     23  C   UNL d   1      -2.961   2.901   0.000  0.00  0.00     0.074 A 
ATOM     24  C   UNL d   1      -4.071   1.680   0.000  0.00  0.00     0.028 A 
ATOM     25  C   UNL d   1      -4.319   2.474   0.000  0.00  0.00     0.027 A 
ATOM     26  C   UNL d   1      -3.768   3.080   0.000  0.00  0.00     0.102 A 
ATOM     27  S   UNL d   1      -2.286   3.383   0.000  0.00  0.00    -0.045 SA
BRANCH  22  28
ATOM     28  O   UNL d   1      -3.016   0.711   0.000  0.00  0.00    -0.327 OA
ATOM     29  C   UNL d   1      -3.576   0.105   0.000  0.00  0.00     0.181 C 
ENDBRANCH  22  28
BRANCH  26  30
ATOM     30  O   UNL d   1      -4.016   3.878   0.000  0.00  0.00    -0.328 OA
ATOM     31  C   UNL d   1      -4.819   4.058   0.000  0.00  0.00     0.181 C 
ENDBRANCH  26  30
ENDBRANCH   1  19
TORSDOF 6
