REMARK  3 active torsions:
REMARK  status: ('A' for Active; 'I' for Inactive)
REMARK    1  A    between atoms: N_5  and  C_1 
REMARK    2  A    between atoms: C_8  and  C_3 
REMARK       I    between atoms: C_7  and  N_5 
REMARK    3  A    between atoms: C_13  and  C_7 
ROOT
ATOM      1  C   UNL d   1      -2.464   3.027   0.000  0.00  0.00     0.297 A 
ATOM      2  O   UNL d   1      -3.132   2.539   0.000  0.00  0.00    -0.253 OA
ATOM      3  C   UNL d   1      -3.804   3.027   0.000  0.00  0.00     0.206 A 
ATOM      4  N   UNL d   1      -3.545   3.808   0.000  0.00  0.00    -0.119 NA
ATOM      5  N   UNL d   1      -2.718   3.808   0.000  0.00  0.00    -0.101 NA
ENDROOT
BRANCH   3   6
ATOM      6  C   UNL d   1      -4.593   2.764   0.000  0.00  0.00     0.043 A 
ATOM      7  C   UNL d   1      -5.207   3.316   0.000  0.00  0.00     0.004 A 
ATOM      8  C   UNL d   1      -5.984   3.057   0.000  0.00  0.00     0.000 A 
ATOM      9  C   UNL d   1      -6.594   3.616   0.000  0.00  0.00     0.000 A 
ATOM     10  C   UNL d   1      -6.143   2.251   0.000  0.00  0.00     0.000 A 
ATOM     11  C   UNL d   1      -7.370   3.366   0.000  0.00  0.00     0.000 A 
ATOM     12  C   UNL d   1      -7.546   2.556   0.000  0.00  0.00     0.000 A 
ATOM     13  C   UNL d   1      -6.944   1.992   0.000  0.00  0.00     0.000 A 
ATOM     14  C   UNL d   1      -5.550   1.700   0.000  0.00  0.00     0.000 A 
ATOM     15  C   UNL d   1      -4.769   1.950   0.000  0.00  0.00     0.004 A 
ENDBRANCH   3   6
BRANCH   1  16
ATOM     16  N   UNL d   1      -1.679   2.764   0.000  0.00  0.00    -0.165 NA
ATOM     17  C   UNL d   1      -1.512   1.963   0.000  0.00  0.00     0.282 C 
ATOM     18  O   UNL d   1      -2.125   1.403   0.000  0.00  0.00    -0.265 OA
BRANCH  17  19
ATOM     19  C   UNL d   1      -0.727   1.704   0.000  0.00  0.00     0.058 A 
ATOM     20  C   UNL d   1      -0.121   2.263   0.000  0.00  0.00     0.005 A 
ATOM     21  C   UNL d   1       0.668   2.004   0.000  0.00  0.00     0.000 A 
ATOM     22  C   UNL d   1       0.844   1.198   0.000  0.00  0.00     0.000 A 
ATOM     23  C   UNL d   1       0.230   0.647   0.000  0.00  0.00     0.000 A 
ATOM     24  C   UNL d   1      -0.559   0.898   0.000  0.00  0.00     0.005 A 
ENDBRANCH  17  19
ENDBRANCH   1  16
TORSDOF 3
