REMARK  3 active torsions:
REMARK  status: ('A' for Active; 'I' for Inactive)
REMARK    1  A    between atoms: C_5  and  C_1 
REMARK    2  A    between atoms: N_6  and  C_2 
REMARK       I    between atoms: C_8  and  N_6 
REMARK    3  A    between atoms: C_9  and  C_8 
ROOT
ATOM      1  C   UNL d   1      -3.791   3.017   0.000  0.00  0.00     0.231 A 
ATOM      2  C   UNL d   1      -2.455   3.017   0.000  0.00  0.00     0.297 A 
ATOM      3  O   UNL d   1      -3.121   2.530   0.000  0.00  0.00    -0.252 OA
ATOM      4  N   UNL d   1      -3.533   3.795   0.000  0.00  0.00    -0.117 NA
ATOM      5  N   UNL d   1      -2.709   3.795   0.000  0.00  0.00    -0.101 NA
ENDROOT
BRANCH   2   6
ATOM      6  N   UNL d   1      -1.673   2.755   0.000  0.00  0.00    -0.165 NA
ATOM      7  C   UNL d   1      -1.506   1.956   0.000  0.00  0.00     0.282 C 
ATOM      8  O   UNL d   1      -2.118   1.398   0.000  0.00  0.00    -0.265 OA
BRANCH   7   9
ATOM      9  C   UNL d   1      -0.724   1.694   0.000  0.00  0.00     0.060 A 
ATOM     10  C   UNL d   1      -0.557   0.895   0.000  0.00  0.00     0.034 A 
ATOM     11  C   UNL d   1       0.225   0.637   0.000  0.00  0.00     0.140 A 
ATOM     12  F   UNL d   1       0.404  -0.179   0.000  0.00  0.00    -0.204 F 
ATOM     13  C   UNL d   1       0.841   1.186   0.000  0.00  0.00     0.030 A 
ATOM     14  C   UNL d   1       0.666   1.993   0.000  0.00  0.00     0.003 A 
ATOM     15  C   UNL d   1      -0.121   2.247   0.000  0.00  0.00     0.005 A 
ENDBRANCH   7   9
ENDBRANCH   2   6
BRANCH   1  16
ATOM     16  C   UNL d   1      -4.577   2.755   0.000  0.00  0.00     0.168 A 
ATOM     17  O   UNL d   1      -5.189   3.304   0.000  0.00  0.00    -0.297 OA
ATOM     18  C   UNL d   1      -5.963   3.046   0.000  0.00  0.00     0.149 A 
ATOM     19  C   UNL d   1      -6.133   2.243   0.000  0.00  0.00     0.149 A 
ATOM     20  O   UNL d   1      -5.530   1.685   0.000  0.00  0.00    -0.299 OA
ATOM     21  C   UNL d   1      -4.752   1.943   0.000  0.00  0.00     0.151 A 
ENDBRANCH   1  16
TORSDOF 3
