REMARK  5 active torsions:
REMARK  status: ('A' for Active; 'I' for Inactive)
REMARK    1  A    between atoms: C_20  and  C_3 
REMARK    2  A    between atoms: C_6  and  C_8 
REMARK       I    between atoms: C_8  and  N_17 
REMARK    3  A    between atoms: N_17  and  C_21 
REMARK    4  A    between atoms: O_22  and  C_18 
REMARK    5  A    between atoms: C_21  and  C_20 
ROOT
ATOM      1  N   UNL d   1      -1.012   2.149   0.000  0.00  0.00    -0.208 NA
ATOM      2  C   UNL d   1      -0.296   2.561   0.000  0.00  0.00     0.279 A 
ATOM      3  C   UNL d   1      -0.296   3.394   0.000  0.00  0.00     0.059 A 
ATOM      4  C   UNL d   1      -1.732   2.569   0.000  0.00  0.00     0.087 A 
ATOM      5  C   UNL d   1      -1.012   3.806   0.000  0.00  0.00     0.006 A 
ATOM      6  C   UNL d   1      -1.724   3.394   0.000  0.00  0.00     0.018 A 
ATOM      7  C   UNL d   1      -2.444   2.149   0.000  0.00  0.00     0.043 A 
ATOM      8  O   UNL d   1       0.416   2.149   0.000  0.00  0.00    -0.265 OA
ATOM      9  C   UNL d   1      -2.444   3.806   0.000  0.00  0.00     0.004 A 
ATOM     10  C   UNL d   1      -3.156   2.561   0.000  0.00  0.00     0.096 A 
ATOM     11  C   UNL d   1      -3.156   3.394   0.000  0.00  0.00     0.024 A 
ENDROOT
BRANCH   3  12
ATOM     12  C   UNL d   1       0.416   3.798   0.000  0.00  0.00     0.026 C 
BRANCH  12  13
ATOM     13  C   UNL d   1       1.129   3.394   0.000  0.00  0.00     0.102 C 
BRANCH  13  14
ATOM     14  N   UNL d   1       1.849   3.798   0.000  0.00  0.00    -0.206 NA
ATOM     15  C   UNL d   1       2.561   3.381   0.000  0.00  0.00     0.285 C 
ATOM     16  O   UNL d   1       2.561   2.561   0.000  0.00  0.00    -0.265 OA
BRANCH  15  17
ATOM     17  C   UNL d   1       3.277   3.794   0.000  0.00  0.00     0.087 A 
ATOM     18  S   UNL d   1       4.023   3.461   0.000  0.00  0.00    -0.082 SA
ATOM     19  C   UNL d   1       4.577   4.052   0.000  0.00  0.00     0.036 A 
ATOM     20  C   UNL d   1       4.173   4.776   0.000  0.00  0.00     0.008 A 
ATOM     21  C   UNL d   1       3.365   4.614   0.000  0.00  0.00     0.012 A 
ENDBRANCH  15  17
ENDBRANCH  13  14
ENDBRANCH  12  13
ENDBRANCH   3  12
BRANCH  10  22
ATOM     22  O   UNL d   1      -3.869   2.149   0.000  0.00  0.00    -0.328 OA
ATOM     23  C   UNL d   1      -4.581   2.561   0.000  0.00  0.00     0.181 C 
ENDBRANCH  10  22
TORSDOF 5
