REMARK  5 active torsions:
REMARK  status: ('A' for Active; 'I' for Inactive)
REMARK    1  A    between atoms: C_2  and  S_1 
REMARK    2  A    between atoms: N_11  and  S_1 
REMARK    3  A    between atoms: N_3  and  C_17 
REMARK    4  A    between atoms: C_16  and  N_11 
REMARK    5  A    between atoms: C_17  and  C_16 
ROOT
ATOM      1  S   UNL d   1      -1.084  -0.492   0.000  0.00  0.00     0.285 S 
ATOM      2  O   UNL d   1      -0.500  -1.075   0.000  0.00  0.00    -0.198 OA
ATOM      3  O   UNL d   1      -1.672  -1.075   0.000  0.00  0.00    -0.198 OA
ENDROOT
BRANCH   1   4
ATOM      4  C   UNL d   1      -0.508   0.108   0.000  0.00  0.00     0.105 A 
ATOM      5  C   UNL d   1       0.292  -0.092   0.000  0.00  0.00     0.012 A 
ATOM      6  C   UNL d   1       0.863   0.496   0.000  0.00  0.00     0.001 A 
ATOM      7  C   UNL d   1       0.525  -0.888   0.000  0.00  0.00     0.001 C 
ATOM      8  C   UNL d   1       0.638   1.296   0.000  0.00  0.00     0.000 A 
ATOM      9  C   UNL d   1      -0.171   1.488   0.000  0.00  0.00     0.001 A 
ATOM     10  C   UNL d   1       1.201   1.897   0.000  0.00  0.00     0.000 C 
ATOM     11  C   UNL d   1      -0.738   0.888   0.000  0.00  0.00     0.012 A 
ATOM     12  C   UNL d   1      -1.538   1.084   0.000  0.00  0.00     0.001 C 
ENDBRANCH   1   4
BRANCH   1  13
ATOM     13  N   UNL d   1      -1.801  -0.087   0.000  0.00  0.00    -0.155 NA
BRANCH  13  14
ATOM     14  C   UNL d   1      -1.813   0.738   0.000  0.00  0.00     0.131 C 
BRANCH  14  15
ATOM     15  C   UNL d   1      -2.534   1.138   0.000  0.00  0.00     0.102 C 
BRANCH  15  16
ATOM     16  N   UNL d   1      -2.547   1.963   0.000  0.00  0.00    -0.303 N 
ATOM     17  C   UNL d   1      -1.884   2.459   0.000  0.00  0.00     0.080 A 
ATOM     18  C   UNL d   1      -2.147   3.239   0.000  0.00  0.00     0.021 A 
ATOM     19  C   UNL d   1      -2.972   3.235   0.000  0.00  0.00     0.018 A 
ATOM     20  C   UNL d   1      -3.222   2.447   0.000  0.00  0.00     0.064 A 
ATOM     21  C   UNL d   1      -3.535   3.835   0.000  0.00  0.00     0.002 A 
ATOM     22  C   UNL d   1      -4.023   2.259   0.000  0.00  0.00     0.018 A 
ATOM     23  C   UNL d   1      -4.585   2.860   0.000  0.00  0.00     0.002 A 
ATOM     24  C   UNL d   1      -4.348   3.660   0.000  0.00  0.00     0.000 A 
ENDBRANCH  15  16
ENDBRANCH  14  15
ENDBRANCH  13  14
ENDBRANCH   1  13
TORSDOF 5
