REMARK  4 active torsions:
REMARK  status: ('A' for Active; 'I' for Inactive)
REMARK    1  A    between atoms: S_11  and  C_4 
REMARK       I    between atoms: N_8  and  C_10 
REMARK    2  A    between atoms: C_20  and  N_9 
REMARK    3  A    between atoms: C_10  and  C_15 
REMARK    4  A    between atoms: C_15  and  S_11 
ROOT
ATOM      1  N   UNL d   1       0.843   3.983   0.000  0.00  0.00    -0.269 N 
ATOM      2  N   UNL d   1       0.843   5.628   0.000  0.00  0.00    -0.301 N 
ATOM      3  C   UNL d   1       0.843   3.158   0.000  0.00  0.00     0.272 C 
ATOM      4  C   UNL d   1       0.128   4.395   0.000  0.00  0.00     0.102 A 
ATOM      5  C   UNL d   1       1.558   4.395   0.000  0.00  0.00     0.102 A 
ATOM      6  C   UNL d   1       1.558   5.216   0.000  0.00  0.00     0.100 A 
ATOM      7  C   UNL d   1       0.128   5.216   0.000  0.00  0.00     0.100 A 
ATOM      8  O   UNL d   1       1.558   2.745   0.000  0.00  0.00    -0.266 OA
ENDROOT
BRANCH   3   9
ATOM      9  C   UNL d   1       0.128   2.745   0.000  0.00  0.00     0.099 C 
BRANCH   9  10
ATOM     10  S   UNL d   1      -0.587   3.158   0.000  0.00  0.00    -0.044 SA
BRANCH  10  11
ATOM     11  C   UNL d   1      -1.306   2.736   0.000  0.00  0.00     0.182 A 
ATOM     12  N   UNL d   1      -2.030   3.149   0.000  0.00  0.00    -0.222 NA
ATOM     13  C   UNL d   1      -2.732   2.736   0.000  0.00  0.00     0.095 A 
ATOM     14  C   UNL d   1      -2.732   1.911   0.000  0.00  0.00     0.104 A 
ATOM     15  C   UNL d   1      -3.515   2.993   0.000  0.00  0.00     0.026 A 
ATOM     16  C   UNL d   1      -2.030   1.499   0.000  0.00  0.00     0.274 A 
ATOM     17  S   UNL d   1      -3.515   1.659   0.000  0.00  0.00    -0.081 SA
ATOM     18  N   UNL d   1      -1.306   1.911   0.000  0.00  0.00    -0.251 N 
ATOM     19  O   UNL d   1      -2.030   0.674   0.000  0.00  0.00    -0.266 OA
ATOM     20  C   UNL d   1      -0.587   1.494   0.000  0.00  0.00     0.104 C 
ATOM     21  C   UNL d   1      -3.997   2.333   0.000  0.00  0.00     0.031 A 
ATOM     22  C   UNL d   1      -4.822   2.347   0.000  0.00  0.00     0.007 C 
ENDBRANCH  10  11
ENDBRANCH   9  10
ENDBRANCH   3   9
BRANCH   2  23
ATOM     23  C   UNL d   1       0.843   6.453   0.000  0.00  0.00     0.064 A 
ATOM     24  C   UNL d   1       1.558   6.866   0.000  0.00  0.00     0.018 A 
ATOM     25  C   UNL d   1       1.558   7.691   0.000  0.00  0.00     0.002 A 
ATOM     26  C   UNL d   1       0.843   8.103   0.000  0.00  0.00     0.000 A 
ATOM     27  C   UNL d   1       0.128   7.691   0.000  0.00  0.00     0.002 A 
ATOM     28  C   UNL d   1       0.128   6.866   0.000  0.00  0.00     0.018 A 
ENDBRANCH   2  23
TORSDOF 4
