REMARK  4 active torsions:
REMARK  status: ('A' for Active; 'I' for Inactive)
REMARK    1  A    between atoms: N_14  and  S_1 
REMARK    2  A    between atoms: C_5  and  C_17 
REMARK    3  A    between atoms: C_18  and  N_14 
REMARK    4  A    between atoms: C_17  and  C_18 
ROOT
ATOM      1  N   UNL d   1      -1.729   2.150   0.000  0.00  0.00    -0.208 NA
ATOM      2  C   UNL d   1      -1.010   2.564   0.000  0.00  0.00     0.279 A 
ATOM      3  C   UNL d   1      -2.451   2.564   0.000  0.00  0.00     0.085 A 
ATOM      4  C   UNL d   1      -1.010   3.390   0.000  0.00  0.00     0.059 A 
ATOM      5  C   UNL d   1      -1.729   3.808   0.000  0.00  0.00     0.006 A 
ATOM      6  C   UNL d   1      -2.443   3.390   0.000  0.00  0.00     0.018 A 
ATOM      7  C   UNL d   1      -3.165   2.150   0.000  0.00  0.00     0.019 A 
ATOM      8  C   UNL d   1      -3.165   3.804   0.000  0.00  0.00     0.002 A 
ATOM      9  C   UNL d   1      -3.879   2.564   0.000  0.00  0.00     0.002 A 
ATOM     10  C   UNL d   1      -3.879   3.390   0.000  0.00  0.00     0.000 A 
ATOM     11  O   UNL d   1      -0.296   2.150   0.000  0.00  0.00    -0.265 OA
ATOM     12  C   UNL d   1      -4.593   3.804   0.000  0.00  0.00     0.000 C 
ATOM     13  C   UNL d   1      -4.593   2.150   0.000  0.00  0.00     0.000 C 
ENDROOT
BRANCH   4  14
ATOM     14  C   UNL d   1      -0.296   3.804   0.000  0.00  0.00     0.026 C 
BRANCH  14  15
ATOM     15  C   UNL d   1       0.418   3.390   0.000  0.00  0.00     0.112 C 
BRANCH  15  16
ATOM     16  N   UNL d   1       1.131   3.804   0.000  0.00  0.00    -0.160 NA
BRANCH  16  17
ATOM     17  S   UNL d   1       1.854   3.390   0.000  0.00  0.00     0.266 S 
ATOM     18  O   UNL d   1       1.265   2.806   0.000  0.00  0.00    -0.203 OA
ATOM     19  O   UNL d   1       2.434   2.806   0.000  0.00  0.00    -0.203 OA
ATOM     20  C   UNL d   1       2.422   3.992   0.000  0.00  0.00     0.165 C 
ENDBRANCH  16  17
ENDBRANCH  15  16
ENDBRANCH  14  15
ENDBRANCH   4  14
TORSDOF 4
