REMARK  7 active torsions:
REMARK  status: ('A' for Active; 'I' for Inactive)
REMARK    1  A    between atoms: S_3  and  N_12 
REMARK    2  A    between atoms: C_16  and  S_3 
REMARK    3  A    between atoms: C_17  and  C_7 
REMARK    4  A    between atoms: O_19  and  C_8 
REMARK    5  A    between atoms: O_20  and  C_11 
REMARK    6  A    between atoms: N_12  and  C_18 
REMARK    7  A    between atoms: C_18  and  C_17 
ROOT
ATOM      1  N   UNL d   1       4.954  -8.779   0.000  0.00  0.00    -0.206 NA
ATOM      2  C   UNL d   1       4.242  -7.542   0.000  0.00  0.00     0.042 A 
ATOM      3  C   UNL d   1       4.242  -8.367   0.000  0.00  0.00     0.109 A 
ATOM      4  C   UNL d   1       4.954  -7.125   0.000  0.00  0.00     0.008 A 
ATOM      5  C   UNL d   1       5.675  -8.367   0.000  0.00  0.00     0.279 A 
ATOM      6  C   UNL d   1       5.675  -7.542   0.000  0.00  0.00     0.060 A 
ATOM      7  C   UNL d   1       3.529  -7.129   0.000  0.00  0.00     0.096 A 
ATOM      8  C   UNL d   1       3.529  -8.779   0.000  0.00  0.00     0.112 A 
ATOM      9  O   UNL d   1       6.388  -8.779   0.000  0.00  0.00    -0.265 OA
ATOM     10  C   UNL d   1       2.817  -7.542   0.000  0.00  0.00     0.026 A 
ATOM     11  C   UNL d   1       2.817  -8.367   0.000  0.00  0.00     0.028 A 
ENDROOT
BRANCH   6  12
ATOM     12  C   UNL d   1       6.392  -7.129   0.000  0.00  0.00     0.026 C 
BRANCH  12  13
ATOM     13  C   UNL d   1       7.104  -7.542   0.000  0.00  0.00     0.112 C 
BRANCH  13  14
ATOM     14  N   UNL d   1       7.817  -7.129   0.000  0.00  0.00    -0.157 NA
BRANCH  14  15
ATOM     15  S   UNL d   1       8.529  -7.550   0.000  0.00  0.00     0.286 S 
ATOM     16  O   UNL d   1       9.117  -8.129   0.000  0.00  0.00    -0.198 OA
ATOM     17  O   UNL d   1       7.942  -8.129   0.000  0.00  0.00    -0.198 OA
BRANCH  15  18
ATOM     18  C   UNL d   1       9.104  -6.954   0.000  0.00  0.00     0.117 C 
ATOM     19  C   UNL d   1       9.904  -7.150   0.000  0.00  0.00     0.014 C 
ENDBRANCH  15  18
ENDBRANCH  14  15
ENDBRANCH  13  14
ENDBRANCH  12  13
ENDBRANCH   6  12
BRANCH   7  20
ATOM     20  O   UNL d   1       3.529  -6.312   0.000  0.00  0.00    -0.328 OA
ATOM     21  C   UNL d   1       2.812  -5.900   0.000  0.00  0.00     0.181 C 
ENDBRANCH   7  20
BRANCH   8  22
ATOM     22  O   UNL d   1       3.529  -9.604   0.000  0.00  0.00    -0.327 OA
ATOM     23  C   UNL d   1       4.250 -10.017   0.000  0.00  0.00     0.181 C 
ENDBRANCH   8  22
TORSDOF 7
