REMARK  10 active torsions:
REMARK  status: ('A' for Active; 'I' for Inactive)
REMARK    1  A    between atoms: C_18  and  N_1 
REMARK    2  A    between atoms: S_7  and  C_2 
REMARK       I    between atoms: C_6  and  N_14 
REMARK    3  A    between atoms: C_9  and  C_6 
REMARK    4  A    between atoms: C_15  and  S_7 
REMARK    5  A    between atoms: C_8  and  C_15 
REMARK       I    between atoms: N_10  and  C_8 
REMARK    6  A    between atoms: C_19  and  N_10 
REMARK    7  A    between atoms: N_14  and  C_25 
REMARK    8  A    between atoms: C_25  and  C_18 
REMARK    9  A    between atoms: C_23  and  C_19 
REMARK   10  A    between atoms: O_27  and  C_20 
ROOT
ATOM      1  N   UNL d   1       5.217  -7.475   0.000  0.00  0.00    -0.302 N 
ATOM      2  C   UNL d   1       5.625  -6.192   0.000  0.00  0.00     0.049 A 
ATOM      3  C   UNL d   1       5.888  -6.979   0.000  0.00  0.00     0.087 A 
ATOM      4  C   UNL d   1       4.792  -6.200   0.000  0.00  0.00     0.024 A 
ATOM      5  C   UNL d   1       4.542  -6.992   0.000  0.00  0.00     0.065 A 
ATOM      6  C   UNL d   1       4.229  -5.592   0.000  0.00  0.00     0.002 A 
ATOM      7  C   UNL d   1       3.737  -7.175   0.000  0.00  0.00     0.018 A 
ATOM      8  C   UNL d   1       3.429  -5.775   0.000  0.00  0.00     0.000 A 
ATOM      9  C   UNL d   1       3.179  -6.567   0.000  0.00  0.00     0.002 A 
ENDROOT
BRANCH   1  10
ATOM     10  C   UNL d   1       5.225  -8.300   0.000  0.00  0.00     0.101 C 
BRANCH  10  11
ATOM     11  C   UNL d   1       5.942  -8.704   0.000  0.00  0.00     0.121 C 
BRANCH  11  12
ATOM     12  N   UNL d   1       5.950  -9.529   0.000  0.00  0.00    -0.205 NA
ATOM     13  C   UNL d   1       6.667  -9.938   0.000  0.00  0.00     0.279 C 
ATOM     14  O   UNL d   1       7.379  -9.517   0.000  0.00  0.00    -0.265 OA
BRANCH  13  15
ATOM     15  C   UNL d   1       6.675 -10.762   0.000  0.00  0.00     0.058 A 
ATOM     16  C   UNL d   1       5.954 -11.188   0.000  0.00  0.00     0.007 A 
ATOM     17  C   UNL d   1       5.963 -12.012   0.000  0.00  0.00     0.024 A 
ATOM     18  C   UNL d   1       6.692 -12.404   0.000  0.00  0.00     0.094 A 
ATOM     19  C   UNL d   1       7.400 -11.988   0.000  0.00  0.00     0.024 A 
ATOM     20  C   UNL d   1       7.388 -11.167   0.000  0.00  0.00     0.007 A 
BRANCH  18  21
ATOM     21  O   UNL d   1       6.713 -13.242   0.000  0.00  0.00    -0.328 OA
ATOM     22  C   UNL d   1       7.429 -13.654   0.000  0.00  0.00     0.181 C 
ENDBRANCH  18  21
ENDBRANCH  13  15
ENDBRANCH  11  12
ENDBRANCH  10  11
ENDBRANCH   1  10
BRANCH   2  23
ATOM     23  S   UNL d   1       6.100  -5.517   0.000  0.00  0.00    -0.080 SA
BRANCH  23  24
ATOM     24  C   UNL d   1       6.925  -5.600   0.000  0.00  0.00     0.098 C 
BRANCH  24  25
ATOM     25  C   UNL d   1       7.404  -4.929   0.000  0.00  0.00     0.286 C 
ATOM     26  N   UNL d   1       8.225  -5.004   0.000  0.00  0.00    -0.204 NA
ATOM     27  O   UNL d   1       7.062  -4.179   0.000  0.00  0.00    -0.265 OA
BRANCH  26  28
ATOM     28  C   UNL d   1       8.704  -4.329   0.000  0.00  0.00     0.127 C 
BRANCH  28  29
ATOM     29  C   UNL d   1       9.512  -4.404   0.000  0.00  0.00     0.119 A 
ATOM     30  O   UNL d   1      10.067  -3.800   0.000  0.00  0.00    -0.304 OA
ATOM     31  C   UNL d   1      10.825  -4.129   0.000  0.00  0.00     0.123 A 
ATOM     32  C   UNL d   1      10.742  -4.950   0.000  0.00  0.00     0.029 A 
ATOM     33  C   UNL d   1       9.942  -5.117   0.000  0.00  0.00     0.028 A 
ENDBRANCH  28  29
ENDBRANCH  26  28
ENDBRANCH  24  25
ENDBRANCH  23  24
ENDBRANCH   2  23
TORSDOF 10
