REMARK  5 active torsions:
REMARK  status: ('A' for Active; 'I' for Inactive)
REMARK    1  A    between atoms: S_6  and  C_2 
REMARK    2  A    between atoms: C_11  and  S_6 
REMARK    3  A    between atoms: C_7  and  C_11 
REMARK       I    between atoms: N_8  and  C_7 
REMARK    4  A    between atoms: C_13  and  N_8 
REMARK    5  A    between atoms: C_14  and  C_13 
ROOT
ATOM      1  S   UNL d   1       6.094  -8.192   0.000  0.00  0.00    -0.080 SA
ENDROOT
BRANCH   1   2
ATOM      2  C   UNL d   1       5.620  -8.867   0.000  0.00  0.00     0.049 A 
ATOM      3  C   UNL d   1       5.882  -9.645   0.000  0.00  0.00     0.087 A 
ATOM      4  N   UNL d   1       5.212 -10.145   0.000  0.00  0.00    -0.302 N 
ATOM      5  C   UNL d   1       4.537  -9.658   0.000  0.00  0.00     0.065 A 
ATOM      6  C   UNL d   1       5.220 -10.969   0.000  0.00  0.00     0.100 C 
ATOM      7  C   UNL d   1       4.787  -8.871   0.000  0.00  0.00     0.024 A 
ATOM      8  C   UNL d   1       3.734  -9.845   0.000  0.00  0.00     0.018 A 
ATOM      9  C   UNL d   1       4.225  -8.267   0.000  0.00  0.00     0.002 A 
ATOM     10  C   UNL d   1       3.426  -8.446   0.000  0.00  0.00     0.000 A 
ATOM     11  C   UNL d   1       3.176  -9.233   0.000  0.00  0.00     0.002 A 
ENDBRANCH   1   2
BRANCH   1  12
ATOM     12  C   UNL d   1       6.919  -8.271   0.000  0.00  0.00     0.098 C 
BRANCH  12  13
ATOM     13  C   UNL d   1       7.397  -7.597   0.000  0.00  0.00     0.286 C 
ATOM     14  N   UNL d   1       8.217  -7.680   0.000  0.00  0.00    -0.204 NA
ATOM     15  O   UNL d   1       7.056  -6.848   0.000  0.00  0.00    -0.265 OA
BRANCH  14  16
ATOM     16  C   UNL d   1       8.696  -7.006   0.000  0.00  0.00     0.127 C 
BRANCH  16  17
ATOM     17  C   UNL d   1       9.504  -7.085   0.000  0.00  0.00     0.119 A 
ATOM     18  O   UNL d   1      10.057  -6.473   0.000  0.00  0.00    -0.304 OA
ATOM     19  C   UNL d   1      10.819  -6.810   0.000  0.00  0.00     0.123 A 
ATOM     20  C   UNL d   1      10.732  -7.630   0.000  0.00  0.00     0.029 A 
ATOM     21  C   UNL d   1       9.928  -7.797   0.000  0.00  0.00     0.028 A 
ENDBRANCH  16  17
ENDBRANCH  14  16
ENDBRANCH  12  13
ENDBRANCH   1  12
TORSDOF 5
