REMARK  5 active torsions:
REMARK  status: ('A' for Active; 'I' for Inactive)
REMARK    1  A    between atoms: S_6  and  C_2 
REMARK    2  A    between atoms: C_16  and  S_6 
REMARK    3  A    between atoms: C_8  and  C_16 
REMARK       I    between atoms: N_13  and  C_8 
REMARK    4  A    between atoms: C_19  and  N_13 
REMARK    5  A    between atoms: C_18  and  C_19 
ROOT
ATOM      1  C   UNL d   1       7.347  -8.286   0.000  0.00  0.00     0.286 C 
ATOM      2  N   UNL d   1       8.162  -8.361   0.000  0.00  0.00    -0.206 NA
ATOM      3  O   UNL d   1       7.002  -7.538   0.000  0.00  0.00    -0.265 OA
ENDROOT
BRANCH   1   4
ATOM      4  C   UNL d   1       6.864  -8.956   0.000  0.00  0.00     0.098 C 
BRANCH   4   5
ATOM      5  S   UNL d   1       6.041  -8.873   0.000  0.00  0.00    -0.080 SA
BRANCH   5   6
ATOM      6  C   UNL d   1       5.567  -9.546   0.000  0.00  0.00     0.049 A 
ATOM      7  C   UNL d   1       5.829 -10.332   0.000  0.00  0.00     0.087 A 
ATOM      8  N   UNL d   1       5.168 -10.827   0.000  0.00  0.00    -0.302 N 
ATOM      9  C   UNL d   1       4.495 -10.345   0.000  0.00  0.00     0.065 A 
ATOM     10  C   UNL d   1       5.168 -11.650   0.000  0.00  0.00     0.100 C 
ATOM     11  C   UNL d   1       4.744  -9.555   0.000  0.00  0.00     0.024 A 
ATOM     12  C   UNL d   1       3.684 -10.527   0.000  0.00  0.00     0.018 A 
ATOM     13  C   UNL d   1       4.183  -8.947   0.000  0.00  0.00     0.002 A 
ATOM     14  C   UNL d   1       3.380  -9.130   0.000  0.00  0.00     0.000 A 
ATOM     15  C   UNL d   1       3.131  -9.920   0.000  0.00  0.00     0.002 A 
ENDBRANCH   5   6
ENDBRANCH   4   5
ENDBRANCH   1   4
BRANCH   2  16
ATOM     16  C   UNL d   1       8.636  -7.696   0.000  0.00  0.00     0.102 C 
BRANCH  16  17
ATOM     17  C   UNL d   1       9.455  -7.738   0.000  0.00  0.00     0.021 A 
ATOM     18  C   UNL d   1       9.816  -8.482   0.000  0.00  0.00     0.028 A 
ATOM     19  C   UNL d   1      10.652  -8.532   0.000  0.00  0.00     0.119 A 
ATOM     20  O   UNL d   1      11.164  -9.159   0.000  0.00  0.00    -0.300 OA
ATOM     21  C   UNL d   1      11.093  -7.837   0.000  0.00  0.00     0.119 A 
ATOM     22  C   UNL d   1      11.929  -8.873   0.000  0.00  0.00     0.304 A 
ATOM     23  O   UNL d   1      11.891  -8.049   0.000  0.00  0.00    -0.300 OA
ATOM     24  C   UNL d   1      10.714  -7.097   0.000  0.00  0.00     0.026 A 
ATOM     25  C   UNL d   1       9.895  -7.064   0.000  0.00  0.00     0.004 A 
ENDBRANCH  16  17
ENDBRANCH   2  16
TORSDOF 5
