REMARK  4 active torsions:
REMARK  status: ('A' for Active; 'I' for Inactive)
REMARK    1  A    between atoms: C_10  and  N_1 
REMARK       I    between atoms: C_6  and  N_9 
REMARK    2  A    between atoms: C_8  and  C_6 
REMARK    3  A    between atoms: N_9  and  C_12 
REMARK    4  A    between atoms: C_12  and  C_10 
ROOT
ATOM      1  C   UNL d   1      -2.533   1.137   0.000  0.00  0.00     0.101 C 
ENDROOT
BRANCH   1   2
ATOM      2  N   UNL d   1      -2.546   1.962   0.000  0.00  0.00    -0.304 N 
ATOM      3  C   UNL d   1      -1.883   2.458   0.000  0.00  0.00     0.064 A 
ATOM      4  C   UNL d   1      -2.146   3.237   0.000  0.00  0.00     0.019 A 
ATOM      5  C   UNL d   1      -1.096   2.212   0.000  0.00  0.00     0.019 C 
ATOM      6  C   UNL d   1      -2.971   3.233   0.000  0.00  0.00     0.018 A 
ATOM      7  C   UNL d   1      -3.221   2.446   0.000  0.00  0.00     0.064 A 
ATOM      8  C   UNL d   1      -3.533   3.833   0.000  0.00  0.00     0.002 A 
ATOM      9  C   UNL d   1      -4.021   2.258   0.000  0.00  0.00     0.018 A 
ATOM     10  C   UNL d   1      -4.583   2.858   0.000  0.00  0.00     0.002 A 
ATOM     11  C   UNL d   1      -4.346   3.658   0.000  0.00  0.00     0.000 A 
ENDBRANCH   1   2
BRANCH   1  12
ATOM     12  C   UNL d   1      -1.812   0.738   0.000  0.00  0.00     0.121 C 
BRANCH  12  13
ATOM     13  N   UNL d   1      -1.800  -0.087   0.000  0.00  0.00    -0.205 NA
ATOM     14  C   UNL d   1      -1.083  -0.492   0.000  0.00  0.00     0.279 C 
ATOM     15  O   UNL d   1      -1.071  -1.317   0.000  0.00  0.00    -0.265 OA
BRANCH  14  16
ATOM     16  C   UNL d   1      -0.371  -0.067   0.000  0.00  0.00     0.058 A 
ATOM     17  C   UNL d   1       0.329  -0.467   0.000  0.00  0.00     0.005 A 
ATOM     18  C   UNL d   1       1.042  -0.050   0.000  0.00  0.00     0.000 A 
ATOM     19  C   UNL d   1       1.054   0.771   0.000  0.00  0.00     0.000 A 
ATOM     20  C   UNL d   1       0.325   1.183   0.000  0.00  0.00     0.000 A 
ATOM     21  C   UNL d   1      -0.388   0.758   0.000  0.00  0.00     0.005 A 
ENDBRANCH  14  16
ENDBRANCH  12  13
ENDBRANCH   1  12
TORSDOF 4
