REMARK  6 active torsions:
REMARK  status: ('A' for Active; 'I' for Inactive)
REMARK    1  A    between atoms: S_15  and  C_4 
REMARK    2  A    between atoms: C_7  and  N_13 
REMARK    3  A    between atoms: S_20  and  C_11 
REMARK       I    between atoms: N_13  and  C_16 
REMARK    4  A    between atoms: C_21  and  S_15 
REMARK    5  A    between atoms: C_16  and  C_21 
REMARK    6  A    between atoms: C_23  and  S_20 
ROOT
ATOM      1  S   UNL d   1      -0.587   3.158   0.000  0.00  0.00    -0.044 SA
ENDROOT
BRANCH   1   2
ATOM      2  C   UNL d   1      -1.306   2.736   0.000  0.00  0.00     0.182 A 
ATOM      3  N   UNL d   1      -2.030   3.149   0.000  0.00  0.00    -0.222 NA
ATOM      4  C   UNL d   1      -2.732   2.736   0.000  0.00  0.00     0.095 A 
ATOM      5  C   UNL d   1      -2.732   1.911   0.000  0.00  0.00     0.104 A 
ATOM      6  C   UNL d   1      -3.515   2.993   0.000  0.00  0.00     0.026 A 
ATOM      7  C   UNL d   1      -2.030   1.499   0.000  0.00  0.00     0.274 A 
ATOM      8  S   UNL d   1      -3.515   1.659   0.000  0.00  0.00    -0.081 SA
ATOM      9  N   UNL d   1      -1.306   1.911   0.000  0.00  0.00    -0.251 N 
ATOM     10  O   UNL d   1      -2.030   0.674   0.000  0.00  0.00    -0.266 OA
ATOM     11  C   UNL d   1      -0.587   1.494   0.000  0.00  0.00     0.104 C 
ATOM     12  C   UNL d   1      -3.997   2.333   0.000  0.00  0.00     0.031 A 
ATOM     13  C   UNL d   1      -4.822   2.347   0.000  0.00  0.00     0.007 C 
ENDBRANCH   1   2
BRANCH   1  14
ATOM     14  C   UNL d   1       0.128   2.745   0.000  0.00  0.00     0.101 C 
BRANCH  14  15
ATOM     15  C   UNL d   1       0.843   3.158   0.000  0.00  0.00     0.288 C 
ATOM     16  N   UNL d   1       0.843   3.983   0.000  0.00  0.00    -0.181 NA
ATOM     17  O   UNL d   1       1.558   2.745   0.000  0.00  0.00    -0.265 OA
BRANCH  16  18
ATOM     18  C   UNL d   1       0.128   4.395   0.000  0.00  0.00     0.219 A 
ATOM     19  S   UNL d   1      -0.655   4.148   0.000  0.00  0.00    -0.019 SA
ATOM     20  C   UNL d   1      -1.137   4.812   0.000  0.00  0.00     0.165 A 
ATOM     21  N   UNL d   1      -0.655   5.463   0.000  0.00  0.00    -0.133 NA
ATOM     22  N   UNL d   1       0.128   5.216   0.000  0.00  0.00    -0.120 NA
BRANCH  20  23
ATOM     23  S   UNL d   1      -1.962   4.826   0.000  0.00  0.00    -0.059 SA
BRANCH  23  24
ATOM     24  C   UNL d   1      -2.379   4.120   0.000  0.00  0.00     0.037 C 
ATOM     25  C   UNL d   1      -3.213   4.134   0.000  0.00  0.00     0.008 C 
ENDBRANCH  23  24
ENDBRANCH  20  23
ENDBRANCH  16  18
ENDBRANCH  14  15
ENDBRANCH   1  14
TORSDOF 6
