REMARK  4 active torsions:
REMARK  status: ('A' for Active; 'I' for Inactive)
REMARK    1  A    between atoms: C_20  and  C_4 
REMARK    2  A    between atoms: C_8  and  C_9 
REMARK       I    between atoms: C_9  and  N_18 
REMARK    3  A    between atoms: N_18  and  C_21 
REMARK    4  A    between atoms: C_21  and  C_20 
ROOT
ATOM      1  N   UNL d   1      -1.725   2.150   0.000  0.00  0.00    -0.208 NA
ATOM      2  C   UNL d   1      -2.446   2.571   0.000  0.00  0.00     0.085 A 
ATOM      3  C   UNL d   1      -1.008   2.562   0.000  0.00  0.00     0.279 A 
ATOM      4  C   UNL d   1      -1.008   3.396   0.000  0.00  0.00     0.059 A 
ATOM      5  C   UNL d   1      -1.725   3.808   0.000  0.00  0.00     0.006 A 
ATOM      6  C   UNL d   1      -2.438   3.396   0.000  0.00  0.00     0.018 A 
ATOM      7  C   UNL d   1      -3.158   2.150   0.000  0.00  0.00     0.018 A 
ATOM      8  O   UNL d   1      -0.296   2.150   0.000  0.00  0.00    -0.265 OA
ATOM      9  C   UNL d   1      -3.871   2.562   0.000  0.00  0.00     0.002 A 
ATOM     10  C   UNL d   1      -3.158   3.808   0.000  0.00  0.00     0.002 A 
ATOM     11  C   UNL d   1      -3.871   3.396   0.000  0.00  0.00     0.000 A 
ATOM     12  C   UNL d   1      -3.150   1.325   0.000  0.00  0.00     0.002 C 
ATOM     13  C   UNL d   1      -4.583   2.150   0.000  0.00  0.00     0.000 C 
ENDROOT
BRANCH   4  14
ATOM     14  C   UNL d   1      -0.296   3.800   0.000  0.00  0.00     0.026 C 
BRANCH  14  15
ATOM     15  C   UNL d   1       0.417   3.396   0.000  0.00  0.00     0.102 C 
BRANCH  15  16
ATOM     16  N   UNL d   1       1.137   3.800   0.000  0.00  0.00    -0.206 NA
ATOM     17  C   UNL d   1       1.850   3.383   0.000  0.00  0.00     0.285 C 
ATOM     18  O   UNL d   1       1.850   2.562   0.000  0.00  0.00    -0.265 OA
BRANCH  17  19
ATOM     19  C   UNL d   1       2.567   3.796   0.000  0.00  0.00     0.087 A 
ATOM     20  S   UNL d   1       3.312   3.462   0.000  0.00  0.00    -0.082 SA
ATOM     21  C   UNL d   1       3.867   4.054   0.000  0.00  0.00     0.036 A 
ATOM     22  C   UNL d   1       3.462   4.779   0.000  0.00  0.00     0.008 A 
ATOM     23  C   UNL d   1       2.654   4.617   0.000  0.00  0.00     0.012 A 
ENDBRANCH  17  19
ENDBRANCH  15  16
ENDBRANCH  14  15
ENDBRANCH   4  14
TORSDOF 4
