REMARK  6 active torsions:
REMARK  status: ('A' for Active; 'I' for Inactive)
REMARK       I    between atoms: C_3  and  N_1 
REMARK    1  A    between atoms: C_4  and  N_1 
REMARK    2  A    between atoms: S_2  and  C_12 
REMARK    3  A    between atoms: C_6  and  C_3 
REMARK    4  A    between atoms: N_5  and  C_6 
REMARK       I    between atoms: C_7  and  N_5 
REMARK    5  A    between atoms: C_8  and  C_6 
REMARK    6  A    between atoms: C_12  and  C_8 
ROOT
ATOM      1  N   UNL d   1      -0.300   2.561   0.000  0.00  0.00    -0.207 NA
ATOM      2  C   UNL d   1      -1.014   2.974   0.000  0.00  0.00     0.297 C 
ATOM      3  O   UNL d   1      -1.009   3.804   0.000  0.00  0.00    -0.264 OA
ENDROOT
BRANCH   2   4
ATOM      4  C   UNL d   1      -1.735   2.561   0.000  0.00  0.00     0.143 C 
BRANCH   4   5
ATOM      5  N   UNL d   1      -1.735   1.735   0.000  0.00  0.00    -0.203 NA
ATOM      6  C   UNL d   1      -2.448   1.322   0.000  0.00  0.00     0.280 C 
ATOM      7  O   UNL d   1      -3.162   1.735   0.000  0.00  0.00    -0.265 OA
ATOM      8  C   UNL d   1      -2.448   0.496   0.000  0.00  0.00     0.068 C 
ENDBRANCH   4   5
BRANCH   4   9
ATOM      9  C   UNL d   1      -2.448   2.974   0.000  0.00  0.00     0.036 C 
BRANCH   9  10
ATOM     10  C   UNL d   1      -3.162   2.561   0.000  0.00  0.00     0.096 C 
BRANCH  10  11
ATOM     11  S   UNL d   1      -3.875   2.974   0.000  0.00  0.00     0.192 S 
ATOM     12  O   UNL d   1      -3.291   3.566   0.000  0.00  0.00    -0.222 OA
ATOM     13  O   UNL d   1      -4.463   3.566   0.000  0.00  0.00    -0.222 OA
ATOM     14  C   UNL d   1      -4.588   2.561   0.000  0.00  0.00     0.145 C 
ENDBRANCH  10  11
ENDBRANCH   9  10
ENDBRANCH   4   9
ENDBRANCH   2   4
BRANCH   1  15
ATOM     15  C   UNL d   1       0.430   2.986   0.000  0.00  0.00     0.085 A 
ATOM     16  C   UNL d   1       0.417   3.800   0.000  0.00  0.00     0.018 A 
ATOM     17  C   UNL d   1       1.143   4.209   0.000  0.00  0.00     0.002 A 
ATOM     18  C   UNL d   1      -0.284   4.221   0.000  0.00  0.00     0.002 C 
ATOM     19  C   UNL d   1       1.864   3.804   0.000  0.00  0.00     0.000 A 
ATOM     20  C   UNL d   1       1.856   2.974   0.000  0.00  0.00     0.002 A 
ATOM     21  C   UNL d   1       1.130   2.553   0.000  0.00  0.00     0.018 A 
ATOM     22  C   UNL d   1       1.143   1.735   0.000  0.00  0.00     0.002 C 
ENDBRANCH   1  15
TORSDOF 6
