REMARK  6 active torsions:
REMARK  status: ('A' for Active; 'I' for Inactive)
REMARK    1  A    between atoms: C_13  and  S_1 
REMARK    2  A    between atoms: C_2  and  C_6 
REMARK       I    between atoms: N_3  and  C_2 
REMARK    3  A    between atoms: C_4  and  N_3 
REMARK    4  A    between atoms: N_5  and  C_6 
REMARK       I    between atoms: C_7  and  N_5 
REMARK    5  A    between atoms: C_6  and  C_9 
REMARK    6  A    between atoms: C_9  and  C_13 
ROOT
ATOM      1  C   UNL d   1      -1.012   2.971   0.000  0.00  0.00     0.297 C 
ATOM      2  N   UNL d   1      -0.300   2.558   0.000  0.00  0.00    -0.207 NA
ATOM      3  O   UNL d   1      -1.008   3.800   0.000  0.00  0.00    -0.264 OA
ENDROOT
BRANCH   1   4
ATOM      4  C   UNL d   1      -1.733   2.558   0.000  0.00  0.00     0.143 C 
BRANCH   4   5
ATOM      5  N   UNL d   1      -1.733   1.733   0.000  0.00  0.00    -0.203 NA
ATOM      6  C   UNL d   1      -2.446   1.321   0.000  0.00  0.00     0.280 C 
ATOM      7  O   UNL d   1      -3.158   1.733   0.000  0.00  0.00    -0.265 OA
ATOM      8  C   UNL d   1      -2.446   0.496   0.000  0.00  0.00     0.068 C 
ENDBRANCH   4   5
BRANCH   4   9
ATOM      9  C   UNL d   1      -2.446   2.971   0.000  0.00  0.00     0.036 C 
BRANCH   9  10
ATOM     10  C   UNL d   1      -3.158   2.558   0.000  0.00  0.00     0.096 C 
BRANCH  10  11
ATOM     11  S   UNL d   1      -3.871   2.971   0.000  0.00  0.00     0.192 S 
ATOM     12  O   UNL d   1      -4.458   3.562   0.000  0.00  0.00    -0.222 OA
ATOM     13  O   UNL d   1      -3.288   3.562   0.000  0.00  0.00    -0.222 OA
ATOM     14  C   UNL d   1      -4.583   2.558   0.000  0.00  0.00     0.145 C 
ENDBRANCH  10  11
ENDBRANCH   9  10
ENDBRANCH   4   9
ENDBRANCH   1   4
BRANCH   2  15
ATOM     15  C   UNL d   1       0.417   2.971   0.000  0.00  0.00     0.085 A 
ATOM     16  C   UNL d   1       1.137   2.558   0.000  0.00  0.00     0.018 A 
ATOM     17  C   UNL d   1       1.854   2.962   0.000  0.00  0.00     0.002 A 
ATOM     18  C   UNL d   1       1.125   1.733   0.000  0.00  0.00     0.002 A 
ATOM     19  C   UNL d   1       2.567   2.558   0.000  0.00  0.00     0.000 A 
ATOM     20  C   UNL d   1       1.854   3.800   0.000  0.00  0.00     0.000 A 
ATOM     21  C   UNL d   1       2.562   1.725   0.000  0.00  0.00     0.000 A 
ATOM     22  C   UNL d   1       1.842   1.321   0.000  0.00  0.00     0.000 A 
ATOM     23  C   UNL d   1       1.137   4.200   0.000  0.00  0.00     0.002 A 
ATOM     24  C   UNL d   1       0.425   3.796   0.000  0.00  0.00     0.019 A 
ENDBRANCH   2  15
TORSDOF 6
