REMARK  5 active torsions:
REMARK  status: ('A' for Active; 'I' for Inactive)
REMARK    1  A    between atoms: C_8  and  N_1 
REMARK    2  A    between atoms: C_5  and  C_21 
REMARK    3  A    between atoms: C_9  and  C_12 
REMARK       I    between atoms: N_20  and  C_9 
REMARK    4  A    between atoms: C_22  and  N_20 
REMARK    5  A    between atoms: C_21  and  C_22 
ROOT
ATOM      1  C   UNL d   1      -0.296   3.808   0.000  0.00  0.00     0.026 C 
ENDROOT
BRANCH   1   2
ATOM      2  C   UNL d   1      -1.010   3.403   0.000  0.00  0.00     0.059 A 
ATOM      3  C   UNL d   1      -1.010   2.568   0.000  0.00  0.00     0.279 A 
ATOM      4  N   UNL d   1      -1.729   2.155   0.000  0.00  0.00    -0.208 NA
ATOM      5  O   UNL d   1      -0.296   2.155   0.000  0.00  0.00    -0.265 OA
ATOM      6  C   UNL d   1      -2.451   2.576   0.000  0.00  0.00     0.085 A 
ATOM      7  C   UNL d   1      -2.443   3.403   0.000  0.00  0.00     0.018 A 
ATOM      8  C   UNL d   1      -3.165   2.155   0.000  0.00  0.00     0.019 A 
ATOM      9  C   UNL d   1      -1.729   3.816   0.000  0.00  0.00     0.006 A 
ATOM     10  C   UNL d   1      -3.165   3.816   0.000  0.00  0.00     0.002 A 
ATOM     11  C   UNL d   1      -3.879   3.403   0.000  0.00  0.00     0.000 A 
ATOM     12  C   UNL d   1      -3.879   2.568   0.000  0.00  0.00     0.002 A 
ATOM     13  C   UNL d   1      -4.593   3.808   0.000  0.00  0.00     0.000 C 
ATOM     14  C   UNL d   1      -4.593   2.155   0.000  0.00  0.00     0.000 C 
ENDBRANCH   1   2
BRANCH   1  15
ATOM     15  C   UNL d   1       0.418   3.403   0.000  0.00  0.00     0.102 C 
BRANCH  15  16
ATOM     16  N   UNL d   1       1.140   3.808   0.000  0.00  0.00    -0.206 NA
ATOM     17  C   UNL d   1       1.854   3.390   0.000  0.00  0.00     0.279 C 
ATOM     18  O   UNL d   1       1.854   2.568   0.000  0.00  0.00    -0.265 OA
BRANCH  17  19
ATOM     19  C   UNL d   1       2.572   3.804   0.000  0.00  0.00     0.059 A 
ATOM     20  C   UNL d   1       2.580   4.614   0.000  0.00  0.00     0.028 A 
ATOM     21  C   UNL d   1       3.273   5.040   0.000  0.00  0.00     0.127 A 
ATOM     22  C   UNL d   1       3.987   4.635   0.000  0.00  0.00     0.024 A 
ATOM     23  C   UNL d   1       4.013   3.820   0.000  0.00  0.00     0.002 A 
ATOM     24  C   UNL d   1       3.286   3.403   0.000  0.00  0.00     0.005 A 
BRANCH  21  25
ATOM     25  N   UNL d   1       3.286   5.866   0.000  0.00  0.00    -0.114 N 
ATOM     26  O   UNL d   1       2.547   6.288   0.000  0.00  0.00    -0.532 OA
ATOM     27  O   UNL d   1       3.987   6.313   0.000  0.00  0.00    -0.532 OA
ENDBRANCH  21  25
ENDBRANCH  17  19
ENDBRANCH  15  16
ENDBRANCH   1  15
TORSDOF 5
