REMARK  5 active torsions:
REMARK  status: ('A' for Active; 'I' for Inactive)
REMARK    1  A    between atoms: C_7  and  C_1 
REMARK    2  A    between atoms: C_10  and  C_3 
REMARK    3  A    between atoms: C_8  and  C_4 
REMARK    4  A    between atoms: O_14  and  C_7 
REMARK    5  A    between atoms: C_20  and  O_14 
ROOT
ATOM      1  C   UNL d   1      -2.451   2.564   0.000  0.00  0.00     0.102 A 
ATOM      2  C   UNL d   1      -3.165   2.990   0.000  0.00  0.00     0.201 A 
ATOM      3  C   UNL d   1      -2.451   1.737   0.000  0.00  0.00     0.008 A 
ATOM      4  C   UNL d   1      -3.870   1.737   0.000  0.00  0.00     0.003 A 
ATOM      5  C   UNL d   1      -3.870   2.564   0.000  0.00  0.00     0.042 A 
ATOM      6  C   UNL d   1      -3.165   1.328   0.000  0.00  0.00     0.000 A 
ATOM      7  O   UNL d   1      -3.165   3.808   0.000  0.00  0.00    -0.286 OA
ENDROOT
BRANCH   4   8
ATOM      8  C   UNL d   1      -4.593   1.328   0.000  0.00  0.00     0.000 A 
ATOM      9  C   UNL d   1      -4.593   0.497   0.000  0.00  0.00     0.000 A 
ATOM     10  C   UNL d   1      -5.294   0.088   0.000  0.00  0.00     0.000 A 
ATOM     11  C   UNL d   1      -6.012   0.514   0.000  0.00  0.00     0.000 A 
ATOM     12  C   UNL d   1      -6.000   1.328   0.000  0.00  0.00     0.000 A 
ATOM     13  C   UNL d   1      -6.731   0.100   0.000  0.00  0.00     0.000 C 
ATOM     14  C   UNL d   1      -5.294   1.737   0.000  0.00  0.00     0.000 A 
ENDBRANCH   4   8
BRANCH   3  15
ATOM     15  C   UNL d   1      -1.737   1.328   0.000  0.00  0.00     0.000 A 
ATOM     16  C   UNL d   1      -1.749   0.501   0.000  0.00  0.00     0.000 A 
ATOM     17  C   UNL d   1      -1.027   0.096   0.000  0.00  0.00     0.000 A 
ATOM     18  C   UNL d   1      -0.322   0.488   0.000  0.00  0.00     0.000 A 
ATOM     19  C   UNL d   1      -0.322   1.328   0.000  0.00  0.00     0.000 A 
ATOM     20  C   UNL d   1      -1.035   1.741   0.000  0.00  0.00     0.000 A 
ENDBRANCH   3  15
BRANCH   1  21
ATOM     21  C   UNL d   1      -1.729   2.977   0.000  0.00  0.00     0.303 C 
ATOM     22  O   UNL d   1      -1.724   3.804   0.000  0.00  0.00    -0.259 OA
BRANCH  21  23
ATOM     23  O   UNL d   1      -1.010   2.564   0.000  0.00  0.00    -0.271 OA
BRANCH  23  24
ATOM     24  C   UNL d   1      -0.296   2.977   0.000  0.00  0.00     0.126 C 
ATOM     25  C   UNL d   1       0.418   2.564   0.000  0.00  0.00     0.029 C 
ENDBRANCH  23  24
ENDBRANCH  21  23
ENDBRANCH   1  21
TORSDOF 5
