REMARK  4 active torsions:
REMARK  status: ('A' for Active; 'I' for Inactive)
REMARK    1  A    between atoms: C_10  and  N_1 
REMARK       I    between atoms: C_3  and  N_9 
REMARK    2  A    between atoms: C_6  and  C_3 
REMARK    3  A    between atoms: N_9  and  C_11 
REMARK    4  A    between atoms: C_11  and  C_10 
ROOT
ATOM      1  N   UNL d   1      -2.547   1.963   0.000  0.00  0.00    -0.303 N 
ATOM      2  C   UNL d   1      -1.884   2.459   0.000  0.00  0.00     0.080 A 
ATOM      3  C   UNL d   1      -3.222   2.447   0.000  0.00  0.00     0.064 A 
ATOM      4  C   UNL d   1      -2.147   3.239   0.000  0.00  0.00     0.021 A 
ATOM      5  C   UNL d   1      -2.972   3.235   0.000  0.00  0.00     0.018 A 
ATOM      6  C   UNL d   1      -4.022   2.259   0.000  0.00  0.00     0.018 A 
ATOM      7  C   UNL d   1      -3.535   3.835   0.000  0.00  0.00     0.002 A 
ATOM      8  C   UNL d   1      -4.585   2.859   0.000  0.00  0.00     0.002 A 
ATOM      9  C   UNL d   1      -4.348   3.660   0.000  0.00  0.00     0.000 A 
ENDROOT
BRANCH   1  10
ATOM     10  C   UNL d   1      -2.534   1.138   0.000  0.00  0.00     0.101 C 
BRANCH  10  11
ATOM     11  C   UNL d   1      -1.813   0.738   0.000  0.00  0.00     0.121 C 
BRANCH  11  12
ATOM     12  N   UNL d   1      -1.801  -0.087   0.000  0.00  0.00    -0.209 NA
ATOM     13  C   UNL d   1      -1.084  -0.492   0.000  0.00  0.00     0.255 C 
ATOM     14  O   UNL d   1      -1.071  -1.317   0.000  0.00  0.00    -0.270 OA
BRANCH  13  15
ATOM     15  C   UNL d   1      -0.371  -0.067   0.000  0.00  0.00     0.073 C 
ATOM     16  C   UNL d   1      -0.796   0.646   0.000  0.00  0.00     0.009 C 
ATOM     17  C   UNL d   1       0.338   0.350   0.000  0.00  0.00     0.009 C 
ATOM     18  C   UNL d   1       0.042  -0.779   0.000  0.00  0.00     0.009 C 
ENDBRANCH  13  15
ENDBRANCH  11  12
ENDBRANCH  10  11
ENDBRANCH   1  10
TORSDOF 4
