REMARK  5 active torsions:
REMARK  status: ('A' for Active; 'I' for Inactive)
REMARK    1  A    between atoms: C_15  and  C_4 
REMARK       I    between atoms: C_11  and  N_14 
REMARK    2  A    between atoms: C_19  and  C_11 
REMARK    3  A    between atoms: N_14  and  C_16 
REMARK    4  A    between atoms: C_16  and  C_15 
REMARK    5  A    between atoms: C_20  and  C_19 
ROOT
ATOM      1  N   UNL d   1      -1.725   2.150   0.000  0.00  0.00    -0.208 NA
ATOM      2  C   UNL d   1      -1.008   2.562   0.000  0.00  0.00     0.279 A 
ATOM      3  C   UNL d   1      -2.446   2.571   0.000  0.00  0.00     0.085 A 
ATOM      4  C   UNL d   1      -1.008   3.396   0.000  0.00  0.00     0.059 A 
ATOM      5  C   UNL d   1      -1.725   3.808   0.000  0.00  0.00     0.006 A 
ATOM      6  C   UNL d   1      -2.438   3.396   0.000  0.00  0.00     0.018 A 
ATOM      7  C   UNL d   1      -3.158   2.150   0.000  0.00  0.00     0.019 A 
ATOM      8  C   UNL d   1      -3.158   3.808   0.000  0.00  0.00     0.002 A 
ATOM      9  C   UNL d   1      -3.871   3.396   0.000  0.00  0.00     0.000 A 
ATOM     10  C   UNL d   1      -3.871   2.562   0.000  0.00  0.00     0.002 A 
ATOM     11  O   UNL d   1      -0.296   2.150   0.000  0.00  0.00    -0.265 OA
ATOM     12  C   UNL d   1      -4.583   3.800   0.000  0.00  0.00     0.000 C 
ATOM     13  C   UNL d   1      -4.583   2.150   0.000  0.00  0.00     0.000 C 
ENDROOT
BRANCH   4  14
ATOM     14  C   UNL d   1      -0.296   3.800   0.000  0.00  0.00     0.026 C 
BRANCH  14  15
ATOM     15  C   UNL d   1       0.417   3.396   0.000  0.00  0.00     0.102 C 
BRANCH  15  16
ATOM     16  N   UNL d   1       1.137   3.800   0.000  0.00  0.00    -0.206 NA
ATOM     17  C   UNL d   1       1.850   3.383   0.000  0.00  0.00     0.279 C 
ATOM     18  O   UNL d   1       1.850   2.562   0.000  0.00  0.00    -0.265 OA
BRANCH  17  19
ATOM     19  C   UNL d   1       2.567   3.796   0.000  0.00  0.00     0.062 C 
BRANCH  19  20
ATOM     20  C   UNL d   1       2.567   4.625   0.000  0.00  0.00     0.005 C 
ATOM     21  C   UNL d   1       1.867   5.042   0.000  0.00  0.00     0.000 C 
ENDBRANCH  19  20
ENDBRANCH  17  19
ENDBRANCH  15  16
ENDBRANCH  14  15
ENDBRANCH   4  14
TORSDOF 5
