REMARK  3 active torsions:
REMARK  status: ('A' for Active; 'I' for Inactive)
REMARK    1  A    between atoms: N_9  and  C_7 
REMARK       I    between atoms: C_10  and  N_9 
REMARK    2  A    between atoms: C_13  and  C_10 
REMARK    3  A    between atoms: O_23  and  C_18 
ROOT
ATOM      1  C   UNL d   1      -1.750   0.100   0.000  0.00  0.00     0.081 A 
ATOM      2  C   UNL d   1      -1.742  -0.719   0.000  0.00  0.00     0.301 A 
ATOM      3  C   UNL d   1      -2.456   0.522   0.000  0.00  0.00     0.090 A 
ATOM      4  O   UNL d   1      -2.465  -1.132   0.000  0.00  0.00    -0.273 OA
ATOM      5  N   UNL d   1      -2.452   1.349   0.000  0.00  0.00    -0.226 NA
ATOM      6  C   UNL d   1      -3.171   0.109   0.000  0.00  0.00     0.041 A 
ATOM      7  C   UNL d   1      -1.725   1.754   0.000  0.00  0.00     0.166 A 
ATOM      8  C   UNL d   1      -1.028   0.510   0.000  0.00  0.00     0.010 A 
ATOM      9  C   UNL d   1      -3.179  -0.719   0.000  0.00  0.00     0.105 A 
ATOM     10  C   UNL d   1      -1.015   1.337   0.000  0.00  0.00     0.039 A 
ATOM     11  O   UNL d   1      -1.028  -1.140   0.000  0.00  0.00    -0.259 OA
ATOM     12  C   UNL d   1      -3.885   0.526   0.000  0.00  0.00     0.004 A 
ATOM     13  C   UNL d   1      -0.322   0.084   0.000  0.00  0.00     0.000 C 
ATOM     14  C   UNL d   1      -3.885  -1.128   0.000  0.00  0.00     0.025 A 
ATOM     15  C   UNL d   1      -4.595   0.109   0.000  0.00  0.00     0.000 A 
ATOM     16  C   UNL d   1      -4.595  -0.719   0.000  0.00  0.00     0.002 A 
ENDROOT
BRANCH   7  17
ATOM     17  N   UNL d   1      -1.717   2.590   0.000  0.00  0.00    -0.189 NA
ATOM     18  C   UNL d   1      -0.998   2.991   0.000  0.00  0.00     0.281 C 
ATOM     19  O   UNL d   1      -0.284   2.565   0.000  0.00  0.00    -0.265 OA
BRANCH  18  20
ATOM     20  C   UNL d   1      -0.986   3.805   0.000  0.00  0.00     0.058 A 
ATOM     21  C   UNL d   1      -0.259   4.215   0.000  0.00  0.00     0.007 A 
ATOM     22  C   UNL d   1      -0.246   5.042   0.000  0.00  0.00     0.024 A 
ATOM     23  C   UNL d   1      -0.973   5.443   0.000  0.00  0.00     0.094 A 
ATOM     24  C   UNL d   1      -1.688   5.042   0.000  0.00  0.00     0.024 A 
ATOM     25  C   UNL d   1      -1.688   4.223   0.000  0.00  0.00     0.007 A 
BRANCH  23  26
ATOM     26  O   UNL d   1      -0.973   6.279   0.000  0.00  0.00    -0.328 OA
ATOM     27  C   UNL d   1      -1.679   6.709   0.000  0.00  0.00     0.181 C 
ENDBRANCH  23  26
ENDBRANCH  18  20
ENDBRANCH   7  17
TORSDOF 3
