REMARK  3 active torsions:
REMARK  status: ('A' for Active; 'I' for Inactive)
REMARK    1  A    between atoms: S_8  and  C_2 
REMARK    2  A    between atoms: C_13  and  S_8 
REMARK    3  A    between atoms: C_15  and  C_13 
ROOT
ATOM      1  C   UNL d   1      -2.732   1.911   0.000  0.00  0.00     0.104 A 
ATOM      2  C   UNL d   1      -1.306   2.736   0.000  0.00  0.00     0.182 A 
ATOM      3  N   UNL d   1      -1.306   1.911   0.000  0.00  0.00    -0.251 N 
ATOM      4  C   UNL d   1      -2.030   1.499   0.000  0.00  0.00     0.274 A 
ATOM      5  C   UNL d   1      -2.732   2.736   0.000  0.00  0.00     0.095 A 
ATOM      6  N   UNL d   1      -2.030   3.149   0.000  0.00  0.00    -0.222 NA
ATOM      7  S   UNL d   1      -3.515   1.659   0.000  0.00  0.00    -0.081 SA
ATOM      8  C   UNL d   1      -3.515   2.993   0.000  0.00  0.00     0.026 A 
ATOM      9  O   UNL d   1      -2.030   0.674   0.000  0.00  0.00    -0.266 OA
ATOM     10  C   UNL d   1      -3.997   2.333   0.000  0.00  0.00     0.031 A 
ATOM     11  C   UNL d   1      -0.587   1.494   0.000  0.00  0.00     0.104 C 
ATOM     12  C   UNL d   1      -4.822   2.347   0.000  0.00  0.00     0.007 C 
ENDROOT
BRANCH   2  13
ATOM     13  S   UNL d   1      -0.587   3.158   0.000  0.00  0.00    -0.050 SA
BRANCH  13  14
ATOM     14  C   UNL d   1       0.128   2.745   0.000  0.00  0.00     0.032 C 
ATOM     15  C   UNL d   1       0.128   1.920   0.000  0.00  0.00     0.007 C 
BRANCH  14  16
ATOM     16  C   UNL d   1       0.839   3.158   0.000  0.00  0.00     0.007 C 
ATOM     17  C   UNL d   1       1.554   2.745   0.000  0.00  0.00     0.001 C 
ENDBRANCH  14  16
ENDBRANCH  13  14
ENDBRANCH   2  13
TORSDOF 3
