REMARK  5 active torsions:
REMARK  status: ('A' for Active; 'I' for Inactive)
REMARK    1  A    between atoms: C_8  and  C_1 
REMARK    2  A    between atoms: C_11  and  C_3 
REMARK    3  A    between atoms: C_7  and  C_4 
REMARK    4  A    between atoms: O_16  and  C_8 
REMARK    5  A    between atoms: C_19  and  O_16 
ROOT
ATOM      1  C   UNL d   1      -2.446   2.558   0.000  0.00  0.00     0.102 A 
ATOM      2  C   UNL d   1      -3.158   2.983   0.000  0.00  0.00     0.201 A 
ATOM      3  C   UNL d   1      -2.446   1.733   0.000  0.00  0.00     0.008 A 
ATOM      4  C   UNL d   1      -3.862   1.733   0.000  0.00  0.00     0.009 A 
ATOM      5  C   UNL d   1      -3.862   2.558   0.000  0.00  0.00     0.043 A 
ATOM      6  C   UNL d   1      -3.158   1.325   0.000  0.00  0.00     0.001 A 
ATOM      7  O   UNL d   1      -3.158   3.800   0.000  0.00  0.00    -0.286 OA
ENDROOT
BRANCH   3   8
ATOM      8  C   UNL d   1      -1.733   1.325   0.000  0.00  0.00     0.000 A 
ATOM      9  C   UNL d   1      -1.746   0.500   0.000  0.00  0.00     0.000 A 
ATOM     10  C   UNL d   1      -1.025   0.096   0.000  0.00  0.00     0.000 A 
ATOM     11  C   UNL d   1      -0.321   0.487   0.000  0.00  0.00     0.000 A 
ATOM     12  C   UNL d   1      -0.321   1.325   0.000  0.00  0.00     0.000 A 
ATOM     13  C   UNL d   1      -1.033   1.738   0.000  0.00  0.00     0.000 A 
ENDBRANCH   3   8
BRANCH   1  14
ATOM     14  C   UNL d   1      -1.725   2.971   0.000  0.00  0.00     0.303 C 
ATOM     15  O   UNL d   1      -1.721   3.796   0.000  0.00  0.00    -0.259 OA
BRANCH  14  16
ATOM     16  O   UNL d   1      -1.008   2.558   0.000  0.00  0.00    -0.271 OA
BRANCH  16  17
ATOM     17  C   UNL d   1      -0.296   2.971   0.000  0.00  0.00     0.126 C 
ATOM     18  C   UNL d   1       0.417   2.558   0.000  0.00  0.00     0.029 C 
ENDBRANCH  16  17
ENDBRANCH  14  16
ENDBRANCH   1  14
BRANCH   4  19
ATOM     19  C   UNL d   1      -4.583   1.325   0.000  0.00  0.00     0.030 A 
ATOM     20  S   UNL d   1      -5.333   1.658   0.000  0.00  0.00    -0.086 SA
ATOM     21  C   UNL d   1      -5.871   1.058   0.000  0.00  0.00     0.035 A 
ATOM     22  C   UNL d   1      -5.471   0.333   0.000  0.00  0.00     0.007 A 
ATOM     23  C   UNL d   1      -4.662   0.496   0.000  0.00  0.00     0.007 A 
ENDBRANCH   4  19
TORSDOF 5
