REMARK  6 active torsions:
REMARK  status: ('A' for Active; 'I' for Inactive)
REMARK    1  A    between atoms: C_11  and  S_1 
REMARK    2  A    between atoms: C_2  and  C_5 
REMARK       I    between atoms: N_3  and  C_2 
REMARK    3  A    between atoms: C_12  and  N_3 
REMARK    4  A    between atoms: N_4  and  C_5 
REMARK       I    between atoms: C_6  and  N_4 
REMARK    5  A    between atoms: C_5  and  C_7 
REMARK    6  A    between atoms: C_7  and  C_11 
ROOT
ATOM      1  C   UNL d   1      -1.730   2.554   0.000  0.00  0.00     0.143 C 
ENDROOT
BRANCH   1   2
ATOM      2  C   UNL d   1      -1.011   2.966   0.000  0.00  0.00     0.297 C 
ATOM      3  N   UNL d   1      -0.299   2.554   0.000  0.00  0.00    -0.207 NA
ATOM      4  O   UNL d   1      -1.007   3.794   0.000  0.00  0.00    -0.264 OA
BRANCH   3   5
ATOM      5  C   UNL d   1       0.424   2.978   0.000  0.00  0.00     0.085 A 
ATOM      6  C   UNL d   1       1.123   2.533   0.000  0.00  0.00     0.019 A 
ATOM      7  C   UNL d   1       1.851   2.953   0.000  0.00  0.00     0.002 A 
ATOM      8  C   UNL d   1       2.571   2.517   0.000  0.00  0.00     0.000 C 
ATOM      9  C   UNL d   1       1.863   3.764   0.000  0.00  0.00     0.000 A 
ATOM     10  C   UNL d   1       1.148   4.180   0.000  0.00  0.00     0.002 A 
ATOM     11  C   UNL d   1       0.428   3.777   0.000  0.00  0.00     0.019 A 
ENDBRANCH   3   5
ENDBRANCH   1   2
BRANCH   1  12
ATOM     12  N   UNL d   1      -1.730   1.730   0.000  0.00  0.00    -0.203 NA
ATOM     13  C   UNL d   1      -2.442   1.319   0.000  0.00  0.00     0.280 C 
ATOM     14  O   UNL d   1      -3.153   1.730   0.000  0.00  0.00    -0.265 OA
ATOM     15  C   UNL d   1      -2.442   0.495   0.000  0.00  0.00     0.068 C 
ENDBRANCH   1  12
BRANCH   1  16
ATOM     16  C   UNL d   1      -2.442   2.966   0.000  0.00  0.00     0.036 C 
BRANCH  16  17
ATOM     17  C   UNL d   1      -3.153   2.554   0.000  0.00  0.00     0.096 C 
BRANCH  17  18
ATOM     18  S   UNL d   1      -3.864   2.966   0.000  0.00  0.00     0.192 S 
ATOM     19  O   UNL d   1      -4.451   3.557   0.000  0.00  0.00    -0.222 OA
ATOM     20  O   UNL d   1      -3.282   3.557   0.000  0.00  0.00    -0.222 OA
ATOM     21  C   UNL d   1      -4.576   2.554   0.000  0.00  0.00     0.145 C 
ENDBRANCH  17  18
ENDBRANCH  16  17
ENDBRANCH   1  16
TORSDOF 6
