REMARK  5 active torsions:
REMARK  status: ('A' for Active; 'I' for Inactive)
REMARK    1  A    between atoms: C_4  and  S_1 
REMARK    2  A    between atoms: N_12  and  S_1 
REMARK    3  A    between atoms: N_2  and  C_17 
REMARK    4  A    between atoms: C_16  and  N_12 
REMARK    5  A    between atoms: C_17  and  C_16 
ROOT
ATOM      1  N   UNL d   1      -1.800  -0.087   0.000  0.00  0.00    -0.155 NA
ENDROOT
BRANCH   1   2
ATOM      2  S   UNL d   1      -1.083  -0.492   0.000  0.00  0.00     0.285 S 
ATOM      3  O   UNL d   1      -0.500  -1.075   0.000  0.00  0.00    -0.198 OA
ATOM      4  O   UNL d   1      -1.671  -1.075   0.000  0.00  0.00    -0.198 OA
BRANCH   2   5
ATOM      5  C   UNL d   1      -0.508   0.108   0.000  0.00  0.00     0.105 A 
ATOM      6  C   UNL d   1       0.292  -0.092   0.000  0.00  0.00     0.012 A 
ATOM      7  C   UNL d   1       0.863   0.496   0.000  0.00  0.00     0.001 A 
ATOM      8  C   UNL d   1       0.525  -0.888   0.000  0.00  0.00     0.001 C 
ATOM      9  C   UNL d   1       0.637   1.296   0.000  0.00  0.00     0.000 A 
ATOM     10  C   UNL d   1      -0.171   1.488   0.000  0.00  0.00     0.001 A 
ATOM     11  C   UNL d   1       1.200   1.896   0.000  0.00  0.00     0.000 C 
ATOM     12  C   UNL d   1      -0.738   0.888   0.000  0.00  0.00     0.012 A 
ATOM     13  C   UNL d   1      -1.538   1.083   0.000  0.00  0.00     0.001 C 
ENDBRANCH   2   5
ENDBRANCH   1   2
BRANCH   1  14
ATOM     14  C   UNL d   1      -1.813   0.738   0.000  0.00  0.00     0.131 C 
BRANCH  14  15
ATOM     15  C   UNL d   1      -2.534   1.138   0.000  0.00  0.00     0.102 C 
BRANCH  15  16
ATOM     16  N   UNL d   1      -2.546   1.963   0.000  0.00  0.00    -0.304 N 
ATOM     17  C   UNL d   1      -1.883   2.458   0.000  0.00  0.00     0.064 A 
ATOM     18  C   UNL d   1      -2.146   3.238   0.000  0.00  0.00     0.019 A 
ATOM     19  C   UNL d   1      -1.096   2.213   0.000  0.00  0.00     0.019 C 
ATOM     20  C   UNL d   1      -2.971   3.233   0.000  0.00  0.00     0.018 A 
ATOM     21  C   UNL d   1      -3.221   2.446   0.000  0.00  0.00     0.064 A 
ATOM     22  C   UNL d   1      -3.534   3.834   0.000  0.00  0.00     0.002 A 
ATOM     23  C   UNL d   1      -4.021   2.259   0.000  0.00  0.00     0.018 A 
ATOM     24  C   UNL d   1      -4.584   2.858   0.000  0.00  0.00     0.002 A 
ATOM     25  C   UNL d   1      -4.346   3.659   0.000  0.00  0.00     0.000 A 
ENDBRANCH  15  16
ENDBRANCH  14  15
ENDBRANCH   1  14
TORSDOF 5
