REMARK  8 active torsions:
REMARK  status: ('A' for Active; 'I' for Inactive)
REMARK    1  A    between atoms: C_16  and  N_1 
REMARK    2  A    between atoms: S_7  and  C_2 
REMARK       I    between atoms: C_6  and  N_12 
REMARK    3  A    between atoms: C_9  and  C_6 
REMARK    4  A    between atoms: C_13  and  S_7 
REMARK    5  A    between atoms: C_8  and  C_13 
REMARK    6  A    between atoms: N_12  and  C_22 
REMARK    7  A    between atoms: C_22  and  C_16 
REMARK    8  A    between atoms: O_24  and  C_18 
ROOT
ATOM      1  N   UNL d   1      -2.546   0.508   0.000  0.00  0.00    -0.302 N 
ATOM      2  C   UNL d   1      -2.138   1.783   0.000  0.00  0.00     0.049 A 
ATOM      3  C   UNL d   1      -1.875   1.000   0.000  0.00  0.00     0.087 A 
ATOM      4  C   UNL d   1      -2.971   1.783   0.000  0.00  0.00     0.024 A 
ATOM      5  C   UNL d   1      -3.221   0.988   0.000  0.00  0.00     0.065 A 
ATOM      6  C   UNL d   1      -3.533   2.383   0.000  0.00  0.00     0.002 A 
ATOM      7  C   UNL d   1      -4.033   0.808   0.000  0.00  0.00     0.018 A 
ATOM      8  C   UNL d   1      -4.333   2.208   0.000  0.00  0.00     0.000 A 
ATOM      9  C   UNL d   1      -4.583   1.413   0.000  0.00  0.00     0.002 A 
ENDROOT
BRANCH   1  10
ATOM     10  C   UNL d   1      -2.538  -0.317   0.000  0.00  0.00     0.101 C 
BRANCH  10  11
ATOM     11  C   UNL d   1      -1.821  -0.725   0.000  0.00  0.00     0.121 C 
BRANCH  11  12
ATOM     12  N   UNL d   1      -1.812  -1.550   0.000  0.00  0.00    -0.205 NA
ATOM     13  C   UNL d   1      -1.096  -1.954   0.000  0.00  0.00     0.279 C 
ATOM     14  O   UNL d   1      -0.383  -1.538   0.000  0.00  0.00    -0.265 OA
BRANCH  13  15
ATOM     15  C   UNL d   1      -1.087  -2.779   0.000  0.00  0.00     0.058 A 
ATOM     16  C   UNL d   1      -1.808  -3.204   0.000  0.00  0.00     0.007 A 
ATOM     17  C   UNL d   1      -1.800  -4.029   0.000  0.00  0.00     0.024 A 
ATOM     18  C   UNL d   1      -1.071  -4.425   0.000  0.00  0.00     0.094 A 
ATOM     19  C   UNL d   1      -0.362  -4.004   0.000  0.00  0.00     0.024 A 
ATOM     20  C   UNL d   1      -0.375  -3.188   0.000  0.00  0.00     0.007 A 
BRANCH  18  21
ATOM     21  O   UNL d   1      -1.050  -5.263   0.000  0.00  0.00    -0.328 OA
ATOM     22  C   UNL d   1      -0.333  -5.679   0.000  0.00  0.00     0.181 C 
ENDBRANCH  18  21
ENDBRANCH  13  15
ENDBRANCH  11  12
ENDBRANCH  10  11
ENDBRANCH   1  10
BRANCH   2  23
ATOM     23  S   UNL d   1      -1.663   2.458   0.000  0.00  0.00    -0.080 SA
BRANCH  23  24
ATOM     24  C   UNL d   1      -0.838   2.383   0.000  0.00  0.00     0.100 C 
BRANCH  24  25
ATOM     25  C   UNL d   1      -0.358   3.050   0.000  0.00  0.00     0.303 C 
ATOM     26  O   UNL d   1      -0.700   3.800   0.000  0.00  0.00    -0.263 OA
ATOM     27  N   UNL d   1       0.463   2.971   0.000  0.00  0.00    -0.102 N 
ENDBRANCH  24  25
ENDBRANCH  23  24
ENDBRANCH   2  23
TORSDOF 8
