REMARK  5 active torsions:
REMARK  status: ('A' for Active; 'I' for Inactive)
REMARK    1  A    between atoms: C_16  and  N_2 
REMARK    2  A    between atoms: S_9  and  C_4 
REMARK    3  A    between atoms: C_17  and  S_9 
REMARK    4  A    between atoms: C_10  and  C_17 
REMARK       I    between atoms: N_12  and  C_10 
REMARK    5  A    between atoms: C_14  and  N_12 
ROOT
ATOM      1  C   UNL d   1      -2.732   1.911   0.000  0.00  0.00     0.104 A 
ATOM      2  N   UNL d   1      -1.306   1.911   0.000  0.00  0.00    -0.252 N 
ATOM      3  C   UNL d   1      -2.030   1.499   0.000  0.00  0.00     0.274 A 
ATOM      4  C   UNL d   1      -1.306   2.736   0.000  0.00  0.00     0.182 A 
ATOM      5  C   UNL d   1      -2.732   2.736   0.000  0.00  0.00     0.095 A 
ATOM      6  N   UNL d   1      -2.030   3.149   0.000  0.00  0.00    -0.222 NA
ATOM      7  S   UNL d   1      -3.515   1.659   0.000  0.00  0.00    -0.081 SA
ATOM      8  C   UNL d   1      -3.515   2.993   0.000  0.00  0.00     0.026 A 
ATOM      9  O   UNL d   1      -2.030   0.674   0.000  0.00  0.00    -0.266 OA
ATOM     10  C   UNL d   1      -3.997   2.333   0.000  0.00  0.00     0.031 A 
ATOM     11  C   UNL d   1      -4.822   2.347   0.000  0.00  0.00     0.007 C 
ENDROOT
BRANCH   4  12
ATOM     12  S   UNL d   1      -0.587   3.158   0.000  0.00  0.00    -0.044 SA
BRANCH  12  13
ATOM     13  C   UNL d   1       0.128   2.745   0.000  0.00  0.00     0.101 C 
BRANCH  13  14
ATOM     14  C   UNL d   1       0.843   3.158   0.000  0.00  0.00     0.286 C 
ATOM     15  N   UNL d   1       0.843   3.983   0.000  0.00  0.00    -0.208 NA
ATOM     16  O   UNL d   1       1.558   2.745   0.000  0.00  0.00    -0.265 OA
BRANCH  15  17
ATOM     17  C   UNL d   1       0.128   4.395   0.000  0.00  0.00     0.085 A 
ATOM     18  C   UNL d   1      -0.578   3.983   0.000  0.00  0.00     0.019 A 
ATOM     19  C   UNL d   1      -1.292   4.395   0.000  0.00  0.00     0.002 A 
ATOM     20  C   UNL d   1      -2.017   3.974   0.000  0.00  0.00     0.000 C 
ATOM     21  C   UNL d   1      -1.292   5.216   0.000  0.00  0.00     0.000 A 
ATOM     22  C   UNL d   1      -0.578   5.628   0.000  0.00  0.00     0.002 A 
ATOM     23  C   UNL d   1       0.128   5.216   0.000  0.00  0.00     0.019 A 
ENDBRANCH  15  17
ENDBRANCH  13  14
ENDBRANCH  12  13
ENDBRANCH   4  12
BRANCH   2  24
ATOM     24  C   UNL d   1      -0.587   1.494   0.000  0.00  0.00     0.085 C 
ATOM     25  C   UNL d   1       0.128   1.907   0.000  0.00  0.00     0.021 C 
ENDBRANCH   2  24
TORSDOF 5
