REMARK  6 active torsions:
REMARK  status: ('A' for Active; 'I' for Inactive)
REMARK    1  A    between atoms: S_9  and  C_4 
REMARK    2  A    between atoms: C_15  and  S_9 
REMARK    3  A    between atoms: C_11  and  C_15 
REMARK    4  A    between atoms: O_14  and  C_11 
REMARK    5  A    between atoms: C_17  and  O_14 
REMARK    6  A    between atoms: C_18  and  C_17 
ROOT
ATOM      1  C   UNL d   1      -2.732   1.911   0.000  0.00  0.00     0.104 A 
ATOM      2  N   UNL d   1      -1.306   1.911   0.000  0.00  0.00    -0.251 N 
ATOM      3  C   UNL d   1      -2.030   1.499   0.000  0.00  0.00     0.274 A 
ATOM      4  C   UNL d   1      -1.306   2.736   0.000  0.00  0.00     0.182 A 
ATOM      5  C   UNL d   1      -2.732   2.736   0.000  0.00  0.00     0.095 A 
ATOM      6  N   UNL d   1      -2.030   3.149   0.000  0.00  0.00    -0.222 NA
ATOM      7  S   UNL d   1      -3.515   1.659   0.000  0.00  0.00    -0.081 SA
ATOM      8  C   UNL d   1      -3.515   2.993   0.000  0.00  0.00     0.026 A 
ATOM      9  O   UNL d   1      -2.030   0.674   0.000  0.00  0.00    -0.266 OA
ATOM     10  C   UNL d   1      -3.997   2.333   0.000  0.00  0.00     0.031 A 
ATOM     11  C   UNL d   1      -0.587   1.494   0.000  0.00  0.00     0.104 C 
ATOM     12  C   UNL d   1      -4.822   2.347   0.000  0.00  0.00     0.007 C 
ENDROOT
BRANCH   4  13
ATOM     13  S   UNL d   1      -0.587   3.158   0.000  0.00  0.00    -0.044 SA
BRANCH  13  14
ATOM     14  C   UNL d   1       0.128   2.745   0.000  0.00  0.00     0.107 C 
BRANCH  14  15
ATOM     15  C   UNL d   1       0.843   3.158   0.000  0.00  0.00     0.307 C 
ATOM     16  O   UNL d   1       1.558   2.745   0.000  0.00  0.00    -0.258 OA
BRANCH  15  17
ATOM     17  O   UNL d   1       0.843   3.983   0.000  0.00  0.00    -0.271 OA
BRANCH  17  18
ATOM     18  C   UNL d   1       0.128   4.395   0.000  0.00  0.00     0.126 C 
BRANCH  18  19
ATOM     19  C   UNL d   1       0.128   5.216   0.000  0.00  0.00     0.025 A 
ATOM     20  C   UNL d   1       0.843   5.628   0.000  0.00  0.00     0.002 A 
ATOM     21  C   UNL d   1       0.843   6.453   0.000  0.00  0.00     0.000 A 
ATOM     22  C   UNL d   1       0.128   6.866   0.000  0.00  0.00     0.000 A 
ATOM     23  C   UNL d   1      -0.578   6.453   0.000  0.00  0.00     0.000 A 
ATOM     24  C   UNL d   1      -0.578   5.628   0.000  0.00  0.00     0.002 A 
ENDBRANCH  18  19
ENDBRANCH  17  18
ENDBRANCH  15  17
ENDBRANCH  14  15
ENDBRANCH  13  14
ENDBRANCH   4  13
TORSDOF 6
