REMARK  8 active torsions:
REMARK  status: ('A' for Active; 'I' for Inactive)
REMARK    1  A    between atoms: N_9  and  C_1 
REMARK    2  A    between atoms: C_4  and  S_15 
REMARK    3  A    between atoms: C_18  and  C_8 
REMARK       I    between atoms: C_13  and  N_9 
REMARK       I    between atoms: C_10  and  N_14 
REMARK    4  A    between atoms: C_16  and  C_10 
REMARK    5  A    between atoms: C_22  and  C_13 
REMARK    6  A    between atoms: N_14  and  C_18 
REMARK    7  A    between atoms: S_15  and  C_22 
REMARK    8  A    between atoms: O_26  and  C_23 
ROOT
ATOM      1  O   UNL d   1      -1.121   2.533   0.000  0.00  0.00    -0.262 OA
ATOM      2  C   UNL d   1      -0.446   3.021   0.000  0.00  0.00     0.236 A 
ATOM      3  N   UNL d   1      -0.700   3.800   0.000  0.00  0.00    -0.114 NA
ATOM      4  N   UNL d   1      -1.525   3.800   0.000  0.00  0.00    -0.119 NA
ATOM      5  C   UNL d   1      -1.783   3.021   0.000  0.00  0.00     0.224 A 
ENDROOT
BRANCH   2   6
ATOM      6  S   UNL d   1       0.338   2.758   0.000  0.00  0.00    -0.036 SA
BRANCH   6   7
ATOM      7  C   UNL d   1       0.504   1.958   0.000  0.00  0.00     0.101 C 
BRANCH   7   8
ATOM      8  C   UNL d   1      -0.121   1.396   0.000  0.00  0.00     0.288 C 
ATOM      9  N   UNL d   1       0.054   0.588   0.000  0.00  0.00    -0.182 NA
ATOM     10  O   UNL d   1      -0.900   1.650   0.000  0.00  0.00    -0.265 OA
BRANCH   9  11
ATOM     11  C   UNL d   1      -0.558   0.025   0.000  0.00  0.00     0.197 A 
ATOM     12  N   UNL d   1      -1.371   0.200   0.000  0.00  0.00    -0.221 NA
ATOM     13  C   UNL d   1      -1.783  -0.517   0.000  0.00  0.00     0.090 A 
ATOM     14  C   UNL d   1      -2.583  -0.692   0.000  0.00  0.00     0.020 A 
ATOM     15  C   UNL d   1      -1.221  -1.137   0.000  0.00  0.00     0.050 A 
ATOM     16  C   UNL d   1      -2.846  -1.479   0.000  0.00  0.00     0.002 A 
ATOM     17  C   UNL d   1      -2.283  -2.092   0.000  0.00  0.00     0.001 A 
ATOM     18  C   UNL d   1      -1.483  -1.917   0.000  0.00  0.00     0.008 A 
ATOM     19  S   UNL d   1      -0.463  -0.800   0.000  0.00  0.00    -0.047 SA
ENDBRANCH   9  11
ENDBRANCH   7   8
ENDBRANCH   6   7
ENDBRANCH   2   6
BRANCH   5  20
ATOM     20  C   UNL d   1      -2.571   2.771   0.000  0.00  0.00     0.149 C 
BRANCH  20  21
ATOM     21  N   UNL d   1      -3.183   3.321   0.000  0.00  0.00    -0.203 NA
ATOM     22  C   UNL d   1      -3.971   3.062   0.000  0.00  0.00     0.279 C 
ATOM     23  O   UNL d   1      -4.146   2.258   0.000  0.00  0.00    -0.265 OA
BRANCH  22  24
ATOM     24  C   UNL d   1      -4.583   3.621   0.000  0.00  0.00     0.058 A 
ATOM     25  C   UNL d   1      -4.408   4.429   0.000  0.00  0.00     0.007 A 
ATOM     26  C   UNL d   1      -5.021   4.979   0.000  0.00  0.00     0.024 A 
ATOM     27  C   UNL d   1      -5.800   4.713   0.000  0.00  0.00     0.094 A 
ATOM     28  C   UNL d   1      -5.971   3.921   0.000  0.00  0.00     0.024 A 
ATOM     29  C   UNL d   1      -5.358   3.371   0.000  0.00  0.00     0.007 A 
BRANCH  27  30
ATOM     30  O   UNL d   1      -6.417   5.267   0.000  0.00  0.00    -0.328 OA
ATOM     31  C   UNL d   1      -7.213   5.017   0.000  0.00  0.00     0.181 C 
ENDBRANCH  27  30
ENDBRANCH  22  24
ENDBRANCH  20  21
ENDBRANCH   5  20
TORSDOF 8
