REMARK  5 active torsions:
REMARK  status: ('A' for Active; 'I' for Inactive)
REMARK    1  A    between atoms: N_3  and  C_1 
REMARK       I    between atoms: C_9  and  N_3 
REMARK       I    between atoms: N_5  and  C_8 
REMARK    2  A    between atoms: C_8  and  C_16 
REMARK    3  A    between atoms: C_17  and  C_9 
REMARK    4  A    between atoms: S_13  and  C_17 
REMARK    5  A    between atoms: C_16  and  S_13 
ROOT
ATOM      1  N   UNL d   1      -0.347   0.965   0.000  0.00  0.00    -0.183 NA
ATOM      2  C   UNL d   1      -0.134   1.767   0.000  0.00  0.00     0.287 C 
ATOM      3  O   UNL d   1      -0.723   2.351   0.000  0.00  0.00    -0.265 OA
ENDROOT
BRANCH   2   4
ATOM      4  C   UNL d   1       0.656   1.988   0.000  0.00  0.00     0.098 C 
BRANCH   4   5
ATOM      5  S   UNL d   1       0.869   2.790   0.000  0.00  0.00    -0.076 SA
BRANCH   5   6
ATOM      6  C   UNL d   1       1.666   3.007   0.000  0.00  0.00     0.097 C 
BRANCH   6   7
ATOM      7  C   UNL d   1       2.255   2.431   0.000  0.00  0.00     0.271 C 
ATOM      8  N   UNL d   1       3.049   2.652   0.000  0.00  0.00    -0.272 N 
ATOM      9  C   UNL d   1       3.634   2.076   0.000  0.00  0.00     0.083 A 
ATOM     10  C   UNL d   1       3.258   3.454   0.000  0.00  0.00     0.083 A 
ATOM     11  C   UNL d   1       4.427   2.301   0.000  0.00  0.00     0.018 A 
ATOM     12  C   UNL d   1       5.016   1.725   0.000  0.00  0.00     0.002 C 
ATOM     13  C   UNL d   1       4.628   3.103   0.000  0.00  0.00     0.003 A 
ATOM     14  C   UNL d   1       4.039   3.684   0.000  0.00  0.00     0.019 A 
ATOM     15  O   UNL d   1       2.046   1.637   0.000  0.00  0.00    -0.266 OA
ENDBRANCH   6   7
ENDBRANCH   5   6
ENDBRANCH   4   5
ENDBRANCH   2   4
BRANCH   1  16
ATOM     16  C   UNL d   1      -1.174   0.965   0.000  0.00  0.00     0.182 A 
ATOM     17  N   UNL d   1      -1.662   0.296   0.000  0.00  0.00    -0.283 N 
ATOM     18  C   UNL d   1      -2.452   0.551   0.000  0.00  0.00     0.072 A 
ATOM     19  C   UNL d   1      -1.403  -0.480   0.000  0.00  0.00     0.101 C 
ATOM     20  C   UNL d   1      -3.166   0.146   0.000  0.00  0.00     0.017 A 
ATOM     21  C   UNL d   1      -2.452   1.378   0.000  0.00  0.00     0.048 A 
ATOM     22  C   UNL d   1      -3.872   0.551   0.000  0.00  0.00    -0.011 A 
ATOM     23  C   UNL d   1      -3.872   1.378   0.000  0.00  0.00     0.027 A 
ATOM     24  C   UNL d   1      -3.166   1.800   0.000  0.00  0.00    -0.004 A 
ATOM     25  S   UNL d   1      -1.662   1.637   0.000  0.00  0.00    -0.048 SA
ENDBRANCH   1  16
TORSDOF 5
