REMARK  10 active torsions:
REMARK  status: ('A' for Active; 'I' for Inactive)
REMARK    1  A    between atoms: N_3  and  C_1 
REMARK    2  A    between atoms: C_16  and  N_2 
REMARK       I    between atoms: C_7  and  N_3 
REMARK    3  A    between atoms: C_18  and  C_7 
REMARK    4  A    between atoms: C_10  and  C_20 
REMARK       I    between atoms: N_11  and  C_10 
REMARK    5  A    between atoms: C_19  and  N_11 
REMARK    6  A    between atoms: S_14  and  C_18 
REMARK    7  A    between atoms: C_20  and  S_14 
REMARK    8  A    between atoms: O_21  and  C_15 
REMARK    9  A    between atoms: C_23  and  C_16 
REMARK   10  A    between atoms: O_22  and  C_23 
ROOT
ATOM      1  C   UNL d   1      -1.176   0.967   0.000  0.00  0.00     0.182 A 
ATOM      2  N   UNL d   1      -1.666   0.297   0.000  0.00  0.00    -0.283 N 
ATOM      3  S   UNL d   1      -1.666   1.641   0.000  0.00  0.00    -0.048 SA
ATOM      4  C   UNL d   1      -2.457   1.381   0.000  0.00  0.00     0.050 A 
ATOM      5  C   UNL d   1      -2.457   0.552   0.000  0.00  0.00     0.072 A 
ATOM      6  C   UNL d   1      -3.172   1.804   0.000  0.00  0.00     0.032 A 
ATOM      7  C   UNL d   1      -3.172   0.146   0.000  0.00  0.00     0.020 A 
ATOM      8  C   UNL d   1      -3.880   1.381   0.000  0.00  0.00     0.095 A 
ATOM      9  C   UNL d   1      -3.880   0.552   0.000  0.00  0.00     0.026 A 
ENDROOT
BRANCH   1  10
ATOM     10  N   UNL d   1      -0.347   0.967   0.000  0.00  0.00    -0.183 NA
ATOM     11  C   UNL d   1      -0.134   1.770   0.000  0.00  0.00     0.287 C 
ATOM     12  O   UNL d   1      -0.724   2.356   0.000  0.00  0.00    -0.265 OA
BRANCH  11  13
ATOM     13  C   UNL d   1       0.657   1.992   0.000  0.00  0.00     0.098 C 
BRANCH  13  14
ATOM     14  S   UNL d   1       0.871   2.796   0.000  0.00  0.00    -0.076 SA
BRANCH  14  15
ATOM     15  C   UNL d   1       1.670   3.013   0.000  0.00  0.00     0.098 C 
BRANCH  15  16
ATOM     16  C   UNL d   1       2.260   2.436   0.000  0.00  0.00     0.286 C 
ATOM     17  N   UNL d   1       3.055   2.658   0.000  0.00  0.00    -0.208 NA
ATOM     18  O   UNL d   1       2.047   1.632   0.000  0.00  0.00    -0.265 OA
BRANCH  17  19
ATOM     19  C   UNL d   1       3.645   2.072   0.000  0.00  0.00     0.085 A 
ATOM     20  C   UNL d   1       3.432   1.281   0.000  0.00  0.00     0.019 A 
ATOM     21  C   UNL d   1       4.018   0.703   0.000  0.00  0.00     0.002 A 
ATOM     22  C   UNL d   1       4.821   0.925   0.000  0.00  0.00     0.000 A 
ATOM     23  C   UNL d   1       5.022   1.728   0.000  0.00  0.00     0.002 A 
ATOM     24  C   UNL d   1       4.436   2.306   0.000  0.00  0.00     0.019 A 
ENDBRANCH  17  19
ENDBRANCH  15  16
ENDBRANCH  14  15
ENDBRANCH  13  14
ENDBRANCH  11  13
ENDBRANCH   1  10
BRANCH   2  25
ATOM     25  C   UNL d   1      -1.406  -0.481   0.000  0.00  0.00     0.108 C 
BRANCH  25  26
ATOM     26  C   UNL d   1      -0.603  -0.657   0.000  0.00  0.00     0.135 C 
BRANCH  26  27
ATOM     27  O   UNL d   1      -0.050  -0.042   0.000  0.00  0.00    -0.325 OA
ATOM     28  C   UNL d   1       0.758  -0.205   0.000  0.00  0.00     0.182 C 
ENDBRANCH  26  27
ENDBRANCH  25  26
ENDBRANCH   2  25
BRANCH   8  29
ATOM     29  O   UNL d   1      -4.604   1.791   0.000  0.00  0.00    -0.328 OA
ATOM     30  C   UNL d   1      -5.311   1.377   0.000  0.00  0.00     0.181 C 
ENDBRANCH   8  29
TORSDOF 10
