REMARK  6 active torsions:
REMARK  status: ('A' for Active; 'I' for Inactive)
REMARK    1  A    between atoms: N_3  and  C_1 
REMARK    2  A    between atoms: C_16  and  N_2 
REMARK       I    between atoms: C_7  and  N_3 
REMARK    3  A    between atoms: C_14  and  C_7 
REMARK    4  A    between atoms: C_10  and  S_11 
REMARK    5  A    between atoms: S_11  and  C_14 
REMARK    6  A    between atoms: O_18  and  C_15 
ROOT
ATOM      1  C   UNL d   1      -1.174   0.639   0.000  0.00  0.00     0.182 A 
ATOM      2  N   UNL d   1      -1.662  -0.029   0.000  0.00  0.00    -0.285 N 
ATOM      3  S   UNL d   1      -1.662   1.311   0.000  0.00  0.00    -0.048 SA
ATOM      4  C   UNL d   1      -2.452   1.052   0.000  0.00  0.00     0.050 A 
ATOM      5  C   UNL d   1      -2.452   0.226   0.000  0.00  0.00     0.072 A 
ATOM      6  C   UNL d   1      -3.166   1.474   0.000  0.00  0.00     0.032 A 
ATOM      7  C   UNL d   1      -3.166  -0.180   0.000  0.00  0.00     0.020 A 
ATOM      8  C   UNL d   1      -3.872   1.052   0.000  0.00  0.00     0.095 A 
ATOM      9  C   UNL d   1      -3.872   0.226   0.000  0.00  0.00     0.026 A 
ENDROOT
BRANCH   1  10
ATOM     10  N   UNL d   1      -0.347   0.639   0.000  0.00  0.00    -0.183 NA
ATOM     11  C   UNL d   1      -0.134   1.441   0.000  0.00  0.00     0.288 C 
ATOM     12  O   UNL d   1      -0.723   2.026   0.000  0.00  0.00    -0.265 OA
BRANCH  11  13
ATOM     13  C   UNL d   1       0.656   1.662   0.000  0.00  0.00     0.101 C 
BRANCH  13  14
ATOM     14  S   UNL d   1       0.869   2.464   0.000  0.00  0.00    -0.040 SA
BRANCH  14  15
ATOM     15  C   UNL d   1       0.280   3.053   0.000  0.00  0.00     0.226 C 
ATOM     16  O   UNL d   1      -0.514   2.828   0.000  0.00  0.00    -0.279 OA
ATOM     17  C   UNL d   1       0.493   3.842   0.000  0.00  0.00     0.053 C 
ENDBRANCH  14  15
ENDBRANCH  13  14
ENDBRANCH  11  13
ENDBRANCH   1  10
BRANCH   2  18
ATOM     18  C   UNL d   1      -1.403  -0.806   0.000  0.00  0.00     0.082 C 
ATOM     19  C   UNL d   1      -0.597  -0.982   0.000  0.00  0.00     0.021 C 
ENDBRANCH   2  18
BRANCH   8  20
ATOM     20  O   UNL d   1      -4.594   1.462   0.000  0.00  0.00    -0.328 OA
ATOM     21  C   UNL d   1      -5.300   1.048   0.000  0.00  0.00     0.181 C 
ENDBRANCH   8  20
TORSDOF 6
