REMARK  5 active torsions:
REMARK  status: ('A' for Active; 'I' for Inactive)
REMARK    1  A    between atoms: S_3  and  N_1 
REMARK    2  A    between atoms: S_4  and  N_8 
REMARK    3  A    between atoms: C_12  and  C_5 
REMARK    4  A    between atoms: C_9  and  C_6 
REMARK    5  A    between atoms: N_8  and  C_16 
ROOT
ATOM      1  N   UNL d   1      -0.213  -0.042   0.000  0.00  0.00    -0.155 N 
ATOM      2  N   UNL d   1      -0.890   0.439   0.000  0.00  0.00    -0.156 NA
ATOM      3  C   UNL d   1       0.451   0.460   0.000  0.00  0.00     0.096 A 
ATOM      4  C   UNL d   1      -0.647   1.228   0.000  0.00  0.00     0.104 A 
ATOM      5  C   UNL d   1       0.180   1.236   0.000  0.00  0.00     0.041 A 
ENDROOT
BRANCH   4   6
ATOM      6  C   UNL d   1      -1.140   1.888   0.000  0.00  0.00     0.021 A 
ATOM      7  C   UNL d   1      -1.955   1.788   0.000  0.00  0.00     0.021 A 
ATOM      8  C   UNL d   1      -2.452   2.452   0.000  0.00  0.00     0.093 A 
ATOM      9  C   UNL d   1      -2.126   3.216   0.000  0.00  0.00     0.020 A 
ATOM     10  C   UNL d   1      -1.303   3.308   0.000  0.00  0.00     0.002 A 
ATOM     11  C   UNL d   1      -0.810   2.652   0.000  0.00  0.00     0.002 A 
BRANCH   8  12
ATOM     12  N   UNL d   1      -3.279   2.352   0.000  0.00  0.00    -0.162 NA
BRANCH  12  13
ATOM     13  S   UNL d   1      -3.772   3.008   0.000  0.00  0.00     0.266 S 
ATOM     14  O   UNL d   1      -3.994   3.810   0.000  0.00  0.00    -0.203 OA
ATOM     15  O   UNL d   1      -3.058   3.429   0.000  0.00  0.00    -0.203 OA
ATOM     16  C   UNL d   1      -4.486   2.602   0.000  0.00  0.00     0.165 C 
ENDBRANCH  12  13
ENDBRANCH   8  12
ENDBRANCH   4   6
BRANCH   1  17
ATOM     17  S   UNL d   1      -0.209  -0.869   0.000  0.00  0.00     0.266 S 
ATOM     18  O   UNL d   1       0.205  -1.583   0.000  0.00  0.00    -0.203 OA
ATOM     19  O   UNL d   1       0.505  -0.451   0.000  0.00  0.00    -0.203 OA
ATOM     20  C   UNL d   1      -0.948  -1.220   0.000  0.00  0.00     0.165 C 
ENDBRANCH   1  17
BRANCH   3  21
ATOM     21  C   UNL d   1       1.232   0.213   0.000  0.00  0.00     0.018 A 
ATOM     22  C   UNL d   1       1.834   0.777   0.000  0.00  0.00     0.002 A 
ATOM     23  C   UNL d   1       2.623   0.535   0.000  0.00  0.00     0.000 A 
ATOM     24  C   UNL d   1       2.807  -0.263   0.000  0.00  0.00     0.000 A 
ATOM     25  C   UNL d   1       2.197  -0.819   0.000  0.00  0.00     0.000 A 
ATOM     26  C   UNL d   1       3.597  -0.505   0.000  0.00  0.00     0.000 C 
ATOM     27  C   UNL d   1       1.420  -0.589   0.000  0.00  0.00     0.002 A 
ENDBRANCH   3  21
TORSDOF 5
