REMARK  5 active torsions:
REMARK  status: ('A' for Active; 'I' for Inactive)
REMARK       I    between atoms: C_4  and  N_1 
REMARK    1  A    between atoms: C_8  and  C_3 
REMARK    2  A    between atoms: C_9  and  C_4 
REMARK    3  A    between atoms: S_5  and  N_10 
REMARK    4  A    between atoms: C_11  and  C_6 
REMARK    5  A    between atoms: N_10  and  C_22 
ROOT
ATOM      1  N   UNL d   1      -0.625  -0.667   0.000  0.00  0.00    -0.193 N 
ATOM      2  N   UNL d   1      -1.300  -0.188   0.000  0.00  0.00    -0.163 NA
ATOM      3  C   UNL d   1       0.037  -0.167   0.000  0.00  0.00     0.090 A 
ATOM      4  C   UNL d   1      -0.621  -1.492   0.000  0.00  0.00     0.303 C 
ATOM      5  C   UNL d   1      -1.058   0.600   0.000  0.00  0.00     0.103 A 
ATOM      6  C   UNL d   1      -0.233   0.608   0.000  0.00  0.00     0.040 A 
ATOM      7  O   UNL d   1       0.104  -1.892   0.000  0.00  0.00    -0.263 OA
ENDROOT
BRANCH   5   8
ATOM      8  C   UNL d   1      -1.550   1.258   0.000  0.00  0.00     0.019 A 
ATOM      9  C   UNL d   1      -2.362   1.158   0.000  0.00  0.00     0.003 A 
ATOM     10  C   UNL d   1      -2.858   1.821   0.000  0.00  0.00     0.020 A 
ATOM     11  C   UNL d   1      -2.533   2.583   0.000  0.00  0.00     0.093 A 
ATOM     12  C   UNL d   1      -1.712   2.675   0.000  0.00  0.00     0.020 A 
ATOM     13  C   UNL d   1      -1.221   2.021   0.000  0.00  0.00     0.003 A 
BRANCH  11  14
ATOM     14  N   UNL d   1      -3.033   3.237   0.000  0.00  0.00    -0.162 NA
BRANCH  14  15
ATOM     15  S   UNL d   1      -3.846   3.146   0.000  0.00  0.00     0.266 S 
ATOM     16  O   UNL d   1      -3.633   2.346   0.000  0.00  0.00    -0.203 OA
ATOM     17  O   UNL d   1      -4.562   2.733   0.000  0.00  0.00    -0.203 OA
ATOM     18  C   UNL d   1      -4.083   3.933   0.000  0.00  0.00     0.165 C 
ENDBRANCH  14  15
ENDBRANCH  11  14
ENDBRANCH   5   8
BRANCH   3  19
ATOM     19  C   UNL d   1       0.817  -0.412   0.000  0.00  0.00     0.045 A 
ATOM     20  C   UNL d   1       1.417   0.171   0.000  0.00  0.00     0.141 A 
ATOM     21  F   UNL d   1       1.212   0.971   0.000  0.00  0.00    -0.204 F 
ATOM     22  C   UNL d   1       2.212  -0.067   0.000  0.00  0.00     0.030 A 
ATOM     23  C   UNL d   1       2.392  -0.829   0.000  0.00  0.00     0.002 A 
ATOM     24  C   UNL d   1       1.792  -1.413   0.000  0.00  0.00     0.000 A 
ATOM     25  C   UNL d   1       0.992  -1.242   0.000  0.00  0.00     0.004 A 
ENDBRANCH   3  19
BRANCH   4  26
ATOM     26  C   UNL d   1      -1.321  -1.904   0.000  0.00  0.00     0.158 A 
ATOM     27  O   UNL d   1      -1.400  -2.742   0.000  0.00  0.00    -0.300 OA
ATOM     28  C   UNL d   1      -2.208  -2.913   0.000  0.00  0.00     0.123 A 
ATOM     29  C   UNL d   1      -2.621  -2.204   0.000  0.00  0.00     0.029 A 
ATOM     30  C   UNL d   1      -2.062  -1.592   0.000  0.00  0.00     0.032 A 
ENDBRANCH   4  26
TORSDOF 5
