REMARK  5 active torsions:
REMARK  status: ('A' for Active; 'I' for Inactive)
REMARK    1  A    between atoms: C_6  and  N_1 
REMARK    2  A    between atoms: O_9  and  C_6 
REMARK    3  A    between atoms: C_8  and  O_9 
REMARK    4  A    between atoms: C_12  and  C_8 
REMARK    5  A    between atoms: C_14  and  C_12 
ROOT
ATOM      1  N   UNL d   1      -1.738   2.558   0.000  0.00  0.00    -0.150 N 
ATOM      2  N   UNL d   1      -1.738   1.733   0.000  0.00  0.00    -0.055 NA
ATOM      3  C   UNL d   1      -2.450   2.983   0.000  0.00  0.00     0.285 A 
ATOM      4  N   UNL d   1      -2.450   1.325   0.000  0.00  0.00    -0.130 NA
ATOM      5  C   UNL d   1      -3.158   2.558   0.000  0.00  0.00     0.077 A 
ATOM      6  C   UNL d   1      -3.158   1.733   0.000  0.00  0.00     0.109 A 
ATOM      7  O   UNL d   1      -2.450   3.800   0.000  0.00  0.00    -0.265 OA
ATOM      8  C   UNL d   1      -3.871   2.971   0.000  0.00  0.00     0.006 A 
ATOM      9  C   UNL d   1      -3.871   1.325   0.000  0.00  0.00     0.021 A 
ATOM     10  C   UNL d   1      -4.583   2.562   0.000  0.00  0.00     0.000 A 
ATOM     11  C   UNL d   1      -4.583   1.733   0.000  0.00  0.00     0.002 A 
ENDROOT
BRANCH   1  12
ATOM     12  C   UNL d   1      -1.021   2.971   0.000  0.00  0.00     0.233 C 
BRANCH  12  13
ATOM     13  O   UNL d   1      -0.308   2.558   0.000  0.00  0.00    -0.251 OA
BRANCH  13  14
ATOM     14  C   UNL d   1       0.404   2.971   0.000  0.00  0.00     0.302 C 
ATOM     15  O   UNL d   1       0.404   3.796   0.000  0.00  0.00    -0.259 OA
BRANCH  14  16
ATOM     16  C   UNL d   1       1.117   2.558   0.000  0.00  0.00     0.069 C 
BRANCH  16  17
ATOM     17  C   UNL d   1       1.779   2.946   0.000  0.00  0.00     0.005 A 
ATOM     18  C   UNL d   1       1.788   3.771   0.000  0.00  0.00     0.000 A 
ATOM     19  C   UNL d   1       2.504   4.192   0.000  0.00  0.00     0.000 A 
ATOM     20  C   UNL d   1       3.225   3.775   0.000  0.00  0.00     0.000 A 
ATOM     21  C   UNL d   1       3.225   2.946   0.000  0.00  0.00     0.000 A 
ATOM     22  C   UNL d   1       2.504   2.521   0.000  0.00  0.00     0.000 A 
ENDBRANCH  16  17
ENDBRANCH  14  16
ENDBRANCH  13  14
ENDBRANCH  12  13
ENDBRANCH   1  12
TORSDOF 5
