REMARK  7 active torsions:
REMARK  status: ('A' for Active; 'I' for Inactive)
REMARK    1  A    between atoms: S_9  and  C_2 
REMARK    2  A    between atoms: C_15  and  C_5 
REMARK    3  A    between atoms: C_6  and  C_7 
REMARK       I    between atoms: C_7  and  N_8 
REMARK    4  A    between atoms: N_8  and  C_15 
REMARK    5  A    between atoms: C_14  and  S_9 
REMARK    6  A    between atoms: C_10  and  C_14 
REMARK    7  A    between atoms: C_12  and  C_10 
ROOT
ATOM      1  O   UNL d   1      -1.116   2.522   0.000  0.00  0.00    -0.262 OA
ATOM      2  C   UNL d   1      -0.444   3.007   0.000  0.00  0.00     0.236 A 
ATOM      3  N   UNL d   1      -0.697   3.783   0.000  0.00  0.00    -0.114 NA
ATOM      4  N   UNL d   1      -1.518   3.783   0.000  0.00  0.00    -0.119 NA
ATOM      5  C   UNL d   1      -1.775   3.007   0.000  0.00  0.00     0.224 A 
ENDROOT
BRANCH   2   6
ATOM      6  S   UNL d   1       0.336   2.746   0.000  0.00  0.00    -0.037 SA
BRANCH   6   7
ATOM      7  C   UNL d   1       0.502   1.949   0.000  0.00  0.00     0.081 C 
BRANCH   7   8
ATOM      8  C   UNL d   1      -0.112   1.389   0.000  0.00  0.00     0.202 C 
ATOM      9  O   UNL d   1      -0.892   1.638   0.000  0.00  0.00    -0.286 OA
BRANCH   8  10
ATOM     10  C   UNL d   1       0.066   0.585   0.000  0.00  0.00     0.040 A 
ATOM     11  C   UNL d   1      -0.543   0.033   0.000  0.00  0.00     0.004 A 
ATOM     12  C   UNL d   1      -0.369  -0.776   0.000  0.00  0.00     0.011 A 
ATOM     13  C   UNL d   1       0.415  -1.033   0.000  0.00  0.00     0.058 A 
ATOM     14  C   UNL d   1       1.024  -0.477   0.000  0.00  0.00     0.011 A 
ATOM     15 CL   UNL d   1       0.585  -1.833   0.000  0.00  0.00    -0.082 Cl
ATOM     16  C   UNL d   1       0.859   0.332   0.000  0.00  0.00     0.004 A 
ENDBRANCH   8  10
ENDBRANCH   7   8
ENDBRANCH   6   7
ENDBRANCH   2   6
BRANCH   5  17
ATOM     17  C   UNL d   1      -2.559   2.758   0.000  0.00  0.00     0.149 C 
BRANCH  17  18
ATOM     18  N   UNL d   1      -3.169   3.306   0.000  0.00  0.00    -0.203 NA
ATOM     19  C   UNL d   1      -3.953   3.049   0.000  0.00  0.00     0.281 C 
ATOM     20  O   UNL d   1      -4.127   2.248   0.000  0.00  0.00    -0.265 OA
BRANCH  19  21
ATOM     21  C   UNL d   1      -4.562   3.604   0.000  0.00  0.00     0.085 A 
ATOM     22  C   UNL d   1      -4.376   4.397   0.000  0.00  0.00     0.145 A 
ATOM     23  F   UNL d   1      -3.596   4.658   0.000  0.00  0.00    -0.204 F 
ATOM     24  C   UNL d   1      -4.998   4.944   0.000  0.00  0.00     0.030 A 
ATOM     25  C   UNL d   1      -5.794   4.708   0.000  0.00  0.00     0.002 A 
ATOM     26  C   UNL d   1      -5.956   3.890   0.000  0.00  0.00     0.000 A 
ATOM     27  C   UNL d   1      -5.334   3.343   0.000  0.00  0.00     0.007 A 
ENDBRANCH  19  21
ENDBRANCH  17  18
ENDBRANCH   5  17
TORSDOF 7
