REMARK  5 active torsions:
REMARK  status: ('A' for Active; 'I' for Inactive)
REMARK    1  A    between atoms: N_3  and  C_1 
REMARK       I    between atoms: C_9  and  N_3 
REMARK       I    between atoms: N_7  and  C_8 
REMARK    2  A    between atoms: C_8  and  C_14 
REMARK    3  A    between atoms: C_15  and  C_9 
REMARK    4  A    between atoms: S_12  and  C_15 
REMARK    5  A    between atoms: C_14  and  S_12 
ROOT
ATOM      1  N   UNL d   1      -0.346   0.964   0.000  0.00  0.00    -0.183 NA
ATOM      2  C   UNL d   1      -0.134   1.765   0.000  0.00  0.00     0.287 C 
ATOM      3  O   UNL d   1      -0.722   2.350   0.000  0.00  0.00    -0.265 OA
ENDROOT
BRANCH   2   4
ATOM      4  C   UNL d   1       0.655   1.986   0.000  0.00  0.00     0.098 C 
BRANCH   4   5
ATOM      5  S   UNL d   1       0.868   2.788   0.000  0.00  0.00    -0.076 SA
BRANCH   5   6
ATOM      6  C   UNL d   1       1.665   3.005   0.000  0.00  0.00     0.097 C 
BRANCH   6   7
ATOM      7  C   UNL d   1       2.254   2.429   0.000  0.00  0.00     0.271 C 
ATOM      8  N   UNL d   1       2.045   1.636   0.000  0.00  0.00    -0.272 N 
ATOM      9  C   UNL d   1       1.244   1.436   0.000  0.00  0.00     0.083 A 
ATOM     10  C   UNL d   1       2.621   1.064   0.000  0.00  0.00     0.083 A 
ATOM     11  C   UNL d   1       1.031   0.638   0.000  0.00  0.00     0.019 A 
ATOM     12  C   UNL d   1       1.607   0.058   0.000  0.00  0.00     0.003 A 
ATOM     13  C   UNL d   1       2.408   0.263   0.000  0.00  0.00     0.019 A 
ATOM     14  O   UNL d   1       3.047   2.650   0.000  0.00  0.00    -0.266 OA
ENDBRANCH   6   7
ENDBRANCH   5   6
ENDBRANCH   4   5
ENDBRANCH   2   4
BRANCH   1  15
ATOM     15  C   UNL d   1      -1.173   0.964   0.000  0.00  0.00     0.182 A 
ATOM     16  N   UNL d   1      -1.661   0.296   0.000  0.00  0.00    -0.283 N 
ATOM     17  C   UNL d   1      -2.450   0.551   0.000  0.00  0.00     0.072 A 
ATOM     18  C   UNL d   1      -1.402  -0.480   0.000  0.00  0.00     0.101 C 
ATOM     19  C   UNL d   1      -3.163   0.146   0.000  0.00  0.00     0.017 A 
ATOM     20  C   UNL d   1      -2.450   1.377   0.000  0.00  0.00     0.048 A 
ATOM     21  C   UNL d   1      -3.869   0.551   0.000  0.00  0.00    -0.011 A 
ATOM     22  C   UNL d   1      -3.869   1.377   0.000  0.00  0.00     0.027 A 
ATOM     23  C   UNL d   1      -3.163   1.799   0.000  0.00  0.00    -0.004 A 
ATOM     24  S   UNL d   1      -1.661   1.636   0.000  0.00  0.00    -0.048 SA
ENDBRANCH   1  15
TORSDOF 5
