REMARK  5 active torsions:
REMARK  status: ('A' for Active; 'I' for Inactive)
REMARK       I    between atoms: C_3  and  N_1 
REMARK    1  A    between atoms: C_8  and  C_3 
REMARK    2  A    between atoms: S_4  and  N_9 
REMARK    3  A    between atoms: C_10  and  C_5 
REMARK    4  A    between atoms: C_11  and  C_6 
REMARK    5  A    between atoms: N_9  and  C_23 
ROOT
ATOM      1  N   UNL d   1      -0.627  -0.669   0.000  0.00  0.00    -0.193 N 
ATOM      2  N   UNL d   1      -1.305  -0.188   0.000  0.00  0.00    -0.163 NA
ATOM      3  C   UNL d   1      -0.623  -1.498   0.000  0.00  0.00     0.303 C 
ATOM      4  C   UNL d   1       0.038  -0.167   0.000  0.00  0.00     0.088 A 
ATOM      5  C   UNL d   1      -1.063   0.602   0.000  0.00  0.00     0.103 A 
ATOM      6  C   UNL d   1      -0.234   0.611   0.000  0.00  0.00     0.040 A 
ATOM      7  O   UNL d   1       0.105  -1.899   0.000  0.00  0.00    -0.263 OA
ENDROOT
BRANCH   5   8
ATOM      8  C   UNL d   1      -1.556   1.263   0.000  0.00  0.00     0.019 A 
ATOM      9  C   UNL d   1      -1.226   2.029   0.000  0.00  0.00     0.003 A 
ATOM     10  C   UNL d   1      -1.719   2.686   0.000  0.00  0.00     0.020 A 
ATOM     11  C   UNL d   1      -2.543   2.594   0.000  0.00  0.00     0.093 A 
ATOM     12  C   UNL d   1      -2.870   1.828   0.000  0.00  0.00     0.020 A 
ATOM     13  C   UNL d   1      -2.372   1.163   0.000  0.00  0.00     0.003 A 
BRANCH  11  14
ATOM     14  N   UNL d   1      -3.046   3.251   0.000  0.00  0.00    -0.162 NA
BRANCH  14  15
ATOM     15  S   UNL d   1      -3.861   3.159   0.000  0.00  0.00     0.266 S 
ATOM     16  O   UNL d   1      -3.648   2.355   0.000  0.00  0.00    -0.203 OA
ATOM     17  O   UNL d   1      -4.581   2.744   0.000  0.00  0.00    -0.203 OA
ATOM     18  C   UNL d   1      -4.100   3.949   0.000  0.00  0.00     0.165 C 
ENDBRANCH  14  15
ENDBRANCH  11  14
ENDBRANCH   5   8
BRANCH   4  19
ATOM     19  C   UNL d   1       0.820  -0.414   0.000  0.00  0.00     0.018 A 
ATOM     20  C   UNL d   1       1.422   0.151   0.000  0.00  0.00     0.004 A 
ATOM     21  C   UNL d   1       2.213  -0.092   0.000  0.00  0.00     0.030 A 
ATOM     22  C   UNL d   1       2.389  -0.891   0.000  0.00  0.00     0.140 A 
ATOM     23  C   UNL d   1       1.795  -1.448   0.000  0.00  0.00     0.030 A 
ATOM     24  F   UNL d   1       3.188  -1.134   0.000  0.00  0.00    -0.204 F 
ATOM     25  C   UNL d   1       1.008  -1.217   0.000  0.00  0.00     0.004 A 
ENDBRANCH   4  19
BRANCH   3  26
ATOM     26  C   UNL d   1      -1.326  -1.912   0.000  0.00  0.00     0.158 A 
ATOM     27  O   UNL d   1      -1.406  -2.753   0.000  0.00  0.00    -0.300 OA
ATOM     28  C   UNL d   1      -2.217  -2.924   0.000  0.00  0.00     0.123 A 
ATOM     29  C   UNL d   1      -2.631  -2.213   0.000  0.00  0.00     0.029 A 
ATOM     30  C   UNL d   1      -2.071  -1.598   0.000  0.00  0.00     0.032 A 
ENDBRANCH   3  26
TORSDOF 5
