REMARK  7 active torsions:
REMARK  status: ('A' for Active; 'I' for Inactive)
REMARK    1  A    between atoms: C_9  and  N_1 
REMARK    2  A    between atoms: O_18  and  C_6 
REMARK    3  A    between atoms: C_7  and  C_8 
REMARK    4  A    between atoms: C_8  and  O_12 
REMARK    5  A    between atoms: O_12  and  C_9 
REMARK    6  A    between atoms: O_20  and  C_10 
REMARK    7  A    between atoms: O_19  and  C_11 
ROOT
ATOM      1  C   UNL d   1       0.405   2.979   0.000  0.00  0.00     0.302 C 
ATOM      2  O   UNL d   1       0.405   3.806   0.000  0.00  0.00    -0.259 OA
ENDROOT
BRANCH   1   3
ATOM      3  C   UNL d   1       1.120   2.565   0.000  0.00  0.00     0.068 A 
ATOM      4  C   UNL d   1       1.847   2.991   0.000  0.00  0.00     0.032 A 
ATOM      5  C   UNL d   1       2.544   2.565   0.000  0.00  0.00     0.118 A 
ATOM      6  C   UNL d   1       2.548   1.742   0.000  0.00  0.00     0.138 A 
ATOM      7  C   UNL d   1       1.830   1.337   0.000  0.00  0.00     0.118 A 
ATOM      8  C   UNL d   1       1.120   1.750   0.000  0.00  0.00     0.032 A 
BRANCH   5   9
ATOM      9  O   UNL d   1       3.275   2.979   0.000  0.00  0.00    -0.326 OA
ATOM     10  C   UNL d   1       3.275   3.806   0.000  0.00  0.00     0.181 C 
ENDBRANCH   5   9
BRANCH   6  11
ATOM     11  O   UNL d   1       3.271   1.329   0.000  0.00  0.00    -0.324 OA
ATOM     12  C   UNL d   1       3.990   1.725   0.000  0.00  0.00     0.182 C 
ENDBRANCH   6  11
BRANCH   7  13
ATOM     13  O   UNL d   1       1.830   0.501   0.000  0.00  0.00    -0.326 OA
ATOM     14  C   UNL d   1       1.128   0.084   0.000  0.00  0.00     0.181 C 
ENDBRANCH   7  13
ENDBRANCH   1   3
BRANCH   1  15
ATOM     15  O   UNL d   1      -0.309   2.565   0.000  0.00  0.00    -0.251 OA
BRANCH  15  16
ATOM     16  C   UNL d   1      -1.024   2.979   0.000  0.00  0.00     0.233 C 
BRANCH  16  17
ATOM     17  N   UNL d   1      -1.742   2.565   0.000  0.00  0.00    -0.150 N 
ATOM     18  N   UNL d   1      -1.742   1.738   0.000  0.00  0.00    -0.055 NA
ATOM     19  N   UNL d   1      -2.457   1.329   0.000  0.00  0.00    -0.130 NA
ATOM     20  C   UNL d   1      -3.167   1.738   0.000  0.00  0.00     0.109 A 
ATOM     21  C   UNL d   1      -3.167   2.565   0.000  0.00  0.00     0.077 A 
ATOM     22  C   UNL d   1      -3.881   1.329   0.000  0.00  0.00     0.021 A 
ATOM     23  C   UNL d   1      -2.457   2.991   0.000  0.00  0.00     0.285 A 
ATOM     24  C   UNL d   1      -3.881   2.979   0.000  0.00  0.00     0.006 A 
ATOM     25  O   UNL d   1      -2.457   3.810   0.000  0.00  0.00    -0.265 OA
ATOM     26  C   UNL d   1      -4.595   2.569   0.000  0.00  0.00     0.000 A 
ATOM     27  C   UNL d   1      -4.595   1.738   0.000  0.00  0.00     0.002 A 
ENDBRANCH  16  17
ENDBRANCH  15  16
ENDBRANCH   1  15
TORSDOF 7
