REMARK  10 active torsions:
REMARK  status: ('A' for Active; 'I' for Inactive)
REMARK    1  A    between atoms: N_9  and  C_1 
REMARK    2  A    between atoms: C_4  and  S_21 
REMARK    3  A    between atoms: C_23  and  C_8 
REMARK       I    between atoms: C_19  and  N_9 
REMARK    4  A    between atoms: O_26  and  C_10 
REMARK    5  A    between atoms: C_11  and  C_12 
REMARK       I    between atoms: C_12  and  N_20 
REMARK    6  A    between atoms: O_27  and  C_13 
REMARK    7  A    between atoms: O_28  and  C_14 
REMARK    8  A    between atoms: C_25  and  C_19 
REMARK    9  A    between atoms: N_20  and  C_23 
REMARK   10  A    between atoms: S_21  and  C_25 
ROOT
ATOM      1  O   UNL d   1      -1.119   2.530   0.000  0.00  0.00    -0.262 OA
ATOM      2  C   UNL d   1      -0.445   3.016   0.000  0.00  0.00     0.236 A 
ATOM      3  N   UNL d   1      -0.699   3.794   0.000  0.00  0.00    -0.114 NA
ATOM      4  N   UNL d   1      -1.523   3.794   0.000  0.00  0.00    -0.119 NA
ATOM      5  C   UNL d   1      -1.781   3.016   0.000  0.00  0.00     0.224 A 
ENDROOT
BRANCH   5   6
ATOM      6  C   UNL d   1      -2.567   2.767   0.000  0.00  0.00     0.149 C 
BRANCH   6   7
ATOM      7  N   UNL d   1      -3.179   3.316   0.000  0.00  0.00    -0.203 NA
ATOM      8  C   UNL d   1      -3.965   3.058   0.000  0.00  0.00     0.279 C 
ATOM      9  O   UNL d   1      -4.140   2.255   0.000  0.00  0.00    -0.265 OA
BRANCH   8  10
ATOM     10  C   UNL d   1      -4.577   3.615   0.000  0.00  0.00     0.062 A 
ATOM     11  C   UNL d   1      -5.367   3.357   0.000  0.00  0.00     0.031 A 
ATOM     12  C   UNL d   1      -5.962   3.915   0.000  0.00  0.00     0.118 A 
ATOM     13  C   UNL d   1      -5.800   4.710   0.000  0.00  0.00     0.138 A 
ATOM     14  C   UNL d   1      -5.001   4.959   0.000  0.00  0.00     0.118 A 
ATOM     15  C   UNL d   1      -4.402   4.398   0.000  0.00  0.00     0.031 A 
BRANCH  12  16
ATOM     16  O   UNL d   1      -6.757   3.670   0.000  0.00  0.00    -0.326 OA
ATOM     17  C   UNL d   1      -6.931   2.858   0.000  0.00  0.00     0.181 C 
ENDBRANCH  12  16
BRANCH  13  18
ATOM     18  O   UNL d   1      -6.395   5.271   0.000  0.00  0.00    -0.324 OA
ATOM     19  C   UNL d   1      -7.194   5.034   0.000  0.00  0.00     0.182 C 
ENDBRANCH  13  18
BRANCH  14  20
ATOM     20  O   UNL d   1      -4.826   5.771   0.000  0.00  0.00    -0.326 OA
ATOM     21  C   UNL d   1      -4.052   6.033   0.000  0.00  0.00     0.181 C 
ENDBRANCH  14  20
ENDBRANCH   8  10
ENDBRANCH   6   7
ENDBRANCH   5   6
BRANCH   2  22
ATOM     22  S   UNL d   1       0.337   2.754   0.000  0.00  0.00    -0.036 SA
BRANCH  22  23
ATOM     23  C   UNL d   1       0.503   1.955   0.000  0.00  0.00     0.101 C 
BRANCH  23  24
ATOM     24  C   UNL d   1      -0.121   1.394   0.000  0.00  0.00     0.288 C 
ATOM     25  N   UNL d   1       0.054   0.587   0.000  0.00  0.00    -0.182 NA
ATOM     26  O   UNL d   1      -0.899   1.647   0.000  0.00  0.00    -0.265 OA
BRANCH  25  27
ATOM     27  C   UNL d   1      -0.557   0.025   0.000  0.00  0.00     0.197 A 
ATOM     28  N   UNL d   1      -1.369   0.200   0.000  0.00  0.00    -0.221 NA
ATOM     29  C   UNL d   1      -1.781  -0.516   0.000  0.00  0.00     0.090 A 
ATOM     30  C   UNL d   1      -2.579  -0.691   0.000  0.00  0.00     0.020 A 
ATOM     31  C   UNL d   1      -1.219  -1.136   0.000  0.00  0.00     0.050 A 
ATOM     32  C   UNL d   1      -2.842  -1.477   0.000  0.00  0.00     0.002 A 
ATOM     33  C   UNL d   1      -2.280  -2.089   0.000  0.00  0.00     0.001 A 
ATOM     34  C   UNL d   1      -1.481  -1.914   0.000  0.00  0.00     0.008 A 
ATOM     35  S   UNL d   1      -0.462  -0.799   0.000  0.00  0.00    -0.047 SA
ENDBRANCH  25  27
ENDBRANCH  23  24
ENDBRANCH  22  23
ENDBRANCH   2  22
TORSDOF 10
