REMARK  7 active torsions:
REMARK  status: ('A' for Active; 'I' for Inactive)
REMARK    1  A    between atoms: S_3  and  N_1 
REMARK    2  A    between atoms: C_18  and  S_3 
REMARK    3  A    between atoms: C_8  and  C_4 
REMARK    4  A    between atoms: S_5  and  N_9 
REMARK    5  A    between atoms: C_12  and  C_6 
REMARK    6  A    between atoms: N_9  and  C_19 
REMARK    7  A    between atoms: C_26  and  C_18 
ROOT
ATOM      1  N   UNL d   1      -0.624  -0.666   0.000  0.00  0.00    -0.152 N 
ATOM      2  N   UNL d   1      -1.299  -0.187   0.000  0.00  0.00    -0.155 NA
ATOM      3  C   UNL d   1       0.037  -0.167   0.000  0.00  0.00     0.098 A 
ATOM      4  C   UNL d   1      -1.057   0.599   0.000  0.00  0.00     0.104 A 
ATOM      5  C   UNL d   1      -0.233   0.608   0.000  0.00  0.00     0.041 A 
ENDROOT
BRANCH   4   6
ATOM      6  C   UNL d   1      -1.548   1.257   0.000  0.00  0.00     0.019 A 
ATOM      7  C   UNL d   1      -2.360   1.157   0.000  0.00  0.00     0.003 A 
ATOM      8  C   UNL d   1      -2.855   1.819   0.000  0.00  0.00     0.020 A 
ATOM      9  C   UNL d   1      -2.530   2.580   0.000  0.00  0.00     0.093 A 
ATOM     10  C   UNL d   1      -1.711   2.672   0.000  0.00  0.00     0.020 A 
ATOM     11  C   UNL d   1      -1.220   2.019   0.000  0.00  0.00     0.003 A 
BRANCH   9  12
ATOM     12  N   UNL d   1      -3.030   3.234   0.000  0.00  0.00    -0.162 NA
BRANCH  12  13
ATOM     13  S   UNL d   1      -3.842   3.142   0.000  0.00  0.00     0.266 S 
ATOM     14  O   UNL d   1      -3.629   2.343   0.000  0.00  0.00    -0.203 OA
ATOM     15  O   UNL d   1      -4.558   2.730   0.000  0.00  0.00    -0.203 OA
ATOM     16  C   UNL d   1      -4.079   3.929   0.000  0.00  0.00     0.165 C 
ENDBRANCH  12  13
ENDBRANCH   9  12
ENDBRANCH   4   6
BRANCH   1  17
ATOM     17  S   UNL d   1      -0.620  -1.490   0.000  0.00  0.00     0.287 S 
ATOM     18  O   UNL d   1       0.092  -1.074   0.000  0.00  0.00    -0.198 OA
ATOM     19  O   UNL d   1      -0.208  -2.202   0.000  0.00  0.00    -0.198 OA
BRANCH  17  20
ATOM     20  C   UNL d   1      -1.357  -1.840   0.000  0.00  0.00     0.117 C 
BRANCH  20  21
ATOM     21  C   UNL d   1      -1.419  -2.664   0.000  0.00  0.00     0.014 C 
ATOM     22  C   UNL d   1      -0.733  -3.126   0.000  0.00  0.00     0.001 C 
ENDBRANCH  20  21
ENDBRANCH  17  20
ENDBRANCH   1  17
BRANCH   3  23
ATOM     23  C   UNL d   1       0.816  -0.412   0.000  0.00  0.00     0.046 A 
ATOM     24  C   UNL d   1       1.415   0.171   0.000  0.00  0.00     0.142 A 
ATOM     25  F   UNL d   1       1.211   0.970   0.000  0.00  0.00    -0.204 F 
ATOM     26  C   UNL d   1       2.210  -0.067   0.000  0.00  0.00     0.030 A 
ATOM     27  C   UNL d   1       2.389  -0.828   0.000  0.00  0.00     0.002 A 
ATOM     28  C   UNL d   1       1.790  -1.411   0.000  0.00  0.00     0.000 A 
ATOM     29  C   UNL d   1       0.991  -1.240   0.000  0.00  0.00     0.004 A 
ENDBRANCH   3  23
TORSDOF 7
