REMARK  6 active torsions:
REMARK  status: ('A' for Active; 'I' for Inactive)
REMARK    1  A    between atoms: S_3  and  N_1 
REMARK    2  A    between atoms: C_19  and  S_3 
REMARK    3  A    between atoms: S_4  and  N_8 
REMARK    4  A    between atoms: C_11  and  C_5 
REMARK    5  A    between atoms: C_12  and  C_6 
REMARK    6  A    between atoms: N_8  and  C_20 
ROOT
ATOM      1  N   UNL d   1      -0.627  -0.669   0.000  0.00  0.00    -0.152 N 
ATOM      2  N   UNL d   1      -1.304  -0.188   0.000  0.00  0.00    -0.155 NA
ATOM      3  C   UNL d   1       0.038  -0.167   0.000  0.00  0.00     0.096 A 
ATOM      4  C   UNL d   1      -1.062   0.602   0.000  0.00  0.00     0.104 A 
ATOM      5  C   UNL d   1      -0.234   0.610   0.000  0.00  0.00     0.041 A 
ENDROOT
BRANCH   4   6
ATOM      6  C   UNL d   1      -1.555   1.262   0.000  0.00  0.00     0.019 A 
ATOM      7  C   UNL d   1      -1.225   2.027   0.000  0.00  0.00     0.003 A 
ATOM      8  C   UNL d   1      -1.718   2.683   0.000  0.00  0.00     0.020 A 
ATOM      9  C   UNL d   1      -2.541   2.591   0.000  0.00  0.00     0.093 A 
ATOM     10  C   UNL d   1      -2.867   1.827   0.000  0.00  0.00     0.020 A 
ATOM     11  C   UNL d   1      -2.370   1.162   0.000  0.00  0.00     0.003 A 
BRANCH   9  12
ATOM     12  N   UNL d   1      -3.043   3.248   0.000  0.00  0.00    -0.162 NA
BRANCH  12  13
ATOM     13  S   UNL d   1      -3.858   3.156   0.000  0.00  0.00     0.266 S 
ATOM     14  O   UNL d   1      -3.645   2.353   0.000  0.00  0.00    -0.203 OA
ATOM     15  O   UNL d   1      -4.577   2.742   0.000  0.00  0.00    -0.203 OA
ATOM     16  C   UNL d   1      -4.096   3.946   0.000  0.00  0.00     0.165 C 
ENDBRANCH  12  13
ENDBRANCH   9  12
ENDBRANCH   4   6
BRANCH   1  17
ATOM     17  S   UNL d   1      -0.623  -1.496   0.000  0.00  0.00     0.287 S 
ATOM     18  O   UNL d   1      -0.209  -2.211   0.000  0.00  0.00    -0.198 OA
ATOM     19  O   UNL d   1       0.092  -1.078   0.000  0.00  0.00    -0.198 OA
BRANCH  17  20
ATOM     20  C   UNL d   1      -1.363  -1.847   0.000  0.00  0.00     0.118 C 
ATOM     21  C   UNL d   1      -1.425  -2.675   0.000  0.00  0.00     0.014 C 
ENDBRANCH  17  20
ENDBRANCH   1  17
BRANCH   3  22
ATOM     22  C   UNL d   1       0.819  -0.414   0.000  0.00  0.00     0.019 A 
ATOM     23  C   UNL d   1       1.421   0.150   0.000  0.00  0.00     0.004 A 
ATOM     24  C   UNL d   1       2.211  -0.092   0.000  0.00  0.00     0.030 A 
ATOM     25  C   UNL d   1       2.387  -0.890   0.000  0.00  0.00     0.140 A 
ATOM     26  C   UNL d   1       1.793  -1.446   0.000  0.00  0.00     0.030 A 
ATOM     27  F   UNL d   1       3.185  -1.133   0.000  0.00  0.00    -0.204 F 
ATOM     28  C   UNL d   1       1.007  -1.216   0.000  0.00  0.00     0.004 A 
ENDBRANCH   3  22
TORSDOF 6
