REMARK  4 active torsions:
REMARK  status: ('A' for Active; 'I' for Inactive)
REMARK    1  A    between atoms: N_3  and  C_1 
REMARK       I    between atoms: C_7  and  N_3 
REMARK    2  A    between atoms: C_15  and  C_7 
REMARK    3  A    between atoms: C_10  and  S_11 
REMARK    4  A    between atoms: S_11  and  C_15 
ROOT
ATOM      1  C   UNL d   1      -1.172   0.638   0.000  0.00  0.00     0.182 A 
ATOM      2  N   UNL d   1      -1.660  -0.029   0.000  0.00  0.00    -0.283 N 
ATOM      3  S   UNL d   1      -1.660   1.310   0.000  0.00  0.00    -0.048 SA
ATOM      4  C   UNL d   1      -2.449   1.051   0.000  0.00  0.00     0.051 A 
ATOM      5  C   UNL d   1      -2.449   0.225   0.000  0.00  0.00     0.072 A 
ATOM      6  C   UNL d   1      -3.162   1.472   0.000  0.00  0.00     0.038 A 
ATOM      7  C   UNL d   1      -3.162  -0.179   0.000  0.00  0.00     0.020 A 
ATOM      8  C   UNL d   1      -3.867   1.051   0.000  0.00  0.00     0.141 A 
ATOM      9  C   UNL d   1      -3.867   0.225   0.000  0.00  0.00     0.031 A 
ATOM     10  C   UNL d   1      -1.402  -0.805   0.000  0.00  0.00     0.101 C 
ATOM     11  F   UNL d   1      -4.589   1.460   0.000  0.00  0.00    -0.204 F 
ENDROOT
BRANCH   1  12
ATOM     12  N   UNL d   1      -0.346   0.638   0.000  0.00  0.00    -0.183 NA
ATOM     13  C   UNL d   1      -0.134   1.439   0.000  0.00  0.00     0.288 C 
ATOM     14  O   UNL d   1      -0.722   2.023   0.000  0.00  0.00    -0.265 OA
BRANCH  13  15
ATOM     15  C   UNL d   1       0.655   1.660   0.000  0.00  0.00     0.101 C 
BRANCH  15  16
ATOM     16  S   UNL d   1       0.868   2.461   0.000  0.00  0.00    -0.040 SA
BRANCH  16  17
ATOM     17  C   UNL d   1       0.280   3.049   0.000  0.00  0.00     0.226 C 
ATOM     18  O   UNL d   1      -0.513   2.824   0.000  0.00  0.00    -0.279 OA
ATOM     19  C   UNL d   1       0.492   3.838   0.000  0.00  0.00     0.053 C 
ENDBRANCH  16  17
ENDBRANCH  15  16
ENDBRANCH  13  15
ENDBRANCH   1  12
TORSDOF 4
