REMARK  10 active torsions:
REMARK  status: ('A' for Active; 'I' for Inactive)
REMARK    1  A    between atoms: N_3  and  C_1 
REMARK    2  A    between atoms: C_8  and  N_2 
REMARK       I    between atoms: C_7  and  N_3 
REMARK    3  A    between atoms: C_21  and  C_7 
REMARK    4  A    between atoms: C_11  and  C_8 
REMARK    5  A    between atoms: O_20  and  C_11 
REMARK    6  A    between atoms: C_12  and  C_23 
REMARK       I    between atoms: N_13  and  C_12 
REMARK    7  A    between atoms: C_22  and  N_13 
REMARK    8  A    between atoms: S_17  and  C_21 
REMARK    9  A    between atoms: C_23  and  S_17 
REMARK   10  A    between atoms: O_24  and  C_18 
ROOT
ATOM      1  C   UNL d   1      -1.175   0.966   0.000  0.00  0.00     0.183 A 
ATOM      2  N   UNL d   1      -1.664   0.297   0.000  0.00  0.00    -0.280 N 
ATOM      3  S   UNL d   1      -1.664   1.639   0.000  0.00  0.00    -0.048 SA
ATOM      4  C   UNL d   1      -2.455   1.380   0.000  0.00  0.00     0.050 A 
ATOM      5  C   UNL d   1      -2.455   0.552   0.000  0.00  0.00     0.072 A 
ATOM      6  C   UNL d   1      -3.170   1.802   0.000  0.00  0.00     0.032 A 
ATOM      7  C   UNL d   1      -3.170   0.146   0.000  0.00  0.00     0.020 A 
ATOM      8  C   UNL d   1      -3.877   1.380   0.000  0.00  0.00     0.095 A 
ATOM      9  C   UNL d   1      -3.877   0.552   0.000  0.00  0.00     0.026 A 
ENDROOT
BRANCH   1  10
ATOM     10  N   UNL d   1      -0.347   0.966   0.000  0.00  0.00    -0.183 NA
ATOM     11  C   UNL d   1      -0.134   1.769   0.000  0.00  0.00     0.287 C 
ATOM     12  O   UNL d   1      -0.723   2.354   0.000  0.00  0.00    -0.265 OA
BRANCH  11  13
ATOM     13  C   UNL d   1       0.657   1.991   0.000  0.00  0.00     0.098 C 
BRANCH  13  14
ATOM     14  S   UNL d   1       0.870   2.793   0.000  0.00  0.00    -0.076 SA
BRANCH  14  15
ATOM     15  C   UNL d   1       1.669   3.011   0.000  0.00  0.00     0.098 C 
BRANCH  15  16
ATOM     16  C   UNL d   1       2.258   2.434   0.000  0.00  0.00     0.286 C 
ATOM     17  N   UNL d   1       3.053   2.655   0.000  0.00  0.00    -0.208 NA
ATOM     18  O   UNL d   1       2.045   1.631   0.000  0.00  0.00    -0.265 OA
BRANCH  17  19
ATOM     19  C   UNL d   1       3.643   2.070   0.000  0.00  0.00     0.085 A 
ATOM     20  C   UNL d   1       3.429   1.280   0.000  0.00  0.00     0.019 A 
ATOM     21  C   UNL d   1       4.015   0.703   0.000  0.00  0.00     0.002 A 
ATOM     22  C   UNL d   1       4.818   0.924   0.000  0.00  0.00     0.000 A 
ATOM     23  C   UNL d   1       5.018   1.727   0.000  0.00  0.00     0.002 A 
ATOM     24  C   UNL d   1       4.433   2.304   0.000  0.00  0.00     0.019 A 
ENDBRANCH  17  19
ENDBRANCH  15  16
ENDBRANCH  14  15
ENDBRANCH  13  14
ENDBRANCH  11  13
ENDBRANCH   1  10
BRANCH   2  25
ATOM     25  C   UNL d   1      -1.405  -0.481   0.000  0.00  0.00     0.151 C 
BRANCH  25  26
ATOM     26  C   UNL d   1      -0.602  -0.657   0.000  0.00  0.00     0.314 C 
ATOM     27  O   UNL d   1      -0.347  -1.443   0.000  0.00  0.00    -0.257 OA
BRANCH  26  28
ATOM     28  O   UNL d   1      -0.046  -0.029   0.000  0.00  0.00    -0.295 OA
ATOM     29  C   UNL d   1       0.765  -0.205   0.000  0.00  0.00     0.185 C 
ENDBRANCH  26  28
ENDBRANCH  25  26
ENDBRANCH   2  25
BRANCH   8  30
ATOM     30  O   UNL d   1      -4.600   1.790   0.000  0.00  0.00    -0.328 OA
ATOM     31  C   UNL d   1      -5.307   1.376   0.000  0.00  0.00     0.181 C 
ENDBRANCH   8  30
TORSDOF 10
