REMARK  6 active torsions:
REMARK  status: ('A' for Active; 'I' for Inactive)
REMARK    1  A    between atoms: N_3  and  S_1 
REMARK    2  A    between atoms: C_6  and  S_1 
REMARK    3  A    between atoms: N_2  and  C_5 
REMARK    4  A    between atoms: C_4  and  N_3 
REMARK    5  A    between atoms: C_5  and  C_4 
REMARK    6  A    between atoms: C_10  and  C_5 
ROOT
ATOM      1  C   UNL d   1      -2.475   5.848   0.000  0.00  0.00     0.086 C 
ENDROOT
BRANCH   1   2
ATOM      2  N   UNL d   1      -1.755   5.431   0.000  0.00  0.00    -0.300 N 
ATOM      3  C   UNL d   1      -1.755   4.606   0.000  0.00  0.00     0.100 A 
ATOM      4  C   UNL d   1      -1.040   4.194   0.000  0.00  0.00     0.100 A 
ATOM      5  N   UNL d   1      -0.330   4.606   0.000  0.00  0.00    -0.299 N 
ATOM      6  C   UNL d   1      -0.330   5.431   0.000  0.00  0.00     0.100 A 
ATOM      7  C   UNL d   1       0.390   4.189   0.000  0.00  0.00     0.100 C 
ATOM      8  C   UNL d   1      -1.040   5.844   0.000  0.00  0.00     0.100 A 
ENDBRANCH   1   2
BRANCH   1   9
ATOM      9  C   UNL d   1      -3.185   5.436   0.000  0.00  0.00     0.130 C 
BRANCH   9  10
ATOM     10  N   UNL d   1      -3.900   5.848   0.000  0.00  0.00    -0.155 NA
BRANCH  10  11
ATOM     11  S   UNL d   1      -4.615   5.436   0.000  0.00  0.00     0.285 S 
ATOM     12  O   UNL d   1      -5.042   6.151   0.000  0.00  0.00    -0.198 OA
ATOM     13  O   UNL d   1      -4.203   4.707   0.000  0.00  0.00    -0.198 OA
BRANCH  11  14
ATOM     14  C   UNL d   1      -5.335   5.019   0.000  0.00  0.00     0.105 A 
ATOM     15  C   UNL d   1      -5.335   4.194   0.000  0.00  0.00     0.014 A 
ATOM     16  C   UNL d   1      -6.045   3.781   0.000  0.00  0.00     0.012 A 
ATOM     17  C   UNL d   1      -6.765   4.194   0.000  0.00  0.00     0.058 A 
ATOM     18  C   UNL d   1      -6.765   5.019   0.000  0.00  0.00     0.012 A 
ATOM     19 CL   UNL d   1      -7.485   3.781   0.000  0.00  0.00    -0.082 Cl
ATOM     20  C   UNL d   1      -6.050   5.431   0.000  0.00  0.00     0.014 A 
ENDBRANCH  11  14
ENDBRANCH  10  11
ENDBRANCH   9  10
ENDBRANCH   1   9
BRANCH   1  21
ATOM     21  C   UNL d   1      -2.475   6.673   0.000  0.00  0.00     0.037 A 
ATOM     22  C   UNL d   1      -3.190   7.086   0.000  0.00  0.00     0.100 A 
ATOM     23  N   UNL d   1      -3.190   7.911   0.000  0.00  0.00    -0.242 NA
ATOM     24  C   UNL d   1      -2.475   8.323   0.000  0.00  0.00     0.099 A 
ATOM     25  C   UNL d   1      -1.769   7.911   0.000  0.00  0.00     0.021 A 
ATOM     26  C   UNL d   1      -1.769   7.086   0.000  0.00  0.00     0.005 A 
ENDBRANCH   1  21
TORSDOF 6
