REMARK  3 active torsions:
REMARK  status: ('A' for Active; 'I' for Inactive)
REMARK    1  A    between atoms: C_5  and  C_3 
REMARK       I    between atoms: N_10  and  C_5 
REMARK    2  A    between atoms: C_13  and  N_10 
REMARK    3  A    between atoms: C_15  and  C_13 
ROOT
ATOM      1  N   UNL d   1      -3.320   2.558   0.000  0.00  0.00    -0.254 N 
ATOM      2  C   UNL d   1      -2.600   2.970   0.000  0.00  0.00     0.272 A 
ATOM      3  C   UNL d   1      -1.883   2.558   0.000  0.00  0.00     0.133 A 
ATOM      4  C   UNL d   1      -3.312   1.733   0.000  0.00  0.00     0.182 A 
ATOM      5  N   UNL d   1      -2.600   1.321   0.000  0.00  0.00    -0.220 NA
ATOM      6  C   UNL d   1      -1.883   1.733   0.000  0.00  0.00     0.111 A 
ATOM      7  S   UNL d   1      -4.095   1.471   0.000  0.00  0.00    -0.048 SA
ATOM      8  C   UNL d   1      -4.099   2.808   0.000  0.00  0.00     0.075 A 
ATOM      9  C   UNL d   1      -4.583   2.146   0.000  0.00  0.00     0.056 A 
ATOM     10  O   UNL d   1      -2.608   3.795   0.000  0.00  0.00    -0.266 OA
ATOM     11  C   UNL d   1      -4.358   3.587   0.000  0.00  0.00     0.020 C 
ENDROOT
BRANCH   3  12
ATOM     12  C   UNL d   1      -1.171   2.983   0.000  0.00  0.00     0.285 C 
ATOM     13  N   UNL d   1      -0.458   2.571   0.000  0.00  0.00    -0.208 NA
ATOM     14  O   UNL d   1      -1.175   3.800   0.000  0.00  0.00    -0.265 OA
BRANCH  13  15
ATOM     15  C   UNL d   1       0.254   2.983   0.000  0.00  0.00     0.085 C 
ATOM     16  C   UNL d   1       0.967   2.583   0.000  0.00  0.00     0.021 C 
BRANCH  15  17
ATOM     17  C   UNL d   1       0.242   3.808   0.000  0.00  0.00     0.018 A 
ATOM     18  C   UNL d   1       0.962   4.216   0.000  0.00  0.00     0.002 A 
ATOM     19  C   UNL d   1       0.950   5.041   0.000  0.00  0.00     0.000 A 
ATOM     20  C   UNL d   1       0.229   5.462   0.000  0.00  0.00     0.000 A 
ATOM     21  C   UNL d   1      -0.483   5.041   0.000  0.00  0.00     0.000 A 
ATOM     22  C   UNL d   1      -0.483   4.216   0.000  0.00  0.00     0.002 A 
ENDBRANCH  15  17
ENDBRANCH  13  15
ENDBRANCH   3  12
TORSDOF 3
