REMARK  3 active torsions:
REMARK  status: ('A' for Active; 'I' for Inactive)
REMARK       I    between atoms: C_2  and  N_1 
REMARK    1  A    between atoms: C_5  and  C_2 
REMARK    2  A    between atoms: S_8  and  C_3 
REMARK    3  A    between atoms: O_13  and  C_11 
ROOT
ATOM      1  N   UNL d   1      -3.837   2.519   0.000  0.00  0.00    -0.251 N 
ATOM      2  C   UNL d   1      -3.841   1.699   0.000  0.00  0.00     0.266 C 
ATOM      3  C   UNL d   1      -3.170   3.004   0.000  0.00  0.00     0.178 A 
ATOM      4  N   UNL d   1      -3.427   3.779   0.000  0.00  0.00    -0.219 NA
ATOM      5  O   UNL d   1      -3.132   1.280   0.000  0.00  0.00    -0.267 OA
ATOM      6  C   UNL d   1      -4.508   3.004   0.000  0.00  0.00     0.106 A 
ATOM      7  C   UNL d   1      -4.247   3.787   0.000  0.00  0.00     0.120 A 
ENDROOT
BRANCH   2   8
ATOM      8  C   UNL d   1      -4.558   1.289   0.000  0.00  0.00     0.059 A 
ATOM      9  C   UNL d   1      -5.266   1.711   0.000  0.00  0.00     0.029 A 
ATOM     10  C   UNL d   1      -5.966   1.301   0.000  0.00  0.00     0.094 A 
ATOM     11  C   UNL d   1      -5.971   0.468   0.000  0.00  0.00     0.024 A 
ATOM     12  C   UNL d   1      -5.279   0.058   0.000  0.00  0.00     0.002 A 
ATOM     13  C   UNL d   1      -4.558   0.468   0.000  0.00  0.00     0.005 A 
BRANCH  10  14
ATOM     14  O   UNL d   1      -6.679   1.715   0.000  0.00  0.00    -0.328 OA
ATOM     15  C   UNL d   1      -7.396   1.313   0.000  0.00  0.00     0.181 C 
ENDBRANCH  10  14
ENDBRANCH   2   8
BRANCH   3  16
ATOM     16  S   UNL d   1      -2.395   2.743   0.000  0.00  0.00    -0.076 SA
ATOM     17  C   UNL d   1      -2.225   1.935   0.000  0.00  0.00     0.077 C 
ENDBRANCH   3  16
TORSDOF 3
