REMARK  5 active torsions:
REMARK  status: ('A' for Active; 'I' for Inactive)
REMARK       I    between atoms: C_2  and  N_1 
REMARK    1  A    between atoms: C_5  and  C_2 
REMARK    2  A    between atoms: S_7  and  C_3 
REMARK    3  A    between atoms: N_4  and  C_8 
REMARK    4  A    between atoms: C_17  and  S_7 
REMARK    5  A    between atoms: C_18  and  C_17 
ROOT
ATOM      1  N   UNL d   1      -3.858   2.533   0.000  0.00  0.00    -0.251 N 
ATOM      2  C   UNL d   1      -3.862   1.708   0.000  0.00  0.00     0.266 C 
ATOM      3  C   UNL d   1      -3.188   3.021   0.000  0.00  0.00     0.182 A 
ATOM      4  N   UNL d   1      -3.446   3.800   0.000  0.00  0.00    -0.219 NA
ATOM      5  O   UNL d   1      -3.150   1.288   0.000  0.00  0.00    -0.267 OA
ATOM      6  C   UNL d   1      -4.533   3.021   0.000  0.00  0.00     0.106 A 
ATOM      7  C   UNL d   1      -4.271   3.808   0.000  0.00  0.00     0.120 A 
ENDROOT
BRANCH   3   8
ATOM      8  S   UNL d   1      -2.408   2.758   0.000  0.00  0.00    -0.049 SA
BRANCH   8   9
ATOM      9  C   UNL d   1      -1.796   3.300   0.000  0.00  0.00     0.038 C 
BRANCH   9  10
ATOM     10  C   UNL d   1      -1.958   4.104   0.000  0.00  0.00     0.007 A 
ATOM     11  C   UNL d   1      -1.346   4.654   0.000  0.00  0.00     0.002 A 
ATOM     12  C   UNL d   1      -1.508   5.463   0.000  0.00  0.00     0.024 A 
ATOM     13  C   UNL d   1      -2.288   5.717   0.000  0.00  0.00     0.127 A 
ATOM     14  C   UNL d   1      -2.908   5.179   0.000  0.00  0.00     0.024 A 
ATOM     15  C   UNL d   1      -2.746   4.367   0.000  0.00  0.00     0.002 A 
BRANCH  13  16
ATOM     16  N   UNL d   1      -2.458   6.529   0.000  0.00  0.00    -0.114 N 
ATOM     17  O   UNL d   1      -1.833   7.092   0.000  0.00  0.00    -0.532 OA
ATOM     18  O   UNL d   1      -3.246   6.800   0.000  0.00  0.00    -0.532 OA
ENDBRANCH  13  16
ENDBRANCH   9  10
ENDBRANCH   8   9
ENDBRANCH   3   8
BRANCH   2  19
ATOM     19  C   UNL d   1      -4.583   1.296   0.000  0.00  0.00     0.057 A 
ATOM     20  C   UNL d   1      -5.296   1.721   0.000  0.00  0.00     0.005 A 
ATOM     21  C   UNL d   1      -5.287   2.546   0.000  0.00  0.00     0.000 C 
ATOM     22  C   UNL d   1      -6.000   1.308   0.000  0.00  0.00     0.000 A 
ATOM     23  C   UNL d   1      -6.000   0.475   0.000  0.00  0.00     0.000 A 
ATOM     24  C   UNL d   1      -5.296   0.058   0.000  0.00  0.00     0.000 A 
ATOM     25  C   UNL d   1      -4.583   0.471   0.000  0.00  0.00     0.005 A 
ENDBRANCH   2  19
TORSDOF 5
