REMARK  4 active torsions:
REMARK  status: ('A' for Active; 'I' for Inactive)
REMARK    1  A    between atoms: C_7  and  C_3 
REMARK       I    between atoms: N_13  and  C_7 
REMARK    2  A    between atoms: C_14  and  N_13 
REMARK    3  A    between atoms: C_16  and  C_14 
REMARK    4  A    between atoms: C_15  and  C_16 
ROOT
ATOM      1  C   UNL d   1      -1.168   2.976   0.000  0.00  0.00     0.285 C 
ATOM      2  O   UNL d   1      -1.172   3.791   0.000  0.00  0.00    -0.265 OA
ATOM      3  N   UNL d   1      -0.457   2.565   0.000  0.00  0.00    -0.206 NA
ENDROOT
BRANCH   1   4
ATOM      4  C   UNL d   1      -1.879   2.552   0.000  0.00  0.00     0.133 A 
ATOM      5  C   UNL d   1      -2.594   2.964   0.000  0.00  0.00     0.272 A 
ATOM      6  N   UNL d   1      -3.313   2.552   0.000  0.00  0.00    -0.265 N 
ATOM      7  O   UNL d   1      -2.602   3.787   0.000  0.00  0.00    -0.266 OA
ATOM      8  C   UNL d   1      -3.305   1.729   0.000  0.00  0.00     0.181 A 
ATOM      9  C   UNL d   1      -4.090   2.802   0.000  0.00  0.00     0.123 A 
ATOM     10  N   UNL d   1      -2.594   1.318   0.000  0.00  0.00    -0.220 NA
ATOM     11  S   UNL d   1      -4.086   1.467   0.000  0.00  0.00    -0.049 SA
ATOM     12  C   UNL d   1      -1.879   1.729   0.000  0.00  0.00     0.111 A 
ATOM     13  C   UNL d   1      -4.573   2.141   0.000  0.00  0.00     0.043 A 
ENDBRANCH   1   4
BRANCH   3  14
ATOM     14  C   UNL d   1       0.254   2.976   0.000  0.00  0.00     0.102 C 
BRANCH  14  15
ATOM     15  C   UNL d   1       0.977   2.577   0.000  0.00  0.00     0.021 C 
BRANCH  15  16
ATOM     16  C   UNL d   1       1.688   3.001   0.000  0.00  0.00     0.002 A 
ATOM     17  C   UNL d   1       2.407   2.594   0.000  0.00  0.00     0.000 A 
ATOM     18  C   UNL d   1       3.109   3.014   0.000  0.00  0.00     0.000 A 
ATOM     19  C   UNL d   1       3.105   3.849   0.000  0.00  0.00     0.000 A 
ATOM     20  C   UNL d   1       2.386   4.244   0.000  0.00  0.00     0.000 A 
ATOM     21  C   UNL d   1       1.675   3.829   0.000  0.00  0.00     0.000 A 
ENDBRANCH  15  16
ENDBRANCH  14  15
ENDBRANCH   3  14
TORSDOF 4
