REMARK  3 active torsions:
REMARK  status: ('A' for Active; 'I' for Inactive)
REMARK    1  A    between atoms: C_7  and  N_1 
REMARK    2  A    between atoms: C_6  and  C_2 
REMARK    3  A    between atoms: O_19  and  C_9 
ROOT
ATOM      1  N   UNL d   1      -2.417   3.912   0.000  0.00  0.00    -0.259 N 
ATOM      2  C   UNL d   1      -3.181   4.235   0.000  0.00  0.00     0.137 A 
ATOM      3  C   UNL d   1      -1.872   4.512   0.000  0.00  0.00     0.282 A 
ATOM      4  N   UNL d   1      -3.093   5.066   0.000  0.00  0.00    -0.287 N 
ATOM      5  C   UNL d   1      -2.275   5.238   0.000  0.00  0.00     0.122 A 
ATOM      6  O   UNL d   1      -1.045   4.436   0.000  0.00  0.00    -0.265 OA
ATOM      7  C   UNL d   1      -3.500   5.784   0.000  0.00  0.00     0.082 A 
ATOM      8  C   UNL d   1      -2.199   6.061   0.000  0.00  0.00     0.024 A 
ATOM      9  C   UNL d   1      -2.946   6.400   0.000  0.00  0.00     0.021 A 
ENDROOT
BRANCH   2  10
ATOM     10  C   UNL d   1      -3.899   3.828   0.000  0.00  0.00     0.056 A 
ATOM     11  C   UNL d   1      -4.604   4.235   0.000  0.00  0.00     0.097 A 
ATOM     12  C   UNL d   1      -5.322   3.836   0.000  0.00  0.00     0.024 A 
ATOM     13  C   UNL d   1      -5.322   3.009   0.000  0.00  0.00     0.002 A 
ATOM     14  C   UNL d   1      -4.617   2.602   0.000  0.00  0.00     0.000 A 
ATOM     15  C   UNL d   1      -3.891   3.009   0.000  0.00  0.00     0.005 A 
BRANCH  11  16
ATOM     16  O   UNL d   1      -4.596   5.066   0.000  0.00  0.00    -0.328 OA
ATOM     17  C   UNL d   1      -5.322   5.494   0.000  0.00  0.00     0.181 C 
ENDBRANCH  11  16
ENDBRANCH   2  10
BRANCH   1  18
ATOM     18  C   UNL d   1      -2.249   3.106   0.000  0.00  0.00     0.068 A 
ATOM     19  C   UNL d   1      -1.469   2.854   0.000  0.00  0.00     0.018 A 
ATOM     20  C   UNL d   1      -1.293   2.048   0.000  0.00  0.00     0.013 A 
ATOM     21  C   UNL d   1      -1.910   1.494   0.000  0.00  0.00     0.058 A 
ATOM     22  C   UNL d   1      -2.695   1.746   0.000  0.00  0.00     0.013 A 
ATOM     23 CL   UNL d   1      -1.733   0.688   0.000  0.00  0.00    -0.082 Cl
ATOM     24  C   UNL d   1      -2.866   2.552   0.000  0.00  0.00     0.018 A 
ENDBRANCH   1  18
TORSDOF 3
