REMARK  3 active torsions:
REMARK  status: ('A' for Active; 'I' for Inactive)
REMARK    1  A    between atoms: C_9  and  C_3 
REMARK    2  A    between atoms: N_10  and  C_9 
REMARK    3  A    between atoms: C_11  and  C_9 
ROOT
ATOM      1  C   UNL d   1      -0.396   2.320   0.000  0.00  0.00     0.075 C 
ENDROOT
BRANCH   1   2
ATOM      2  C   UNL d   1      -1.220   2.337   0.000  0.00  0.00     0.106 A 
ATOM      3  C   UNL d   1      -1.696   3.020   0.000  0.00  0.00     0.289 A 
ATOM      4  N   UNL d   1      -2.483   2.783   0.000  0.00  0.00    -0.169 N 
ATOM      5  O   UNL d   1      -1.421   3.799   0.000  0.00  0.00    -0.265 OA
ATOM      6  C   UNL d   1      -2.499   1.958   0.000  0.00  0.00     0.200 A 
ATOM      7  N   UNL d   1      -3.258   3.049   0.000  0.00  0.00    -0.141 NA
ATOM      8  S   UNL d   1      -1.725   1.683   0.000  0.00  0.00    -0.042 SA
ATOM      9  N   UNL d   1      -3.287   1.720   0.000  0.00  0.00    -0.200 NA
ATOM     10  C   UNL d   1      -3.757   2.395   0.000  0.00  0.00     0.184 A 
ATOM     11  C   UNL d   1      -4.582   2.420   0.000  0.00  0.00     0.044 C 
ENDBRANCH   1   2
BRANCH   1  12
ATOM     12  N   UNL d   1      -0.008   1.595   0.000  0.00  0.00    -0.300 N 
ATOM     13  C   UNL d   1      -0.437   0.900   0.000  0.00  0.00     0.107 A 
ATOM     14  C   UNL d   1      -0.037   0.171   0.000  0.00  0.00     0.142 A 
ATOM     15  O   UNL d   1       0.787   0.146   0.000  0.00  0.00    -0.300 OA
ATOM     16  C   UNL d   1       1.204   0.858   0.000  0.00  0.00     0.142 A 
ATOM     17  C   UNL d   1       0.812   1.583   0.000  0.00  0.00     0.107 A 
ENDBRANCH   1  12
BRANCH   1  18
ATOM     18  C   UNL d   1       0.029   3.020   0.000  0.00  0.00     0.017 A 
ATOM     19  C   UNL d   1       0.854   2.999   0.000  0.00  0.00     0.002 A 
ATOM     20  C   UNL d   1       1.287   3.708   0.000  0.00  0.00     0.000 A 
ATOM     21  C   UNL d   1       0.891   4.416   0.000  0.00  0.00     0.000 A 
ATOM     22  C   UNL d   1       0.062   4.428   0.000  0.00  0.00     0.000 A 
ATOM     23  C   UNL d   1       1.316   5.141   0.000  0.00  0.00     0.000 C 
ATOM     24  C   UNL d   1      -0.358   3.737   0.000  0.00  0.00     0.002 A 
ENDBRANCH   1  18
TORSDOF 3
