REMARK  6 active torsions:
REMARK  status: ('A' for Active; 'I' for Inactive)
REMARK    1  A    between atoms: C_10  and  N_4 
REMARK    2  A    between atoms: C_12  and  C_9 
REMARK    3  A    between atoms: C_15  and  C_10 
REMARK    4  A    between atoms: C_17  and  N_11 
REMARK    5  A    between atoms: N_13  and  C_12 
REMARK    6  A    between atoms: O_30  and  C_27 
ROOT
ATOM      1  C   UNL d   1      -2.430   2.564   0.000  0.00  0.00     0.157 A 
ATOM      2  C   UNL d   1      -2.426   1.741   0.000  0.00  0.00     0.174 A 
ATOM      3  N   UNL d   1      -3.144   1.328   0.000  0.00  0.00    -0.240 N 
ATOM      4  N   UNL d   1      -1.649   2.827   0.000  0.00  0.00    -0.283 N 
ATOM      5  N   UNL d   1      -3.854   2.564   0.000  0.00  0.00    -0.223 N 
ATOM      6  C   UNL d   1      -3.854   1.737   0.000  0.00  0.00     0.343 A 
ATOM      7  C   UNL d   1      -3.144   2.990   0.000  0.00  0.00     0.287 A 
ATOM      8  N   UNL d   1      -1.641   1.491   0.000  0.00  0.00    -0.207 NA
ATOM      9  C   UNL d   1      -1.161   2.163   0.000  0.00  0.00     0.167 A 
ATOM     10  O   UNL d   1      -4.572   1.323   0.000  0.00  0.00    -0.245 OA
ATOM     11  O   UNL d   1      -3.144   3.808   0.000  0.00  0.00    -0.265 OA
ATOM     12  C   UNL d   1      -3.144   0.501   0.000  0.00  0.00     0.105 C 
ATOM     13  C   UNL d   1      -4.572   2.977   0.000  0.00  0.00     0.107 C 
ENDROOT
BRANCH   9  14
ATOM     14  C   UNL d   1      -0.334   2.167   0.000  0.00  0.00     0.118 C 
BRANCH  14  15
ATOM     15  N   UNL d   1       0.079   1.461   0.000  0.00  0.00    -0.297 N 
ATOM     16  C   UNL d   1      -0.322   0.739   0.000  0.00  0.00     0.100 A 
ATOM     17  C   UNL d   1       0.088   0.021   0.000  0.00  0.00     0.100 A 
ATOM     18  N   UNL d   1       0.919   0.025   0.000  0.00  0.00    -0.301 N 
ATOM     19  C   UNL d   1       1.328   0.747   0.000  0.00  0.00     0.100 A 
ATOM     20  C   UNL d   1       0.906   1.461   0.000  0.00  0.00     0.100 A 
BRANCH  18  21
ATOM     21  C   UNL d   1       1.332  -0.689   0.000  0.00  0.00     0.064 A 
ATOM     22  C   UNL d   1       0.919  -1.395   0.000  0.00  0.00     0.020 A 
ATOM     23  C   UNL d   1       1.332  -2.117   0.000  0.00  0.00     0.026 A 
ATOM     24  C   UNL d   1       2.159  -2.117   0.000  0.00  0.00     0.094 A 
ATOM     25  C   UNL d   1       2.568  -1.395   0.000  0.00  0.00     0.026 A 
ATOM     26  C   UNL d   1       2.155  -0.681   0.000  0.00  0.00     0.020 A 
BRANCH  24  27
ATOM     27  O   UNL d   1       2.580  -2.822   0.000  0.00  0.00    -0.328 OA
ATOM     28  C   UNL d   1       2.167  -3.537   0.000  0.00  0.00     0.181 C 
ENDBRANCH  24  27
ENDBRANCH  18  21
ENDBRANCH  14  15
ENDBRANCH   9  14
BRANCH   4  29
ATOM     29  C   UNL d   1      -1.399   3.616   0.000  0.00  0.00     0.082 C 
BRANCH  29  30
ATOM     30  C   UNL d   1      -1.954   4.213   0.000  0.00  0.00     0.018 A 
ATOM     31  C   UNL d   1      -1.699   4.989   0.000  0.00  0.00     0.001 A 
ATOM     32  C   UNL d   1      -0.898   5.177   0.000  0.00  0.00     0.000 C 
ATOM     33  C   UNL d   1      -2.263   5.603   0.000  0.00  0.00     0.000 A 
ATOM     34  C   UNL d   1      -3.069   5.428   0.000  0.00  0.00     0.000 A 
ATOM     35  C   UNL d   1      -3.319   4.647   0.000  0.00  0.00     0.000 A 
ATOM     36  C   UNL d   1      -2.764   4.038   0.000  0.00  0.00     0.002 A 
ENDBRANCH  29  30
ENDBRANCH   4  29
TORSDOF 6
