REMARK  11 active torsions:
REMARK  status: ('A' for Active; 'I' for Inactive)
REMARK    1  A    between atoms: C_8  and  C_1 
REMARK    2  A    between atoms: C_6  and  N_7 
REMARK    3  A    between atoms: N_19  and  C_6 
REMARK    4  A    between atoms: N_7  and  C_14 
REMARK    5  A    between atoms: C_11  and  N_7 
REMARK    6  A    between atoms: C_14  and  C_8 
REMARK    7  A    between atoms: C_9  and  C_11 
REMARK    8  A    between atoms: C_25  and  N_19 
REMARK    9  A    between atoms: O_23  and  C_20 
REMARK   10  A    between atoms: O_24  and  C_26 
REMARK   11  A    between atoms: C_26  and  C_25 
ROOT
ATOM      1  N   UNL d   1       7.612  -7.342   0.000  0.00  0.00    -0.279 N 
ENDROOT
BRANCH   1   2
ATOM      2  C   UNL d   1       7.280  -6.589   0.000  0.00  0.00     0.206 C 
ATOM      3  S   UNL d   1       6.456  -6.502   0.000  0.00  0.00    -0.038 SA
BRANCH   2   4
ATOM      4  N   UNL d   1       7.766  -5.920   0.000  0.00  0.00    -0.215 NA
BRANCH   4   5
ATOM      5  C   UNL d   1       8.586  -6.015   0.000  0.00  0.00     0.128 C 
BRANCH   5   6
ATOM      6  C   UNL d   1       8.915  -6.768   0.000  0.00  0.00     0.137 C 
BRANCH   6   7
ATOM      7  O   UNL d   1       9.734  -6.856   0.000  0.00  0.00    -0.325 OA
ATOM      8  C   UNL d   1      10.063  -7.604   0.000  0.00  0.00     0.182 C 
ENDBRANCH   6   7
ENDBRANCH   5   6
ENDBRANCH   4   5
ENDBRANCH   2   4
ENDBRANCH   1   2
BRANCH   1   9
ATOM      9  C   UNL d   1       7.118  -8.016   0.000  0.00  0.00     0.082 C 
BRANCH   9  10
ATOM     10  C   UNL d   1       6.294  -7.929   0.000  0.00  0.00     0.021 C 
BRANCH  10  11
ATOM     11  C   UNL d   1       5.807  -8.590   0.000  0.00  0.00     0.021 A 
ATOM     12  C   UNL d   1       6.057  -9.389   0.000  0.00  0.00     0.082 A 
ATOM     13  N   UNL d   1       5.383  -9.863   0.000  0.00  0.00    -0.246 NA
ATOM     14  C   UNL d   1       6.843  -9.647   0.000  0.00  0.00     0.021 C 
ATOM     15  C   UNL d   1       4.717  -9.376   0.000  0.00  0.00     0.082 A 
ATOM     16  C   UNL d   1       4.984  -8.590   0.000  0.00  0.00     0.021 A 
ATOM     17  C   UNL d   1       3.910  -9.539   0.000  0.00  0.00     0.021 A 
ATOM     18  C   UNL d   1       4.434  -7.979   0.000  0.00  0.00     0.026 A 
ATOM     19  C   UNL d   1       3.623  -8.141   0.000  0.00  0.00     0.094 A 
ATOM     20  C   UNL d   1       3.369  -8.927   0.000  0.00  0.00     0.026 A 
BRANCH  19  21
ATOM     21  O   UNL d   1       3.074  -7.525   0.000  0.00  0.00    -0.328 OA
ATOM     22  C   UNL d   1       2.263  -7.700   0.000  0.00  0.00     0.181 C 
ENDBRANCH  19  21
ENDBRANCH  10  11
ENDBRANCH   9  10
ENDBRANCH   1   9
BRANCH   1  23
ATOM     23  C   UNL d   1       8.428  -7.429   0.000  0.00  0.00     0.107 C 
BRANCH  23  24
ATOM     24  C   UNL d   1       8.765  -8.191   0.000  0.00  0.00     0.118 A 
ATOM     25  O   UNL d   1       9.576  -8.366   0.000  0.00  0.00    -0.304 OA
ATOM     26  C   UNL d   1       9.659  -9.189   0.000  0.00  0.00     0.123 A 
ATOM     27  C   UNL d   1       8.910  -9.514   0.000  0.00  0.00     0.029 A 
ATOM     28  C   UNL d   1       8.361  -8.890   0.000  0.00  0.00     0.028 A 
ENDBRANCH  23  24
ENDBRANCH   1  23
TORSDOF 11
