REMARK  4 active torsions:
REMARK  status: ('A' for Active; 'I' for Inactive)
REMARK    1  A    between atoms: C_9  and  C_3 
REMARK    2  A    between atoms: N_10  and  C_9 
REMARK    3  A    between atoms: C_19  and  C_9 
REMARK    4  A    between atoms: C_12  and  N_11 
ROOT
ATOM      1  C   UNL d   1      -0.397   2.327   0.000  0.00  0.00     0.075 C 
ENDROOT
BRANCH   1   2
ATOM      2  C   UNL d   1      -1.224   2.344   0.000  0.00  0.00     0.106 A 
ATOM      3  C   UNL d   1      -1.700   3.029   0.000  0.00  0.00     0.289 A 
ATOM      4  N   UNL d   1      -2.490   2.791   0.000  0.00  0.00    -0.169 N 
ATOM      5  O   UNL d   1      -1.425   3.810   0.000  0.00  0.00    -0.265 OA
ATOM      6  C   UNL d   1      -2.507   1.964   0.000  0.00  0.00     0.200 A 
ATOM      7  N   UNL d   1      -3.267   3.058   0.000  0.00  0.00    -0.141 NA
ATOM      8  S   UNL d   1      -1.730   1.688   0.000  0.00  0.00    -0.042 SA
ATOM      9  N   UNL d   1      -3.296   1.726   0.000  0.00  0.00    -0.200 NA
ATOM     10  C   UNL d   1      -3.769   2.402   0.000  0.00  0.00     0.184 A 
ATOM     11  C   UNL d   1      -4.596   2.427   0.000  0.00  0.00     0.044 C 
ENDBRANCH   1   2
BRANCH   1  12
ATOM     12  N   UNL d   1      -0.008   1.600   0.000  0.00  0.00    -0.301 N 
ATOM     13  C   UNL d   1      -0.434   0.898   0.000  0.00  0.00     0.100 A 
ATOM     14  C   UNL d   1      -0.038   0.171   0.000  0.00  0.00     0.100 A 
ATOM     15  N   UNL d   1       0.790   0.138   0.000  0.00  0.00    -0.299 N 
ATOM     16  C   UNL d   1       1.208   0.848   0.000  0.00  0.00     0.100 A 
ATOM     17  C   UNL d   1       0.819   1.579   0.000  0.00  0.00     0.100 A 
BRANCH  15  18
ATOM     18  C   UNL d   1       1.170  -0.581   0.000  0.00  0.00     0.092 A 
ATOM     19  C   UNL d   1       0.752  -1.283   0.000  0.00  0.00     0.156 A 
ATOM     20  F   UNL d   1      -0.084  -1.258   0.000  0.00  0.00    -0.203 F 
ATOM     21  C   UNL d   1       1.145  -2.006   0.000  0.00  0.00     0.031 A 
ATOM     22  C   UNL d   1       1.968  -2.022   0.000  0.00  0.00     0.002 A 
ATOM     23  C   UNL d   1       2.386  -1.320   0.000  0.00  0.00     0.002 A 
ATOM     24  C   UNL d   1       1.997  -0.602   0.000  0.00  0.00     0.020 A 
ENDBRANCH  15  18
ENDBRANCH   1  12
BRANCH   1  25
ATOM     25  C   UNL d   1       0.029   3.029   0.000  0.00  0.00     0.017 A 
ATOM     26  C   UNL d   1      -0.363   3.744   0.000  0.00  0.00     0.002 A 
ATOM     27  C   UNL d   1       0.063   4.429   0.000  0.00  0.00     0.000 A 
ATOM     28  C   UNL d   1       0.902   4.416   0.000  0.00  0.00     0.000 A 
ATOM     29  C   UNL d   1       1.283   3.706   0.000  0.00  0.00     0.000 A 
ATOM     30  C   UNL d   1       0.857   2.996   0.000  0.00  0.00     0.002 A 
ENDBRANCH   1  25
TORSDOF 4
