REMARK  4 active torsions:
REMARK  status: ('A' for Active; 'I' for Inactive)
REMARK       I    between atoms: C_2  and  N_1 
REMARK    1  A    between atoms: C_4  and  C_2 
REMARK    2  A    between atoms: S_8  and  C_3 
REMARK    3  A    between atoms: O_12  and  C_7 
REMARK    4  A    between atoms: C_15  and  O_12 
ROOT
ATOM      1  C   UNL d   1      -4.569   1.292   0.000  0.00  0.00     0.079 A 
ATOM      2  C   UNL d   1      -5.284   1.716   0.000  0.00  0.00     0.105 A 
ATOM      3  C   UNL d   1      -4.569   0.469   0.000  0.00  0.00     0.007 A 
ATOM      4  C   UNL d   1      -5.995   1.296   0.000  0.00  0.00     0.025 A 
ATOM      5  C   UNL d   1      -5.280   0.058   0.000  0.00  0.00     0.000 A 
ATOM      6  C   UNL d   1      -5.986   0.469   0.000  0.00  0.00     0.002 A 
ENDROOT
BRANCH   1   7
ATOM      7  C   UNL d   1      -3.851   1.703   0.000  0.00  0.00     0.268 C 
ATOM      8  N   UNL d   1      -3.847   2.526   0.000  0.00  0.00    -0.251 N 
ATOM      9  C   UNL d   1      -3.178   3.012   0.000  0.00  0.00     0.178 A 
ATOM     10  C   UNL d   1      -4.520   3.012   0.000  0.00  0.00     0.106 A 
ATOM     11  N   UNL d   1      -3.436   3.789   0.000  0.00  0.00    -0.219 NA
ATOM     12  C   UNL d   1      -4.258   3.797   0.000  0.00  0.00     0.120 A 
ATOM     13  O   UNL d   1      -3.140   1.284   0.000  0.00  0.00    -0.267 OA
BRANCH   9  14
ATOM     14  S   UNL d   1      -2.401   2.750   0.000  0.00  0.00    -0.076 SA
ATOM     15  C   UNL d   1      -2.231   1.940   0.000  0.00  0.00     0.077 C 
ENDBRANCH   9  14
ENDBRANCH   1   7
BRANCH   2  16
ATOM     16  O   UNL d   1      -5.280   2.538   0.000  0.00  0.00    -0.305 OA
BRANCH  16  17
ATOM     17  C   UNL d   1      -5.995   2.949   0.000  0.00  0.00     0.123 C 
ATOM     18  C   UNL d   1      -6.697   2.538   0.000  0.00  0.00     0.029 C 
ENDBRANCH  16  17
ENDBRANCH   2  16
TORSDOF 4
