REMARK  4 active torsions:
REMARK  status: ('A' for Active; 'I' for Inactive)
REMARK    1  A    between atoms: C_4  and  C_1 
REMARK       I    between atoms: N_6  and  C_4 
REMARK    2  A    between atoms: C_9  and  N_6 
REMARK    3  A    between atoms: C_12  and  N_6 
REMARK    4  A    between atoms: C_17  and  C_12 
ROOT
ATOM      1  C   UNL d   1      -1.171   2.983   0.000  0.00  0.00     0.272 C 
ATOM      2  N   UNL d   1      -0.458   2.571   0.000  0.00  0.00    -0.258 N 
ATOM      3  O   UNL d   1      -1.175   3.800   0.000  0.00  0.00    -0.266 OA
ENDROOT
BRANCH   2   4
ATOM      4  C   UNL d   1      -0.446   1.733   0.000  0.00  0.00     0.150 A 
ATOM      5  N   UNL d   1      -1.171   1.321   0.000  0.00  0.00    -0.227 NA
ATOM      6  C   UNL d   1      -1.158   0.487   0.000  0.00  0.00     0.101 A 
ATOM      7  C   UNL d   1      -0.438   0.083   0.000  0.00  0.00     0.021 A 
ATOM      8  C   UNL d   1       0.279   0.500   0.000  0.00  0.00     0.005 A 
ATOM      9  C   UNL d   1       0.275   1.325   0.000  0.00  0.00     0.037 A 
ENDBRANCH   2   4
BRANCH   2  10
ATOM     10  C   UNL d   1       0.267   2.983   0.000  0.00  0.00     0.084 C 
BRANCH  10  11
ATOM     11  C   UNL d   1       0.979   2.571   0.000  0.00  0.00     0.018 A 
ATOM     12  C   UNL d   1       0.979   1.746   0.000  0.00  0.00     0.002 A 
ATOM     13  C   UNL d   1       1.692   1.337   0.000  0.00  0.00     0.000 A 
ATOM     14  C   UNL d   1       2.404   1.746   0.000  0.00  0.00     0.000 A 
ATOM     15  C   UNL d   1       2.404   2.583   0.000  0.00  0.00     0.000 A 
ATOM     16  C   UNL d   1       1.688   2.983   0.000  0.00  0.00     0.002 A 
ENDBRANCH  10  11
ENDBRANCH   2  10
BRANCH   1  17
ATOM     17  C   UNL d   1      -1.883   2.558   0.000  0.00  0.00     0.132 A 
ATOM     18  C   UNL d   1      -2.600   2.971   0.000  0.00  0.00     0.272 A 
ATOM     19  N   UNL d   1      -3.321   2.558   0.000  0.00  0.00    -0.265 N 
ATOM     20  O   UNL d   1      -2.608   3.796   0.000  0.00  0.00    -0.266 OA
ATOM     21  C   UNL d   1      -4.100   2.808   0.000  0.00  0.00     0.123 A 
ATOM     22  C   UNL d   1      -3.312   1.733   0.000  0.00  0.00     0.181 A 
ATOM     23  C   UNL d   1      -4.583   2.146   0.000  0.00  0.00     0.043 A 
ATOM     24  S   UNL d   1      -4.096   1.471   0.000  0.00  0.00    -0.049 SA
ATOM     25  N   UNL d   1      -2.600   1.321   0.000  0.00  0.00    -0.220 NA
ATOM     26  C   UNL d   1      -1.883   1.733   0.000  0.00  0.00     0.111 A 
ENDBRANCH   1  17
TORSDOF 4
