REMARK  5 active torsions:
REMARK  status: ('A' for Active; 'I' for Inactive)
REMARK    1  A    between atoms: N_2  and  S_1 
REMARK    2  A    between atoms: C_9  and  S_1 
REMARK    3  A    between atoms: C_4  and  N_11 
REMARK    4  A    between atoms: C_8  and  C_16 
REMARK       I    between atoms: N_10  and  C_8 
REMARK    5  A    between atoms: N_11  and  N_10 
ROOT
ATOM      1  C   UNL d   1      -5.307   2.990   0.000  0.00  0.00     0.104 A 
ATOM      2  C   UNL d   1      -3.879   3.808   0.000  0.00  0.00     0.059 A 
ATOM      3  C   UNL d   1      -5.307   3.816   0.000  0.00  0.00     0.013 A 
ATOM      4  C   UNL d   1      -4.593   2.576   0.000  0.00  0.00     0.013 A 
ATOM      5  C   UNL d   1      -3.879   2.990   0.000  0.00  0.00     0.006 A 
ATOM      6  C   UNL d   1      -4.593   4.221   0.000  0.00  0.00     0.006 A 
ENDROOT
BRANCH   2   7
ATOM      7  C   UNL d   1      -3.165   4.213   0.000  0.00  0.00     0.297 C 
ATOM      8  N   UNL d   1      -2.505   3.728   0.000  0.00  0.00    -0.104 NA
ATOM      9  O   UNL d   1      -3.265   5.040   0.000  0.00  0.00    -0.264 OA
BRANCH   8  10
ATOM     10  N   UNL d   1      -2.601   2.914   0.000  0.00  0.00    -0.118 NA
BRANCH  10  11
ATOM     11  C   UNL d   1      -1.937   2.413   0.000  0.00  0.00     0.215 A 
ATOM     12  N   UNL d   1      -1.152   2.651   0.000  0.00  0.00    -0.219 NA
ATOM     13  C   UNL d   1      -0.672   1.987   0.000  0.00  0.00     0.090 A 
ATOM     14  C   UNL d   1       0.142   1.887   0.000  0.00  0.00     0.018 A 
ATOM     15  C   UNL d   1      -1.173   1.323   0.000  0.00  0.00     0.050 A 
ATOM     16  C   UNL d   1       0.464   1.127   0.000  0.00  0.00     0.002 A 
ATOM     17  C   UNL d   1       0.639   2.551   0.000  0.00  0.00     0.002 C 
ATOM     18  C   UNL d   1      -0.033   0.472   0.000  0.00  0.00     0.001 A 
ATOM     19  C   UNL d   1      -0.860   0.559   0.000  0.00  0.00     0.008 A 
ATOM     20  S   UNL d   1      -1.950   1.591   0.000  0.00  0.00    -0.045 SA
ENDBRANCH  10  11
ENDBRANCH   8  10
ENDBRANCH   2   7
BRANCH   1  21
ATOM     21  S   UNL d   1      -6.017   2.568   0.000  0.00  0.00     0.271 S 
ATOM     22  O   UNL d   1      -6.430   3.282   0.000  0.00  0.00    -0.200 OA
ATOM     23  O   UNL d   1      -5.607   1.854   0.000  0.00  0.00    -0.200 OA
BRANCH  21  24
ATOM     24  N   UNL d   1      -6.731   2.155   0.000  0.00  0.00    -0.229 N 
ATOM     25  C   UNL d   1      -7.432   2.576   0.000  0.00  0.00     0.092 A 
ATOM     26  C   UNL d   1      -8.146   2.163   0.000  0.00  0.00     0.018 A 
ATOM     27  C   UNL d   1      -8.881   2.564   0.000  0.00  0.00     0.002 C 
ATOM     28  C   UNL d   1      -8.146   1.336   0.000  0.00  0.00     0.003 A 
ATOM     29  C   UNL d   1      -7.432   0.923   0.000  0.00  0.00     0.018 A 
ATOM     30  C   UNL d   1      -6.718   1.336   0.000  0.00  0.00     0.092 A 
ATOM     31  C   UNL d   1      -7.445   0.088   0.000  0.00  0.00     0.002 C 
ENDBRANCH  21  24
ENDBRANCH   1  21
TORSDOF 5
