REMARK  6 active torsions:
REMARK  status: ('A' for Active; 'I' for Inactive)
REMARK    1  A    between atoms: C_3  and  N_1 
REMARK       I    between atoms: C_4  and  N_1 
REMARK    2  A    between atoms: C_6  and  N_1 
REMARK    3  A    between atoms: N_2  and  C_3 
REMARK    4  A    between atoms: C_7  and  C_4 
REMARK    5  A    between atoms: O_14  and  C_16 
REMARK    6  A    between atoms: C_24  and  O_14 
ROOT
ATOM      1  N   UNL d   1      -3.182   2.641   0.000  0.00  0.00    -0.258 N 
ATOM      2  C   UNL d   1      -3.900   3.056   0.000  0.00  0.00     0.266 C 
ATOM      3  O   UNL d   1      -3.925   3.829   0.000  0.00  0.00    -0.267 OA
ENDROOT
BRANCH   1   4
ATOM      4  C   UNL d   1      -3.174   1.814   0.000  0.00  0.00     0.171 C 
BRANCH   4   5
ATOM      5  N   UNL d   1      -2.540   1.285   0.000  0.00  0.00    -0.257 N 
ATOM      6  C   UNL d   1      -2.578   0.462   0.000  0.00  0.00     0.266 A 
ATOM      7  O   UNL d   1      -3.275   0.008   0.000  0.00  0.00    -0.267 OA
ATOM      8  C   UNL d   1      -1.801   0.160   0.000  0.00  0.00     0.063 A 
ATOM      9  C   UNL d   1      -1.280   0.802   0.000  0.00  0.00     0.024 A 
ATOM     10  C   UNL d   1      -1.725   1.499   0.000  0.00  0.00     0.085 A 
ENDBRANCH   4   5
ENDBRANCH   1   4
BRANCH   1  11
ATOM     11  C   UNL d   1      -2.464   3.056   0.000  0.00  0.00     0.068 A 
ATOM     12  C   UNL d   1      -2.464   3.887   0.000  0.00  0.00     0.018 A 
ATOM     13  C   UNL d   1      -1.746   4.282   0.000  0.00  0.00     0.002 A 
ATOM     14  C   UNL d   1      -1.041   3.875   0.000  0.00  0.00     0.000 A 
ATOM     15  C   UNL d   1      -1.041   3.056   0.000  0.00  0.00     0.002 A 
ATOM     16  C   UNL d   1      -0.323   4.282   0.000  0.00  0.00     0.000 C 
ATOM     17  C   UNL d   1      -1.746   2.641   0.000  0.00  0.00     0.018 A 
ENDBRANCH   1  11
BRANCH   2  18
ATOM     18  C   UNL d   1      -4.605   2.632   0.000  0.00  0.00     0.057 A 
ATOM     19  C   UNL d   1      -4.593   1.809   0.000  0.00  0.00     0.007 A 
ATOM     20  C   UNL d   1      -5.290   1.381   0.000  0.00  0.00     0.025 A 
ATOM     21  C   UNL d   1      -6.016   1.776   0.000  0.00  0.00     0.100 A 
ATOM     22  C   UNL d   1      -6.028   2.615   0.000  0.00  0.00     0.025 A 
ATOM     23  C   UNL d   1      -5.327   3.031   0.000  0.00  0.00     0.007 A 
BRANCH  21  24
ATOM     24  O   UNL d   1      -6.704   1.356   0.000  0.00  0.00    -0.307 OA
BRANCH  24  25
ATOM     25  C   UNL d   1      -6.692   0.529   0.000  0.00  0.00     0.100 C 
ATOM     26  C   UNL d   1      -5.970   0.134   0.000  0.00  0.00     0.027 C 
ATOM     27  C   UNL d   1      -7.397   0.101   0.000  0.00  0.00     0.027 C 
ENDBRANCH  24  25
ENDBRANCH  21  24
ENDBRANCH   2  18
TORSDOF 6
