REMARK  4 active torsions:
REMARK  status: ('A' for Active; 'I' for Inactive)
REMARK    1  A    between atoms: N_15  and  C_2 
REMARK    2  A    between atoms: C_3  and  C_9 
REMARK    3  A    between atoms: C_11  and  C_7 
REMARK       I    between atoms: C_9  and  N_14 
REMARK    4  A    between atoms: N_14  and  N_15 
ROOT
ATOM      1  C   UNL d   1      -3.877   3.806   0.000  0.00  0.00     0.062 A 
ATOM      2  N   UNL d   1      -5.308   2.988   0.000  0.00  0.00    -0.245 NA
ATOM      3  C   UNL d   1      -4.590   2.567   0.000  0.00  0.00     0.087 A 
ATOM      4  C   UNL d   1      -3.877   2.988   0.000  0.00  0.00     0.025 A 
ATOM      5  C   UNL d   1      -4.603   4.211   0.000  0.00  0.00     0.022 A 
ATOM      6  C   UNL d   1      -5.308   3.806   0.000  0.00  0.00     0.082 A 
ATOM      7  C   UNL d   1      -4.590   5.037   0.000  0.00  0.00     0.002 A 
ATOM      8  C   UNL d   1      -6.014   4.211   0.000  0.00  0.00     0.019 A 
ATOM      9  C   UNL d   1      -5.308   5.450   0.000  0.00  0.00     0.000 A 
ATOM     10  C   UNL d   1      -6.014   5.037   0.000  0.00  0.00     0.002 A 
ENDROOT
BRANCH   1  11
ATOM     11  C   UNL d   1      -3.163   4.211   0.000  0.00  0.00     0.297 C 
ATOM     12  N   UNL d   1      -2.504   3.727   0.000  0.00  0.00    -0.104 NA
ATOM     13  O   UNL d   1      -3.263   5.037   0.000  0.00  0.00    -0.264 OA
BRANCH  12  14
ATOM     14  N   UNL d   1      -2.600   2.913   0.000  0.00  0.00    -0.118 NA
BRANCH  14  15
ATOM     15  C   UNL d   1      -1.936   2.412   0.000  0.00  0.00     0.215 A 
ATOM     16  N   UNL d   1      -1.152   2.650   0.000  0.00  0.00    -0.219 NA
ATOM     17  C   UNL d   1      -0.672   1.986   0.000  0.00  0.00     0.090 A 
ATOM     18  C   UNL d   1      -1.173   1.323   0.000  0.00  0.00     0.050 A 
ATOM     19  C   UNL d   1       0.142   1.886   0.000  0.00  0.00     0.018 A 
ATOM     20  C   UNL d   1      -0.860   0.559   0.000  0.00  0.00     0.008 A 
ATOM     21  S   UNL d   1      -1.949   1.590   0.000  0.00  0.00    -0.045 SA
ATOM     22  C   UNL d   1      -0.033   0.471   0.000  0.00  0.00     0.001 A 
ATOM     23  C   UNL d   1       0.463   1.127   0.000  0.00  0.00     0.002 A 
ATOM     24  C   UNL d   1       0.638   2.550   0.000  0.00  0.00     0.002 C 
ENDBRANCH  14  15
ENDBRANCH  12  14
ENDBRANCH   1  11
BRANCH   3  25
ATOM     25  C   UNL d   1      -4.590   1.736   0.000  0.00  0.00     0.047 A 
ATOM     26  S   UNL d   1      -5.304   1.323   0.000  0.00  0.00    -0.085 SA
ATOM     27  C   UNL d   1      -5.141   0.513   0.000  0.00  0.00     0.035 A 
ATOM     28  C   UNL d   1      -4.340   0.434   0.000  0.00  0.00     0.007 A 
ATOM     29  C   UNL d   1      -3.981   1.185   0.000  0.00  0.00     0.009 A 
ENDBRANCH   3  25
TORSDOF 4
