REMARK  3 active torsions:
REMARK  status: ('A' for Active; 'I' for Inactive)
REMARK    1  A    between atoms: C_8  and  C_1 
REMARK    2  A    between atoms: C_3  and  N_14 
REMARK       I    between atoms: N_13  and  C_8 
REMARK    3  A    between atoms: N_14  and  N_13 
ROOT
ATOM      1  C   UNL d   1      -3.167   4.215   0.000  0.00  0.00     0.320 C 
ATOM      2  N   UNL d   1      -2.507   3.731   0.000  0.00  0.00    -0.102 NA
ATOM      3  O   UNL d   1      -3.267   5.043   0.000  0.00  0.00    -0.261 OA
ENDROOT
BRANCH   1   4
ATOM      4  C   UNL d   1      -3.881   3.810   0.000  0.00  0.00     0.162 A 
ATOM      5  C   UNL d   1      -3.881   2.991   0.000  0.00  0.00     0.072 A 
ATOM      6  C   UNL d   1      -4.595   2.578   0.000  0.00  0.00     0.200 A 
ATOM      7  O   UNL d   1      -4.595   1.738   0.000  0.00  0.00    -0.286 OA
ATOM      8  C   UNL d   1      -5.314   2.991   0.000  0.00  0.00     0.062 A 
ATOM      9  C   UNL d   1      -5.310   3.810   0.000  0.00  0.00     0.103 A 
ATOM     10  C   UNL d   1      -6.028   2.578   0.000  0.00  0.00     0.005 A 
ATOM     11  O   UNL d   1      -4.595   4.215   0.000  0.00  0.00    -0.302 OA
ATOM     12  C   UNL d   1      -6.016   4.224   0.000  0.00  0.00     0.025 A 
ATOM     13  C   UNL d   1      -6.734   3.818   0.000  0.00  0.00     0.002 A 
ATOM     14  C   UNL d   1      -6.734   2.991   0.000  0.00  0.00     0.000 A 
ENDBRANCH   1   4
BRANCH   2  15
ATOM     15  N   UNL d   1      -2.603   2.916   0.000  0.00  0.00    -0.118 NA
BRANCH  15  16
ATOM     16  C   UNL d   1      -1.938   2.415   0.000  0.00  0.00     0.215 A 
ATOM     17  N   UNL d   1      -1.153   2.653   0.000  0.00  0.00    -0.219 NA
ATOM     18  C   UNL d   1      -0.673   1.988   0.000  0.00  0.00     0.090 A 
ATOM     19  C   UNL d   1       0.142   1.888   0.000  0.00  0.00     0.018 A 
ATOM     20  C   UNL d   1      -1.174   1.324   0.000  0.00  0.00     0.050 A 
ATOM     21  C   UNL d   1       0.464   1.128   0.000  0.00  0.00     0.002 A 
ATOM     22  C   UNL d   1       0.639   2.553   0.000  0.00  0.00     0.002 C 
ATOM     23  C   UNL d   1      -0.033   0.472   0.000  0.00  0.00     0.001 A 
ATOM     24  C   UNL d   1      -0.861   0.560   0.000  0.00  0.00     0.008 A 
ATOM     25  S   UNL d   1      -1.951   1.592   0.000  0.00  0.00    -0.045 SA
ENDBRANCH  15  16
ENDBRANCH   2  15
TORSDOF 3
