REMARK  5 active torsions:
REMARK  status: ('A' for Active; 'I' for Inactive)
REMARK       I    between atoms: C_2  and  N_1 
REMARK    1  A    between atoms: C_5  and  N_1 
REMARK    2  A    between atoms: C_6  and  N_1 
REMARK    3  A    between atoms: C_4  and  C_2 
REMARK    4  A    between atoms: N_3  and  C_5 
REMARK    5  A    between atoms: O_16  and  C_11 
ROOT
ATOM      1  N   UNL d   1      -3.178   2.637   0.000  0.00  0.00    -0.256 N 
ATOM      2  C   UNL d   1      -3.895   3.052   0.000  0.00  0.00     0.270 C 
ATOM      3  O   UNL d   1      -3.920   3.824   0.000  0.00  0.00    -0.266 OA
ENDROOT
BRANCH   1   4
ATOM      4  C   UNL d   1      -3.170   1.811   0.000  0.00  0.00     0.172 C 
BRANCH   4   5
ATOM      5  N   UNL d   1      -2.537   1.283   0.000  0.00  0.00    -0.257 N 
ATOM      6  C   UNL d   1      -2.574   0.461   0.000  0.00  0.00     0.266 A 
ATOM      7  O   UNL d   1      -3.270   0.008   0.000  0.00  0.00    -0.267 OA
ATOM      8  C   UNL d   1      -1.799   0.159   0.000  0.00  0.00     0.063 A 
ATOM      9  C   UNL d   1      -1.279   0.801   0.000  0.00  0.00     0.024 A 
ATOM     10  C   UNL d   1      -1.723   1.497   0.000  0.00  0.00     0.085 A 
ENDBRANCH   4   5
ENDBRANCH   1   4
BRANCH   1  11
ATOM     11  C   UNL d   1      -2.461   3.052   0.000  0.00  0.00     0.090 A 
ATOM     12  C   UNL d   1      -1.744   2.637   0.000  0.00  0.00     0.110 A 
ATOM     13  C   UNL d   1      -1.040   3.052   0.000  0.00  0.00     0.026 A 
ATOM     14  C   UNL d   1      -1.040   3.870   0.000  0.00  0.00     0.002 A 
ATOM     15  C   UNL d   1      -1.744   4.276   0.000  0.00  0.00     0.002 A 
ATOM     16  C   UNL d   1      -2.461   3.882   0.000  0.00  0.00     0.020 A 
BRANCH  12  17
ATOM     17  O   UNL d   1      -1.744   1.824   0.000  0.00  0.00    -0.327 OA
ATOM     18  C   UNL d   1      -1.031   1.417   0.000  0.00  0.00     0.181 C 
ENDBRANCH  12  17
ENDBRANCH   1  11
BRANCH   2  19
ATOM     19  C   UNL d   1      -4.599   2.629   0.000  0.00  0.00     0.111 A 
ATOM     20  C   UNL d   1      -5.329   3.040   0.000  0.00  0.00     0.147 A 
ATOM     21  F   UNL d   1      -5.341   3.857   0.000  0.00  0.00    -0.204 F 
ATOM     22  C   UNL d   1      -6.025   2.599   0.000  0.00  0.00     0.030 A 
ATOM     23  C   UNL d   1      -5.995   1.773   0.000  0.00  0.00     0.005 A 
ATOM     24  C   UNL d   1      -5.270   1.379   0.000  0.00  0.00     0.030 A 
ATOM     25  C   UNL d   1      -4.578   1.807   0.000  0.00  0.00     0.147 A 
ATOM     26  F   UNL d   1      -3.849   1.417   0.000  0.00  0.00    -0.204 F 
ENDBRANCH   2  19
TORSDOF 5
