REMARK  5 active torsions:
REMARK  status: ('A' for Active; 'I' for Inactive)
REMARK    1  A    between atoms: S_3  and  C_10 
REMARK    2  A    between atoms: N_11  and  S_3 
REMARK    3  A    between atoms: C_12  and  C_4 
REMARK    4  A    between atoms: C_22  and  N_11 
REMARK    5  A    between atoms: C_23  and  N_11 
ROOT
ATOM      1  C   UNL d   1      -2.298   4.499   0.000  0.00  0.00     0.104 A 
ATOM      2  C   UNL d   1      -3.728   3.683   0.000  0.00  0.00     0.036 A 
ATOM      3  C   UNL d   1      -3.017   4.923   0.000  0.00  0.00     0.013 A 
ATOM      4  C   UNL d   1      -2.298   3.679   0.000  0.00  0.00     0.013 A 
ATOM      5  C   UNL d   1      -3.728   4.511   0.000  0.00  0.00     0.004 A 
ATOM      6  C   UNL d   1      -3.013   3.271   0.000  0.00  0.00     0.004 A 
ENDROOT
BRANCH   2   7
ATOM      7  C   UNL d   1      -4.442   3.271   0.000  0.00  0.00     0.171 A 
ATOM      8  N   UNL d   1      -4.531   2.447   0.000  0.00  0.00    -0.269 N 
ATOM      9  C   UNL d   1      -5.331   2.278   0.000  0.00  0.00     0.201 A 
ATOM     10  C   UNL d   1      -4.115   1.740   0.000  0.00  0.00     0.073 A 
ATOM     11  N   UNL d   1      -5.751   2.988   0.000  0.00  0.00    -0.121 NA
ATOM     12  S   UNL d   1      -5.428   1.454   0.000  0.00  0.00    -0.047 SA
ATOM     13  N   UNL d   1      -5.197   3.606   0.000  0.00  0.00    -0.128 NA
ATOM     14  C   UNL d   1      -4.672   1.115   0.000  0.00  0.00     0.049 A 
ATOM     15  C   UNL d   1      -4.418   0.335   0.000  0.00  0.00     0.008 A 
ATOM     16  C   UNL d   1      -3.606   0.166   0.000  0.00  0.00     0.001 A 
ATOM     17  C   UNL d   1      -3.053   0.775   0.000  0.00  0.00     0.002 A 
ATOM     18  C   UNL d   1      -3.316   1.563   0.000  0.00  0.00     0.017 A 
ATOM     19  C   UNL d   1      -2.758   2.177   0.000  0.00  0.00     0.002 C 
ENDBRANCH   2   7
BRANCH   1  20
ATOM     20  S   UNL d   1      -1.575   4.911   0.000  0.00  0.00     0.271 S 
ATOM     21  O   UNL d   1      -1.987   5.634   0.000  0.00  0.00    -0.200 OA
ATOM     22  O   UNL d   1      -1.171   4.196   0.000  0.00  0.00    -0.200 OA
BRANCH  20  23
ATOM     23  N   UNL d   1      -0.860   5.323   0.000  0.00  0.00    -0.229 N 
BRANCH  23  24
ATOM     24  C   UNL d   1      -0.860   6.159   0.000  0.00  0.00     0.092 C 
ATOM     25  C   UNL d   1      -1.571   6.571   0.000  0.00  0.00     0.021 C 
ENDBRANCH  23  24
BRANCH  23  26
ATOM     26  C   UNL d   1      -0.145   4.911   0.000  0.00  0.00     0.092 C 
ATOM     27  C   UNL d   1       0.569   5.331   0.000  0.00  0.00     0.021 C 
ENDBRANCH  23  26
ENDBRANCH  20  23
ENDBRANCH   1  20
TORSDOF 5
