REMARK  6 active torsions:
REMARK  status: ('A' for Active; 'I' for Inactive)
REMARK    1  A    between atoms: C_6  and  N_2 
REMARK    2  A    between atoms: C_7  and  C_6 
REMARK    3  A    between atoms: C_8  and  C_7 
REMARK       I    between atoms: N_13  and  C_8 
REMARK    4  A    between atoms: C_10  and  C_17 
REMARK    5  A    between atoms: C_14  and  N_13 
REMARK    6  A    between atoms: C_17  and  C_14 
ROOT
ATOM      1  C   UNL d   1      -1.208   2.296   0.000  0.00  0.00     0.082 C 
ENDROOT
BRANCH   1   2
ATOM      2  C   UNL d   1      -2.008   2.108   0.000  0.00  0.00     0.088 C 
BRANCH   2   3
ATOM      3  N   UNL d   1      -2.250   1.321   0.000  0.00  0.00    -0.268 N 
ATOM      4  C   UNL d   1      -1.758   0.662   0.000  0.00  0.00     0.296 A 
ATOM      5  S   UNL d   1      -2.271  -0.025   0.000  0.00  0.00    -0.025 SA
ATOM      6  O   UNL d   1      -0.933   0.675   0.000  0.00  0.00    -0.259 OA
ATOM      7  C   UNL d   1      -3.021   0.233   0.000  0.00  0.00     0.050 A 
ATOM      8  C   UNL d   1      -3.733  -0.192   0.000  0.00  0.00     0.008 A 
ATOM      9  C   UNL d   1      -3.033   1.058   0.000  0.00  0.00     0.073 A 
ATOM     10  C   UNL d   1      -4.458   0.212   0.000  0.00  0.00     0.001 A 
ATOM     11  C   UNL d   1      -4.458   1.038   0.000  0.00  0.00     0.002 A 
ATOM     12  C   UNL d   1      -3.746   1.458   0.000  0.00  0.00     0.018 A 
ENDBRANCH   2   3
ENDBRANCH   1   2
BRANCH   1  13
ATOM     13  C   UNL d   1      -0.963   3.083   0.000  0.00  0.00     0.281 C 
ATOM     14  O   UNL d   1      -1.525   3.688   0.000  0.00  0.00    -0.265 OA
ATOM     15  N   UNL d   1      -0.163   3.271   0.000  0.00  0.00    -0.206 NA
BRANCH  15  16
ATOM     16  C   UNL d   1       0.079   4.054   0.000  0.00  0.00     0.102 C 
BRANCH  16  17
ATOM     17  C   UNL d   1       0.879   4.242   0.000  0.00  0.00     0.021 C 
BRANCH  17  18
ATOM     18  C   UNL d   1       1.125   5.029   0.000  0.00  0.00     0.002 A 
ATOM     19  C   UNL d   1       0.554   5.638   0.000  0.00  0.00     0.000 A 
ATOM     20  C   UNL d   1       0.804   6.429   0.000  0.00  0.00     0.000 A 
ATOM     21  C   UNL d   1       1.604   6.612   0.000  0.00  0.00     0.000 A 
ATOM     22  C   UNL d   1       2.167   6.004   0.000  0.00  0.00     0.000 A 
ATOM     23  C   UNL d   1       1.942   5.213   0.000  0.00  0.00     0.000 A 
ENDBRANCH  17  18
ENDBRANCH  16  17
ENDBRANCH  15  16
ENDBRANCH   1  13
TORSDOF 6
