REMARK  5 active torsions:
REMARK  status: ('A' for Active; 'I' for Inactive)
REMARK    1  A    between atoms: C_6  and  N_2 
REMARK    2  A    between atoms: C_7  and  C_6 
REMARK    3  A    between atoms: C_8  and  C_7 
REMARK       I    between atoms: N_10  and  C_8 
REMARK    4  A    between atoms: C_12  and  N_10 
REMARK    5  A    between atoms: C_13  and  C_12 
ROOT
ATOM      1  C   UNL d   1      -2.007   2.107   0.000  0.00  0.00     0.088 C 
ENDROOT
BRANCH   1   2
ATOM      2  N   UNL d   1      -2.249   1.320   0.000  0.00  0.00    -0.268 N 
ATOM      3  C   UNL d   1      -1.757   0.662   0.000  0.00  0.00     0.296 A 
ATOM      4  S   UNL d   1      -2.269  -0.025   0.000  0.00  0.00    -0.025 SA
ATOM      5  O   UNL d   1      -0.933   0.675   0.000  0.00  0.00    -0.259 OA
ATOM      6  C   UNL d   1      -3.019   0.233   0.000  0.00  0.00     0.050 A 
ATOM      7  C   UNL d   1      -3.731  -0.192   0.000  0.00  0.00     0.008 A 
ATOM      8  C   UNL d   1      -3.031   1.058   0.000  0.00  0.00     0.073 A 
ATOM      9  C   UNL d   1      -4.456   0.212   0.000  0.00  0.00     0.001 A 
ATOM     10  C   UNL d   1      -4.456   1.037   0.000  0.00  0.00     0.002 A 
ATOM     11  C   UNL d   1      -3.744   1.457   0.000  0.00  0.00     0.018 A 
ENDBRANCH   1   2
BRANCH   1  12
ATOM     12  C   UNL d   1      -1.208   2.294   0.000  0.00  0.00     0.082 C 
BRANCH  12  13
ATOM     13  C   UNL d   1      -0.962   3.081   0.000  0.00  0.00     0.281 C 
ATOM     14  N   UNL d   1      -0.162   3.269   0.000  0.00  0.00    -0.206 NA
ATOM     15  O   UNL d   1      -1.524   3.685   0.000  0.00  0.00    -0.265 OA
BRANCH  14  16
ATOM     16  C   UNL d   1       0.079   4.052   0.000  0.00  0.00     0.102 C 
BRANCH  16  17
ATOM     17  C   UNL d   1      -0.483   4.651   0.000  0.00  0.00     0.019 A 
ATOM     18  C   UNL d   1      -1.295   4.464   0.000  0.00  0.00     0.002 A 
ATOM     19  C   UNL d   1      -1.857   5.076   0.000  0.00  0.00     0.000 A 
ATOM     20  C   UNL d   1      -1.620   5.863   0.000  0.00  0.00     0.000 A 
ATOM     21  C   UNL d   1      -0.808   6.051   0.000  0.00  0.00     0.000 A 
ATOM     22  C   UNL d   1      -0.237   5.451   0.000  0.00  0.00     0.002 A 
ENDBRANCH  16  17
ENDBRANCH  14  16
ENDBRANCH  12  13
ENDBRANCH   1  12
TORSDOF 5
