REMARK  6 active torsions:
REMARK  status: ('A' for Active; 'I' for Inactive)
REMARK    1  A    between atoms: C_16  and  N_1 
REMARK    2  A    between atoms: C_11  and  C_2 
REMARK    3  A    between atoms: S_15  and  C_3 
REMARK    4  A    between atoms: C_8  and  C_11 
REMARK    5  A    between atoms: C_13  and  C_17 
REMARK       I    between atoms: N_14  and  C_13 
REMARK    6  A    between atoms: C_17  and  S_15 
ROOT
ATOM      1  N   UNL d   1      -0.690   0.852   0.000  0.00  0.00    -0.269 N 
ATOM      2  C   UNL d   1      -1.270   1.436   0.000  0.00  0.00     0.172 A 
ATOM      3  C   UNL d   1       0.032   1.224   0.000  0.00  0.00     0.201 A 
ATOM      4  N   UNL d   1      -0.893   2.163   0.000  0.00  0.00    -0.128 NA
ATOM      5  N   UNL d   1      -0.078   2.030   0.000  0.00  0.00    -0.121 NA
ENDROOT
BRANCH   2   6
ATOM      6  C   UNL d   1      -2.057   1.229   0.000  0.00  0.00     0.059 C 
BRANCH   6   7
ATOM      7  C   UNL d   1      -2.633   1.818   0.000  0.00  0.00     0.094 A 
ATOM      8  C   UNL d   1      -2.412   2.610   0.000  0.00  0.00     0.082 A 
ATOM      9  C   UNL d   1      -2.992   3.199   0.000  0.00  0.00     0.285 A 
ATOM     10  O   UNL d   1      -2.771   4.013   0.000  0.00  0.00    -0.265 OA
ATOM     11  N   UNL d   1      -3.797   2.978   0.000  0.00  0.00    -0.152 NA
ATOM     12  C   UNL d   1      -4.013   2.191   0.000  0.00  0.00     0.371 A 
ATOM     13  N   UNL d   1      -3.424   1.602   0.000  0.00  0.00    -0.191 NA
ATOM     14  O   UNL d   1      -4.814   1.984   0.000  0.00  0.00    -0.242 OA
ENDBRANCH   6   7
ENDBRANCH   2   6
BRANCH   1  15
ATOM     15  C   UNL d   1      -0.787   0.037   0.000  0.00  0.00     0.067 A 
ATOM     16  C   UNL d   1      -0.120  -0.456   0.000  0.00  0.00     0.018 A 
ATOM     17  C   UNL d   1      -0.216  -1.284   0.000  0.00  0.00     0.002 A 
ATOM     18  C   UNL d   1      -0.976  -1.606   0.000  0.00  0.00     0.000 A 
ATOM     19  C   UNL d   1      -1.639  -1.109   0.000  0.00  0.00     0.002 A 
ATOM     20  C   UNL d   1      -1.542  -0.290   0.000  0.00  0.00     0.018 A 
ENDBRANCH   1  15
BRANCH   3  21
ATOM     21  S   UNL d   1       0.778   0.829   0.000  0.00  0.00    -0.043 SA
BRANCH  21  22
ATOM     22  C   UNL d   1       1.482   1.280   0.000  0.00  0.00     0.099 C 
BRANCH  22  23
ATOM     23  C   UNL d   1       2.214   0.893   0.000  0.00  0.00     0.271 C 
ATOM     24  N   UNL d   1       2.913   1.339   0.000  0.00  0.00    -0.272 N 
ATOM     25  C   UNL d   1       3.042   2.163   0.000  0.00  0.00     0.083 A 
ATOM     26  C   UNL d   1       3.650   0.962   0.000  0.00  0.00     0.083 A 
ATOM     27  C   UNL d   1       3.857   2.288   0.000  0.00  0.00     0.021 A 
ATOM     28  C   UNL d   1       4.230   1.546   0.000  0.00  0.00     0.021 A 
ATOM     29  O   UNL d   1       2.255   0.064   0.000  0.00  0.00    -0.266 OA
ENDBRANCH  22  23
ENDBRANCH  21  22
ENDBRANCH   3  21
TORSDOF 6
