REMARK  3 active torsions:
REMARK  status: ('A' for Active; 'I' for Inactive)
REMARK    1  A    between atoms: C_10  and  N_2 
REMARK       I    between atoms: N_3  and  C_6 
REMARK    2  A    between atoms: C_6  and  C_11 
REMARK    3  A    between atoms: C_11  and  C_10 
ROOT
ATOM      1  N   UNL d   1      -0.163   3.270   0.000  0.00  0.00    -0.275 N 
ATOM      2  C   UNL d   1       0.462   2.733   0.000  0.00  0.00     0.067 A 
ATOM      3  C   UNL d   1      -0.962   3.083   0.000  0.00  0.00     0.266 C 
ATOM      4  C   UNL d   1       0.167   4.029   0.000  0.00  0.00     0.067 A 
ATOM      5  C   UNL d   1       0.979   3.958   0.000  0.00  0.00     0.018 A 
ATOM      6  C   UNL d   1       1.167   3.150   0.000  0.00  0.00     0.019 A 
ATOM      7  O   UNL d   1      -1.525   3.687   0.000  0.00  0.00    -0.267 OA
ATOM      8  C   UNL d   1       0.388   1.900   0.000  0.00  0.00     0.019 C 
ATOM      9  C   UNL d   1      -0.183   4.779   0.000  0.00  0.00     0.018 A 
ATOM     10  C   UNL d   1       1.462   4.616   0.000  0.00  0.00     0.002 A 
ATOM     11  C   UNL d   1       0.287   5.449   0.000  0.00  0.00     0.002 A 
ATOM     12  C   UNL d   1       1.117   5.379   0.000  0.00  0.00     0.000 A 
ENDROOT
BRANCH   3  13
ATOM     13  C   UNL d   1      -1.208   2.296   0.000  0.00  0.00     0.080 C 
BRANCH  13  14
ATOM     14  C   UNL d   1      -2.008   2.108   0.000  0.00  0.00     0.088 C 
BRANCH  14  15
ATOM     15  N   UNL d   1      -2.250   1.321   0.000  0.00  0.00    -0.268 N 
ATOM     16  C   UNL d   1      -1.758   0.662   0.000  0.00  0.00     0.296 A 
ATOM     17  S   UNL d   1      -2.271  -0.025   0.000  0.00  0.00    -0.025 SA
ATOM     18  O   UNL d   1      -0.933   0.675   0.000  0.00  0.00    -0.259 OA
ATOM     19  C   UNL d   1      -3.021   0.233   0.000  0.00  0.00     0.050 A 
ATOM     20  C   UNL d   1      -3.733  -0.192   0.000  0.00  0.00     0.008 A 
ATOM     21  C   UNL d   1      -3.033   1.058   0.000  0.00  0.00     0.073 A 
ATOM     22  C   UNL d   1      -4.458   0.212   0.000  0.00  0.00     0.001 A 
ATOM     23  C   UNL d   1      -4.458   1.037   0.000  0.00  0.00     0.002 A 
ATOM     24  C   UNL d   1      -3.745   1.458   0.000  0.00  0.00     0.018 A 
ENDBRANCH  14  15
ENDBRANCH  13  14
ENDBRANCH   3  13
TORSDOF 3
