REMARK  5 active torsions:
REMARK  status: ('A' for Active; 'I' for Inactive)
REMARK    1  A    between atoms: C_11  and  N_1 
REMARK    2  A    between atoms: S_14  and  C_2 
REMARK    3  A    between atoms: C_12  and  C_3 
REMARK    4  A    between atoms: C_8  and  C_12 
REMARK    5  A    between atoms: C_20  and  S_14 
ROOT
ATOM      1  N   UNL d   1      -0.689   0.850   0.000  0.00  0.00    -0.269 N 
ATOM      2  C   UNL d   1       0.032   1.222   0.000  0.00  0.00     0.201 A 
ATOM      3  C   UNL d   1      -1.268   1.433   0.000  0.00  0.00     0.172 A 
ATOM      4  N   UNL d   1      -0.078   2.026   0.000  0.00  0.00    -0.121 NA
ATOM      5  N   UNL d   1      -0.891   2.159   0.000  0.00  0.00    -0.128 NA
ENDROOT
BRANCH   3   6
ATOM      6  C   UNL d   1      -2.053   1.226   0.000  0.00  0.00     0.059 C 
BRANCH   6   7
ATOM      7  C   UNL d   1      -2.627   1.814   0.000  0.00  0.00     0.094 A 
ATOM      8  C   UNL d   1      -2.407   2.604   0.000  0.00  0.00     0.082 A 
ATOM      9  C   UNL d   1      -2.986   3.192   0.000  0.00  0.00     0.285 A 
ATOM     10  O   UNL d   1      -2.765   4.005   0.000  0.00  0.00    -0.265 OA
ATOM     11  N   UNL d   1      -3.790   2.972   0.000  0.00  0.00    -0.152 NA
ATOM     12  C   UNL d   1      -4.005   2.186   0.000  0.00  0.00     0.371 A 
ATOM     13  N   UNL d   1      -3.417   1.599   0.000  0.00  0.00    -0.191 NA
ATOM     14  O   UNL d   1      -4.805   1.980   0.000  0.00  0.00    -0.242 OA
ENDBRANCH   6   7
ENDBRANCH   3   6
BRANCH   1  15
ATOM     15  C   UNL d   1      -0.785   0.037   0.000  0.00  0.00     0.067 A 
ATOM     16  C   UNL d   1      -0.119  -0.455   0.000  0.00  0.00     0.018 A 
ATOM     17  C   UNL d   1      -0.216  -1.282   0.000  0.00  0.00     0.001 A 
ATOM     18  C   UNL d   1       0.459  -1.782   0.000  0.00  0.00     0.000 C 
ATOM     19  C   UNL d   1      -0.974  -1.603   0.000  0.00  0.00     0.000 A 
ATOM     20  C   UNL d   1      -1.635  -1.107   0.000  0.00  0.00     0.002 A 
ATOM     21  C   UNL d   1      -1.539  -0.289   0.000  0.00  0.00     0.018 A 
ENDBRANCH   1  15
BRANCH   2  22
ATOM     22  S   UNL d   1       0.776   0.827   0.000  0.00  0.00    -0.048 SA
BRANCH  22  23
ATOM     23  C   UNL d   1       1.479   1.277   0.000  0.00  0.00     0.032 C 
ATOM     24  C   UNL d   1       1.438   2.104   0.000  0.00  0.00     0.007 C 
ATOM     25  C   UNL d   1       2.209   0.891   0.000  0.00  0.00     0.007 C 
ENDBRANCH  22  23
ENDBRANCH   2  22
TORSDOF 5
