REMARK  6 active torsions:
REMARK  status: ('A' for Active; 'I' for Inactive)
REMARK    1  A    between atoms: C_16  and  N_1 
REMARK    2  A    between atoms: C_11  and  C_2 
REMARK    3  A    between atoms: S_15  and  C_3 
REMARK    4  A    between atoms: C_8  and  C_11 
REMARK    5  A    between atoms: C_13  and  C_17 
REMARK       I    between atoms: N_14  and  C_13 
REMARK    6  A    between atoms: C_17  and  S_15 
ROOT
ATOM      1  N   UNL d   1      -0.579   1.029   0.000  0.00  0.00    -0.269 N 
ATOM      2  C   UNL d   1      -1.213   1.567   0.000  0.00  0.00     0.172 A 
ATOM      3  C   UNL d   1       0.115   1.470   0.000  0.00  0.00     0.201 A 
ATOM      4  N   UNL d   1      -0.905   2.325   0.000  0.00  0.00    -0.128 NA
ATOM      5  N   UNL d   1      -0.078   2.261   0.000  0.00  0.00    -0.121 NA
ENDROOT
BRANCH   3   6
ATOM      6  S   UNL d   1       0.896   1.167   0.000  0.00  0.00    -0.043 SA
BRANCH   6   7
ATOM      7  C   UNL d   1       1.544   1.691   0.000  0.00  0.00     0.099 C 
BRANCH   7   8
ATOM      8  C   UNL d   1       2.307   1.388   0.000  0.00  0.00     0.271 C 
ATOM      9  N   UNL d   1       2.955   1.898   0.000  0.00  0.00    -0.272 N 
ATOM     10  C   UNL d   1       3.727   1.595   0.000  0.00  0.00     0.083 A 
ATOM     11  C   UNL d   1       2.840   2.716   0.000  0.00  0.00     0.083 A 
ATOM     12  C   UNL d   1       4.375   2.105   0.000  0.00  0.00     0.019 A 
ATOM     13  C   UNL d   1       4.251   2.923   0.000  0.00  0.00     0.003 A 
ATOM     14  C   UNL d   1       3.488   3.226   0.000  0.00  0.00     0.019 A 
ATOM     15  O   UNL d   1       2.431   0.565   0.000  0.00  0.00    -0.266 OA
ENDBRANCH   7   8
ENDBRANCH   6   7
ENDBRANCH   3   6
BRANCH   1  16
ATOM     16  C   UNL d   1      -0.602   0.207   0.000  0.00  0.00     0.067 A 
ATOM     17  C   UNL d   1       0.115  -0.221   0.000  0.00  0.00     0.018 A 
ATOM     18  C   UNL d   1       0.101  -1.052   0.000  0.00  0.00     0.002 A 
ATOM     19  C   UNL d   1      -0.629  -1.438   0.000  0.00  0.00     0.000 A 
ATOM     20  C   UNL d   1      -1.333  -1.025   0.000  0.00  0.00     0.002 A 
ATOM     21  C   UNL d   1      -1.319  -0.193   0.000  0.00  0.00     0.018 A 
ENDBRANCH   1  16
BRANCH   2  22
ATOM     22  C   UNL d   1      -1.994   1.278   0.000  0.00  0.00     0.059 C 
BRANCH  22  23
ATOM     23  C   UNL d   1      -2.629   1.815   0.000  0.00  0.00     0.094 A 
ATOM     24  C   UNL d   1      -2.491   2.629   0.000  0.00  0.00     0.082 A 
ATOM     25  C   UNL d   1      -3.125   3.152   0.000  0.00  0.00     0.285 A 
ATOM     26  O   UNL d   1      -2.987   3.966   0.000  0.00  0.00    -0.265 OA
ATOM     27  N   UNL d   1      -3.897   2.863   0.000  0.00  0.00    -0.152 NA
ATOM     28  C   UNL d   1      -4.039   2.063   0.000  0.00  0.00     0.371 A 
ATOM     29  N   UNL d   1      -3.401   1.526   0.000  0.00  0.00    -0.191 NA
ATOM     30  O   UNL d   1      -4.834   1.792   0.000  0.00  0.00    -0.242 OA
ENDBRANCH  22  23
ENDBRANCH   2  22
TORSDOF 6
