REMARK  5 active torsions:
REMARK  status: ('A' for Active; 'I' for Inactive)
REMARK    1  A    between atoms: C_5  and  N_1 
REMARK    2  A    between atoms: C_12  and  C_2 
REMARK    3  A    between atoms: S_18  and  C_3 
REMARK    4  A    between atoms: C_9  and  C_12 
REMARK    5  A    between atoms: C_23  and  S_18 
ROOT
ATOM      1  N   UNL d   1      -0.689   0.850   0.000  0.00  0.00    -0.269 N 
ATOM      2  C   UNL d   1      -1.268   1.433   0.000  0.00  0.00     0.172 A 
ATOM      3  C   UNL d   1       0.032   1.222   0.000  0.00  0.00     0.201 A 
ATOM      4  N   UNL d   1      -0.891   2.159   0.000  0.00  0.00    -0.128 NA
ATOM      5  N   UNL d   1      -0.078   2.026   0.000  0.00  0.00    -0.121 NA
ENDROOT
BRANCH   2   6
ATOM      6  C   UNL d   1      -2.053   1.226   0.000  0.00  0.00     0.059 C 
BRANCH   6   7
ATOM      7  C   UNL d   1      -2.627   1.814   0.000  0.00  0.00     0.094 A 
ATOM      8  C   UNL d   1      -2.407   2.604   0.000  0.00  0.00     0.082 A 
ATOM      9  C   UNL d   1      -2.986   3.192   0.000  0.00  0.00     0.285 A 
ATOM     10  O   UNL d   1      -2.765   4.005   0.000  0.00  0.00    -0.265 OA
ATOM     11  N   UNL d   1      -3.790   2.972   0.000  0.00  0.00    -0.152 NA
ATOM     12  C   UNL d   1      -4.005   2.186   0.000  0.00  0.00     0.371 A 
ATOM     13  N   UNL d   1      -3.417   1.599   0.000  0.00  0.00    -0.191 NA
ATOM     14  O   UNL d   1      -4.805   1.980   0.000  0.00  0.00    -0.242 OA
ENDBRANCH   6   7
ENDBRANCH   2   6
BRANCH   1  15
ATOM     15  C   UNL d   1      -0.785   0.037   0.000  0.00  0.00     0.067 A 
ATOM     16  C   UNL d   1      -0.124  -0.455   0.000  0.00  0.00     0.016 A 
ATOM     17  C   UNL d   1      -0.221  -1.272   0.000  0.00  0.00     0.001 A 
ATOM     18  C   UNL d   1       0.638  -0.124   0.000  0.00  0.00     0.002 C 
ATOM     19  C   UNL d   1      -0.978  -1.603   0.000  0.00  0.00     0.000 A 
ATOM     20  C   UNL d   1      -1.649  -1.107   0.000  0.00  0.00     0.001 A 
ATOM     21  C   UNL d   1      -1.543  -0.289   0.000  0.00  0.00     0.018 A 
ATOM     22  C   UNL d   1      -2.412  -1.424   0.000  0.00  0.00     0.000 C 
ENDBRANCH   1  15
BRANCH   3  23
ATOM     23  S   UNL d   1       0.776   0.827   0.000  0.00  0.00    -0.048 SA
BRANCH  23  24
ATOM     24  C   UNL d   1       1.479   1.277   0.000  0.00  0.00     0.038 C 
ATOM     25  C   UNL d   1       2.209   0.891   0.000  0.00  0.00     0.008 C 
ENDBRANCH  23  24
ENDBRANCH   3  23
TORSDOF 5
