REMARK  6 active torsions:
REMARK  status: ('A' for Active; 'I' for Inactive)
REMARK    1  A    between atoms: C_3  and  N_1 
REMARK       I    between atoms: C_4  and  N_1 
REMARK    2  A    between atoms: C_6  and  N_1 
REMARK    3  A    between atoms: N_2  and  C_3 
REMARK    4  A    between atoms: C_7  and  C_4 
REMARK    5  A    between atoms: O_22  and  C_15 
REMARK    6  A    between atoms: C_24  and  O_22 
ROOT
ATOM      1  N   UNL d   1      -3.181   2.639   0.000  0.00  0.00    -0.258 N 
ATOM      2  C   UNL d   1      -3.898   3.055   0.000  0.00  0.00     0.266 C 
ATOM      3  O   UNL d   1      -3.924   3.827   0.000  0.00  0.00    -0.267 OA
ENDROOT
BRANCH   1   4
ATOM      4  C   UNL d   1      -3.172   1.813   0.000  0.00  0.00     0.171 C 
BRANCH   4   5
ATOM      5  N   UNL d   1      -2.539   1.284   0.000  0.00  0.00    -0.257 N 
ATOM      6  C   UNL d   1      -2.576   0.462   0.000  0.00  0.00     0.266 A 
ATOM      7  O   UNL d   1      -3.273   0.008   0.000  0.00  0.00    -0.267 OA
ATOM      8  C   UNL d   1      -1.800   0.159   0.000  0.00  0.00     0.063 A 
ATOM      9  C   UNL d   1      -1.280   0.801   0.000  0.00  0.00     0.024 A 
ATOM     10  C   UNL d   1      -1.725   1.498   0.000  0.00  0.00     0.085 A 
ENDBRANCH   4   5
ENDBRANCH   1   4
BRANCH   1  11
ATOM     11  C   UNL d   1      -2.463   3.055   0.000  0.00  0.00     0.068 A 
ATOM     12  C   UNL d   1      -2.463   3.886   0.000  0.00  0.00     0.018 A 
ATOM     13  C   UNL d   1      -1.746   4.280   0.000  0.00  0.00     0.002 A 
ATOM     14  C   UNL d   1      -1.041   3.873   0.000  0.00  0.00     0.000 A 
ATOM     15  C   UNL d   1      -1.041   3.055   0.000  0.00  0.00     0.002 A 
ATOM     16  C   UNL d   1      -0.323   4.280   0.000  0.00  0.00     0.000 C 
ATOM     17  C   UNL d   1      -1.746   2.639   0.000  0.00  0.00     0.018 A 
ENDBRANCH   1  11
BRANCH   2  18
ATOM     18  C   UNL d   1      -4.603   2.631   0.000  0.00  0.00     0.057 A 
ATOM     19  C   UNL d   1      -4.582   1.809   0.000  0.00  0.00     0.007 A 
ATOM     20  C   UNL d   1      -5.283   1.381   0.000  0.00  0.00     0.025 A 
ATOM     21  C   UNL d   1      -6.013   1.783   0.000  0.00  0.00     0.100 A 
ATOM     22  C   UNL d   1      -6.030   2.602   0.000  0.00  0.00     0.025 A 
ATOM     23  C   UNL d   1      -5.325   3.042   0.000  0.00  0.00     0.007 A 
BRANCH  21  24
ATOM     24  O   UNL d   1      -6.697   1.343   0.000  0.00  0.00    -0.305 OA
BRANCH  24  25
ATOM     25  C   UNL d   1      -6.676   0.516   0.000  0.00  0.00     0.123 C 
ATOM     26  C   UNL d   1      -7.377   0.088   0.000  0.00  0.00     0.029 C 
ENDBRANCH  24  25
ENDBRANCH  21  24
ENDBRANCH   2  18
TORSDOF 6
