REMARK  5 active torsions:
REMARK  status: ('A' for Active; 'I' for Inactive)
REMARK    1  A    between atoms: C_7  and  N_2 
REMARK    2  A    between atoms: C_6  and  C_8 
REMARK       I    between atoms: N_9  and  C_6 
REMARK    3  A    between atoms: C_8  and  C_7 
REMARK    4  A    between atoms: C_11  and  N_9 
REMARK    5  A    between atoms: C_13  and  C_11 
ROOT
ATOM      1  C   UNL d   1      -1.208   2.296   0.000  0.00  0.00     0.080 C 
ENDROOT
BRANCH   1   2
ATOM      2  C   UNL d   1      -0.963   3.083   0.000  0.00  0.00     0.266 C 
ATOM      3  N   UNL d   1      -0.163   3.271   0.000  0.00  0.00    -0.270 N 
ATOM      4  C   UNL d   1       0.404   2.663   0.000  0.00  0.00     0.102 C 
ATOM      5  O   UNL d   1      -1.525   3.688   0.000  0.00  0.00    -0.267 OA
BRANCH   3   6
ATOM      6  C   UNL d   1       0.079   4.054   0.000  0.00  0.00     0.083 C 
BRANCH   6   7
ATOM      7  C   UNL d   1       0.879   4.242   0.000  0.00  0.00     0.018 A 
ATOM      8  C   UNL d   1       1.454   3.646   0.000  0.00  0.00     0.002 A 
ATOM      9  C   UNL d   1       2.254   3.833   0.000  0.00  0.00     0.000 A 
ATOM     10  C   UNL d   1       2.492   4.617   0.000  0.00  0.00     0.000 A 
ATOM     11  C   UNL d   1       1.925   5.217   0.000  0.00  0.00     0.000 A 
ATOM     12  C   UNL d   1       1.113   5.025   0.000  0.00  0.00     0.002 A 
ENDBRANCH   6   7
ENDBRANCH   3   6
ENDBRANCH   1   2
BRANCH   1  13
ATOM     13  C   UNL d   1      -2.008   2.108   0.000  0.00  0.00     0.090 C 
BRANCH  13  14
ATOM     14  N   UNL d   1      -2.250   1.321   0.000  0.00  0.00    -0.251 N 
ATOM     15  C   UNL d   1      -1.758   0.662   0.000  0.00  0.00     0.378 A 
ATOM     16  O   UNL d   1      -2.288   0.033   0.000  0.00  0.00    -0.258 OA
ATOM     17  O   UNL d   1      -0.933   0.675   0.000  0.00  0.00    -0.237 OA
ATOM     18  C   UNL d   1      -3.021   0.233   0.000  0.00  0.00     0.121 A 
ATOM     19  C   UNL d   1      -3.733  -0.192   0.000  0.00  0.00     0.026 A 
ATOM     20  C   UNL d   1      -3.033   1.058   0.000  0.00  0.00     0.092 A 
ATOM     21  C   UNL d   1      -4.458   0.212   0.000  0.00  0.00     0.002 A 
ATOM     22  C   UNL d   1      -4.458   1.038   0.000  0.00  0.00     0.002 A 
ATOM     23  C   UNL d   1      -3.746   1.458   0.000  0.00  0.00     0.020 A 
ENDBRANCH  13  14
ENDBRANCH   1  13
TORSDOF 5
