REMARK  4 active torsions:
REMARK  status: ('A' for Active; 'I' for Inactive)
REMARK    1  A    between atoms: C_2  and  N_1 
REMARK    2  A    between atoms: C_9  and  C_10 
REMARK       I    between atoms: N_11  and  C_9 
REMARK    3  A    between atoms: C_21  and  N_11 
REMARK    4  A    between atoms: C_20  and  C_21 
ROOT
ATOM      1  C   UNL d   1       7.351  -6.852   0.000  0.00  0.00     0.279 C 
ATOM      2  N   UNL d   1       6.640  -7.264   0.000  0.00  0.00    -0.206 NA
ATOM      3  O   UNL d   1       7.351  -6.029   0.000  0.00  0.00    -0.265 OA
ENDROOT
BRANCH   1   4
ATOM      4  C   UNL d   1       8.070  -7.264   0.000  0.00  0.00     0.059 A 
ATOM      5  C   UNL d   1       8.062  -8.095   0.000  0.00  0.00     0.028 A 
ATOM      6  C   UNL d   1       8.785  -8.494   0.000  0.00  0.00     0.127 A 
ATOM      7  C   UNL d   1       9.505  -8.074   0.000  0.00  0.00     0.022 A 
ATOM      8  C   UNL d   1       9.496  -7.251   0.000  0.00  0.00     0.002 A 
ATOM      9  C   UNL d   1      10.220  -8.473   0.000  0.00  0.00     0.002 C 
ATOM     10  C   UNL d   1       8.781  -6.840   0.000  0.00  0.00     0.005 A 
BRANCH   6  11
ATOM     11  N   UNL d   1       8.794  -9.322   0.000  0.00  0.00    -0.114 N 
ATOM     12  O   UNL d   1       8.087  -9.746   0.000  0.00  0.00    -0.532 OA
ATOM     13  O   UNL d   1       9.509  -9.733   0.000  0.00  0.00    -0.532 OA
ENDBRANCH   6  11
ENDBRANCH   1   4
BRANCH   2  14
ATOM     14  C   UNL d   1       5.929  -6.860   0.000  0.00  0.00     0.102 C 
BRANCH  14  15
ATOM     15  C   UNL d   1       5.218  -7.276   0.000  0.00  0.00     0.019 A 
ATOM     16  C   UNL d   1       4.503  -6.864   0.000  0.00  0.00     0.003 A 
ATOM     17  C   UNL d   1       3.784  -7.276   0.000  0.00  0.00     0.019 A 
ATOM     18  C   UNL d   1       3.006  -7.027   0.000  0.00  0.00     0.021 A 
ATOM     19  C   UNL d   1       3.792  -8.099   0.000  0.00  0.00     0.081 A 
ATOM     20  C   UNL d   1       2.524  -7.696   0.000  0.00  0.00     0.082 A 
ATOM     21  C   UNL d   1       1.700  -7.700   0.000  0.00  0.00     0.021 C 
ATOM     22  N   UNL d   1       3.010  -8.361   0.000  0.00  0.00    -0.246 NA
ATOM     23  C   UNL d   1       4.503  -8.511   0.000  0.00  0.00     0.019 A 
ATOM     24  C   UNL d   1       5.218  -8.099   0.000  0.00  0.00     0.003 A 
ENDBRANCH  14  15
ENDBRANCH   2  14
TORSDOF 4
