REMARK  8 active torsions:
REMARK  status: ('A' for Active; 'I' for Inactive)
REMARK    1  A    between atoms: N_5  and  C_1 
REMARK    2  A    between atoms: N_7  and  C_1 
REMARK    3  A    between atoms: N_2  and  C_3 
REMARK    4  A    between atoms: C_3  and  C_4 
REMARK    5  A    between atoms: C_6  and  C_3 
REMARK    6  A    between atoms: C_4  and  N_5 
REMARK    7  A    between atoms: C_8  and  N_7 
REMARK    8  A    between atoms: C_25  and  N_10 
ROOT
ATOM      1  C   UNL d   1      -2.459   2.155   0.000  0.00  0.00     0.088 C 
ENDROOT
BRANCH   1   2
ATOM      2  N   UNL d   1      -2.292   1.344   0.000  0.00  0.00    -0.300 N 
ATOM      3  C   UNL d   1      -1.510   1.086   0.000  0.00  0.00     0.100 A 
ATOM      4  C   UNL d   1      -1.344   0.283   0.000  0.00  0.00     0.100 A 
ATOM      5  N   UNL d   1      -1.955  -0.275   0.000  0.00  0.00    -0.300 N 
ATOM      6  C   UNL d   1      -2.742  -0.013   0.000  0.00  0.00     0.100 A 
ATOM      7  C   UNL d   1      -2.917   0.795   0.000  0.00  0.00     0.100 A 
BRANCH   5   8
ATOM      8  C   UNL d   1      -1.785  -1.078   0.000  0.00  0.00     0.080 C 
ATOM      9  C   UNL d   1      -2.405  -1.627   0.000  0.00  0.00     0.021 C 
ENDBRANCH   5   8
ENDBRANCH   1   2
BRANCH   1  10
ATOM     10  C   UNL d   1      -1.847   2.704   0.000  0.00  0.00     0.100 C 
ATOM     11  C   UNL d   1      -2.018   3.503   0.000  0.00  0.00     0.022 C 
BRANCH  10  12
ATOM     12  N   UNL d   1      -1.069   2.442   0.000  0.00  0.00    -0.216 NA
BRANCH  12  13
ATOM     13  C   UNL d   1      -0.449   2.991   0.000  0.00  0.00     0.221 C 
ATOM     14  S   UNL d   1      -0.620   3.794   0.000  0.00  0.00    -0.037 SA
BRANCH  13  15
ATOM     15  N   UNL d   1       0.329   2.729   0.000  0.00  0.00    -0.217 NA
BRANCH  15  16
ATOM     16  C   UNL d   1       0.499   1.922   0.000  0.00  0.00     0.084 A 
ATOM     17  C   UNL d   1       1.277   1.668   0.000  0.00  0.00     0.018 A 
ATOM     18  C   UNL d   1       1.452   0.870   0.000  0.00  0.00     0.002 A 
ATOM     19  C   UNL d   1       1.889   2.230   0.000  0.00  0.00     0.002 C 
ATOM     20  C   UNL d   1       0.836   0.312   0.000  0.00  0.00     0.000 A 
ATOM     21  C   UNL d   1       0.042   0.570   0.000  0.00  0.00     0.002 A 
ATOM     22  C   UNL d   1      -0.121   1.373   0.000  0.00  0.00     0.019 A 
ATOM     23  C   UNL d   1      -0.570   0.021   0.000  0.00  0.00     0.000 C 
ENDBRANCH  15  16
ENDBRANCH  13  15
ENDBRANCH  12  13
ENDBRANCH  10  12
ENDBRANCH   1  10
BRANCH   1  24
ATOM     24  C   UNL d   1      -3.241   2.409   0.000  0.00  0.00     0.047 A 
ATOM     25  S   UNL d   1      -3.915   1.930   0.000  0.00  0.00    -0.085 SA
ATOM     26  C   UNL d   1      -4.577   2.417   0.000  0.00  0.00     0.035 A 
ATOM     27  C   UNL d   1      -4.327   3.204   0.000  0.00  0.00     0.007 A 
ATOM     28  C   UNL d   1      -3.495   3.204   0.000  0.00  0.00     0.009 A 
ENDBRANCH   1  24
TORSDOF 8
