REMARK  5 active torsions:
REMARK  status: ('A' for Active; 'I' for Inactive)
REMARK       I    between atoms: C_8  and  N_1 
REMARK    1  A    between atoms: C_7  and  C_3 
REMARK    2  A    between atoms: S_4  and  N_9 
REMARK    3  A    between atoms: C_21  and  S_4 
REMARK    4  A    between atoms: C_11  and  C_5 
REMARK    5  A    between atoms: N_9  and  C_20 
ROOT
ATOM      1  N   UNL d   1       6.437  -9.983   0.000  0.00  0.00    -0.194 N 
ATOM      2  N   UNL d   1       5.680  -9.612   0.000  0.00  0.00    -0.163 NA
ATOM      3  C   UNL d   1       7.003  -9.411   0.000  0.00  0.00     0.093 A 
ATOM      4  C   UNL d   1       5.804  -8.801   0.000  0.00  0.00     0.103 A 
ATOM      5  C   UNL d   1       6.626  -8.660   0.000  0.00  0.00     0.041 A 
ATOM      6  C   UNL d   1       6.573 -10.791   0.000  0.00  0.00     0.281 C 
ATOM      7  O   UNL d   1       7.342 -11.079   0.000  0.00  0.00    -0.265 OA
ATOM      8  C   UNL d   1       5.936 -11.318   0.000  0.00  0.00     0.068 C 
ENDROOT
BRANCH   4   9
ATOM      9  C   UNL d   1       5.244  -8.200   0.000  0.00  0.00     0.019 A 
ATOM     10  C   UNL d   1       5.494  -7.410   0.000  0.00  0.00     0.003 A 
ATOM     11  C   UNL d   1       4.937  -6.812   0.000  0.00  0.00     0.020 A 
ATOM     12  C   UNL d   1       4.132  -6.989   0.000  0.00  0.00     0.094 A 
ATOM     13  C   UNL d   1       3.885  -7.775   0.000  0.00  0.00     0.020 A 
ATOM     14  C   UNL d   1       4.442  -8.386   0.000  0.00  0.00     0.003 A 
BRANCH  12  15
ATOM     15  N   UNL d   1       3.558  -6.387   0.000  0.00  0.00    -0.158 NA
BRANCH  15  16
ATOM     16  S   UNL d   1       3.793  -5.606   0.000  0.00  0.00     0.286 S 
ATOM     17  O   UNL d   1       4.017  -4.795   0.000  0.00  0.00    -0.198 OA
ATOM     18  O   UNL d   1       4.589  -5.839   0.000  0.00  0.00    -0.198 OA
BRANCH  16  19
ATOM     19  C   UNL d   1       2.992  -5.367   0.000  0.00  0.00     0.117 C 
ATOM     20  C   UNL d   1       2.794  -4.572   0.000  0.00  0.00     0.014 C 
ENDBRANCH  16  19
ENDBRANCH  15  16
ENDBRANCH  12  15
ENDBRANCH   4   9
BRANCH   3  21
ATOM     21  C   UNL d   1       7.811  -9.541   0.000  0.00  0.00     0.047 A 
ATOM     22  S   UNL d   1       8.188 -10.278   0.000  0.00  0.00    -0.085 SA
ATOM     23  C   UNL d   1       9.002 -10.151   0.000  0.00  0.00     0.035 A 
ATOM     24  C   UNL d   1       9.134  -9.338   0.000  0.00  0.00     0.007 A 
ATOM     25  C   UNL d   1       8.400  -8.960   0.000  0.00  0.00     0.009 A 
ENDBRANCH   3  21
TORSDOF 5
