REMARK  4 active torsions:
REMARK  status: ('A' for Active; 'I' for Inactive)
REMARK    1  A    between atoms: N_7  and  S_1 
REMARK    2  A    between atoms: C_11  and  S_1 
REMARK    3  A    between atoms: C_14  and  N_7 
REMARK    4  A    between atoms: C_13  and  C_14 
ROOT
ATOM      1  N   UNL d   1       0.917  -2.513   0.000  0.00  0.00    -0.304 N 
ATOM      2  C   UNL d   1       0.429  -1.842   0.000  0.00  0.00     0.064 A 
ATOM      3  C   UNL d   1       1.704  -2.254   0.000  0.00  0.00     0.064 A 
ATOM      4  C   UNL d   1       1.700  -1.429   0.000  0.00  0.00     0.018 A 
ATOM      5  C   UNL d   1       0.917  -1.179   0.000  0.00  0.00     0.019 A 
ATOM      6  C   UNL d   1       2.417  -2.667   0.000  0.00  0.00     0.018 A 
ATOM      7  C   UNL d   1       2.417  -1.012   0.000  0.00  0.00     0.003 A 
ATOM      8  C   UNL d   1       3.129  -1.425   0.000  0.00  0.00     0.020 A 
ATOM      9  C   UNL d   1       3.129  -2.254   0.000  0.00  0.00     0.003 A 
ATOM     10  C   UNL d   1       0.667  -3.292   0.000  0.00  0.00     0.099 C 
ATOM     11  C   UNL d   1      -0.396  -1.850   0.000  0.00  0.00     0.019 C 
ENDROOT
BRANCH   8  12
ATOM     12  C   UNL d   1       3.842  -1.004   0.000  0.00  0.00     0.112 C 
BRANCH  12  13
ATOM     13  N   UNL d   1       4.562  -1.417   0.000  0.00  0.00    -0.157 NA
BRANCH  13  14
ATOM     14  S   UNL d   1       5.275  -1.004   0.000  0.00  0.00     0.285 S 
ATOM     15  O   UNL d   1       5.854  -0.417   0.000  0.00  0.00    -0.198 OA
ATOM     16  O   UNL d   1       4.688  -0.417   0.000  0.00  0.00    -0.198 OA
BRANCH  14  17
ATOM     17  C   UNL d   1       5.992  -1.413   0.000  0.00  0.00     0.105 A 
ATOM     18  C   UNL d   1       6.692  -0.992   0.000  0.00  0.00     0.013 A 
ATOM     19  C   UNL d   1       7.412  -1.400   0.000  0.00  0.00     0.001 A 
ATOM     20  C   UNL d   1       7.417  -2.229   0.000  0.00  0.00     0.000 A 
ATOM     21  C   UNL d   1       6.704  -2.642   0.000  0.00  0.00     0.001 A 
ATOM     22  C   UNL d   1       5.992  -2.237   0.000  0.00  0.00     0.013 A 
ENDBRANCH  14  17
ENDBRANCH  13  14
ENDBRANCH  12  13
ENDBRANCH   8  12
TORSDOF 4
