REMARK  4 active torsions:
REMARK  status: ('A' for Active; 'I' for Inactive)
REMARK    1  A    between atoms: S_11  and  C_7 
REMARK    2  A    between atoms: C_17  and  C_10 
REMARK    3  A    between atoms: C_16  and  S_11 
REMARK    4  A    between atoms: C_20  and  C_17 
ROOT
ATOM      1  N   UNL d   1      -3.850   2.148   0.000  0.00  0.00    -0.224 N 
ATOM      2  N   UNL d   1      -3.137   0.901   0.000  0.00  0.00    -0.241 N 
ATOM      3  C   UNL d   1      -3.850   1.314   0.000  0.00  0.00     0.343 A 
ATOM      4  C   UNL d   1      -2.424   1.322   0.000  0.00  0.00     0.160 A 
ATOM      5  C   UNL d   1      -3.137   2.561   0.000  0.00  0.00     0.273 A 
ATOM      6  C   UNL d   1      -2.424   2.148   0.000  0.00  0.00     0.115 A 
ATOM      7  C   UNL d   1      -1.710   2.561   0.000  0.00  0.00     0.120 A 
ATOM      8  N   UNL d   1      -1.702   0.909   0.000  0.00  0.00    -0.209 NA
ATOM      9  N   UNL d   1      -0.997   2.152   0.000  0.00  0.00    -0.220 NA
ATOM     10  C   UNL d   1      -0.989   1.322   0.000  0.00  0.00     0.165 A 
ATOM     11  O   UNL d   1      -4.568   0.901   0.000  0.00  0.00    -0.245 OA
ATOM     12  O   UNL d   1      -3.141   3.387   0.000  0.00  0.00    -0.266 OA
ATOM     13  C   UNL d   1      -4.564   2.553   0.000  0.00  0.00     0.107 C 
ATOM     14  C   UNL d   1      -3.137   0.075   0.000  0.00  0.00     0.105 C 
ENDROOT
BRANCH   7  15
ATOM     15  S   UNL d   1      -1.714   3.387   0.000  0.00  0.00    -0.068 SA
BRANCH  15  16
ATOM     16  C   UNL d   1      -1.001   3.804   0.000  0.00  0.00     0.031 A 
ATOM     17  C   UNL d   1      -0.246   3.475   0.000  0.00  0.00     0.006 A 
ATOM     18  C   UNL d   1       0.313   4.080   0.000  0.00  0.00     0.001 A 
ATOM     19  C   UNL d   1      -0.108   4.797   0.000  0.00  0.00     0.001 A 
ATOM     20  C   UNL d   1      -0.922   4.622   0.000  0.00  0.00     0.006 A 
ENDBRANCH  15  16
ENDBRANCH   7  15
BRANCH  10  21
ATOM     21  C   UNL d   1      -0.271   0.913   0.000  0.00  0.00     0.039 C 
BRANCH  21  22
ATOM     22  C   UNL d   1       0.442   1.335   0.000  0.00  0.00     0.003 C 
ATOM     23  C   UNL d   1       0.442   2.152   0.000  0.00  0.00     0.000 C 
ENDBRANCH  21  22
ENDBRANCH  10  21
TORSDOF 4
