REMARK  5 active torsions:
REMARK  status: ('A' for Active; 'I' for Inactive)
REMARK    1  A    between atoms: S_14  and  C_7 
REMARK       I    between atoms: N_10  and  C_13 
REMARK    2  A    between atoms: C_26  and  C_11 
REMARK    3  A    between atoms: C_22  and  N_12 
REMARK    4  A    between atoms: C_13  and  C_17 
REMARK    5  A    between atoms: C_17  and  S_14 
ROOT
ATOM      1  N   UNL d   1      -3.854   2.150   0.000  0.00  0.00    -0.224 N 
ATOM      2  N   UNL d   1      -3.140   0.902   0.000  0.00  0.00    -0.241 N 
ATOM      3  C   UNL d   1      -3.854   1.315   0.000  0.00  0.00     0.343 A 
ATOM      4  C   UNL d   1      -2.426   1.323   0.000  0.00  0.00     0.160 A 
ATOM      5  C   UNL d   1      -3.140   2.564   0.000  0.00  0.00     0.273 A 
ATOM      6  C   UNL d   1      -2.426   2.150   0.000  0.00  0.00     0.115 A 
ATOM      7  C   UNL d   1      -1.712   2.564   0.000  0.00  0.00     0.120 A 
ATOM      8  N   UNL d   1      -1.704   0.910   0.000  0.00  0.00    -0.209 NA
ATOM      9  N   UNL d   1      -0.998   2.155   0.000  0.00  0.00    -0.220 NA
ATOM     10  C   UNL d   1      -0.990   1.323   0.000  0.00  0.00     0.165 A 
ATOM     11  O   UNL d   1      -4.572   0.902   0.000  0.00  0.00    -0.245 OA
ATOM     12  O   UNL d   1      -3.144   3.390   0.000  0.00  0.00    -0.266 OA
ATOM     13  C   UNL d   1      -4.568   2.555   0.000  0.00  0.00     0.107 C 
ATOM     14  C   UNL d   1      -3.140   0.075   0.000  0.00  0.00     0.105 C 
ENDROOT
BRANCH   7  15
ATOM     15  S   UNL d   1      -1.716   3.390   0.000  0.00  0.00    -0.062 SA
BRANCH  15  16
ATOM     16  C   UNL d   1      -1.002   3.808   0.000  0.00  0.00     0.098 C 
BRANCH  16  17
ATOM     17  C   UNL d   1      -0.284   3.403   0.000  0.00  0.00     0.272 C 
ATOM     18  N   UNL d   1       0.430   3.808   0.000  0.00  0.00    -0.269 N 
ATOM     19  C   UNL d   1       0.426   4.639   0.000  0.00  0.00     0.102 A 
ATOM     20  C   UNL d   1       1.140   3.403   0.000  0.00  0.00     0.102 A 
ATOM     21  C   UNL d   1       1.144   5.040   0.000  0.00  0.00     0.100 A 
ATOM     22  N   UNL d   1       1.858   4.635   0.000  0.00  0.00    -0.301 N 
ATOM     23  C   UNL d   1       1.854   3.808   0.000  0.00  0.00     0.100 A 
ATOM     24  O   UNL d   1      -0.284   2.576   0.000  0.00  0.00    -0.266 OA
BRANCH  22  25
ATOM     25  C   UNL d   1       2.572   5.040   0.000  0.00  0.00     0.064 A 
ATOM     26  C   UNL d   1       3.286   4.635   0.000  0.00  0.00     0.018 A 
ATOM     27  C   UNL d   1       4.008   5.040   0.000  0.00  0.00     0.002 A 
ATOM     28  C   UNL d   1       4.013   5.866   0.000  0.00  0.00     0.000 A 
ATOM     29  C   UNL d   1       3.286   6.280   0.000  0.00  0.00     0.002 A 
ATOM     30  C   UNL d   1       2.584   5.866   0.000  0.00  0.00     0.018 A 
ENDBRANCH  22  25
ENDBRANCH  16  17
ENDBRANCH  15  16
ENDBRANCH   7  15
BRANCH  10  31
ATOM     31  C   UNL d   1      -0.271   0.914   0.000  0.00  0.00     0.039 C 
ATOM     32  C   UNL d   1       0.443   1.328   0.000  0.00  0.00     0.003 C 
ENDBRANCH  10  31
TORSDOF 5
