REMARK  6 active torsions:
REMARK  status: ('A' for Active; 'I' for Inactive)
REMARK    1  A    between atoms: C_2  and  N_10 
REMARK    2  A    between atoms: N_8  and  C_2 
REMARK    3  A    between atoms: C_4  and  N_8 
REMARK    4  A    between atoms: N_10  and  C_16 
REMARK    5  A    between atoms: C_22  and  C_13 
REMARK    6  A    between atoms: C_16  and  C_15 
ROOT
ATOM      1  C   UNL d   1       7.379  -7.367   0.000  0.00  0.00     0.221 C 
ATOM      2  S   UNL d   1       7.379  -6.542   0.000  0.00  0.00    -0.037 SA
ENDROOT
BRANCH   1   3
ATOM      3  N   UNL d   1       6.662  -7.779   0.000  0.00  0.00    -0.216 NA
BRANCH   3   4
ATOM      4  C   UNL d   1       5.942  -7.367   0.000  0.00  0.00     0.101 C 
BRANCH   4   5
ATOM      5  C   UNL d   1       5.229  -7.787   0.000  0.00  0.00     0.019 A 
ATOM      6  C   UNL d   1       5.229  -8.613   0.000  0.00  0.00     0.003 A 
ATOM      7  C   UNL d   1       4.513  -9.025   0.000  0.00  0.00     0.019 A 
ATOM      8  C   UNL d   1       3.804  -8.613   0.000  0.00  0.00     0.081 A 
ATOM      9  C   UNL d   1       3.804  -7.787   0.000  0.00  0.00     0.019 A 
ATOM     10  N   UNL d   1       3.017  -8.867   0.000  0.00  0.00    -0.246 NA
ATOM     11  C   UNL d   1       4.513  -7.375   0.000  0.00  0.00     0.003 A 
ATOM     12  C   UNL d   1       3.017  -7.537   0.000  0.00  0.00     0.021 A 
ATOM     13  C   UNL d   1       2.538  -8.192   0.000  0.00  0.00     0.082 A 
ATOM     14  C   UNL d   1       1.712  -8.179   0.000  0.00  0.00     0.021 C 
ENDBRANCH   4   5
ENDBRANCH   3   4
ENDBRANCH   1   3
BRANCH   1  15
ATOM     15  N   UNL d   1       8.092  -7.779   0.000  0.00  0.00    -0.217 NA
BRANCH  15  16
ATOM     16  C   UNL d   1       8.804  -7.367   0.000  0.00  0.00     0.084 A 
ATOM     17  C   UNL d   1       8.804  -6.542   0.000  0.00  0.00     0.018 A 
ATOM     18  C   UNL d   1       9.517  -6.129   0.000  0.00  0.00     0.002 A 
ATOM     19  C   UNL d   1       8.088  -6.125   0.000  0.00  0.00     0.002 C 
ATOM     20  C   UNL d   1      10.238  -6.542   0.000  0.00  0.00     0.000 A 
ATOM     21  C   UNL d   1      10.238  -7.367   0.000  0.00  0.00     0.002 A 
ATOM     22  C   UNL d   1       9.517  -7.779   0.000  0.00  0.00     0.018 A 
BRANCH  22  23
ATOM     23  C   UNL d   1       9.517  -8.604   0.000  0.00  0.00     0.002 C 
ATOM     24  C   UNL d   1       8.812  -9.017   0.000  0.00  0.00     0.000 C 
ENDBRANCH  22  23
ENDBRANCH  15  16
ENDBRANCH   1  15
TORSDOF 6
