REMARK  4 active torsions:
REMARK  status: ('A' for Active; 'I' for Inactive)
REMARK       I    between atoms: C_6  and  N_7 
REMARK    1  A    between atoms: C_8  and  C_6 
REMARK    2  A    between atoms: N_7  and  C_14 
REMARK    3  A    between atoms: C_14  and  C_13 
REMARK    4  A    between atoms: O_17  and  C_15 
ROOT
ATOM      1  C   UNL d   1       7.729  -6.942   0.000  0.00  0.00     0.279 C 
ATOM      2  N   UNL d   1       7.017  -7.354   0.000  0.00  0.00    -0.206 NA
ATOM      3  O   UNL d   1       7.725  -6.117   0.000  0.00  0.00    -0.265 OA
ENDROOT
BRANCH   2   4
ATOM      4  C   UNL d   1       6.300  -6.950   0.000  0.00  0.00     0.102 C 
BRANCH   4   5
ATOM      5  C   UNL d   1       5.588  -7.367   0.000  0.00  0.00     0.019 A 
ATOM      6  C   UNL d   1       5.588  -8.192   0.000  0.00  0.00     0.003 A 
ATOM      7  C   UNL d   1       4.867  -8.604   0.000  0.00  0.00     0.019 A 
ATOM      8  C   UNL d   1       4.154  -8.192   0.000  0.00  0.00     0.081 A 
ATOM      9  C   UNL d   1       4.154  -7.367   0.000  0.00  0.00     0.019 A 
ATOM     10  N   UNL d   1       3.375  -8.454   0.000  0.00  0.00    -0.246 NA
ATOM     11  C   UNL d   1       4.867  -6.954   0.000  0.00  0.00     0.003 A 
ATOM     12  C   UNL d   1       3.367  -7.117   0.000  0.00  0.00     0.021 A 
ATOM     13  C   UNL d   1       2.888  -7.787   0.000  0.00  0.00     0.082 A 
ATOM     14  C   UNL d   1       2.062  -7.792   0.000  0.00  0.00     0.021 C 
ENDBRANCH   4   5
ENDBRANCH   2   4
BRANCH   1  15
ATOM     15  C   UNL d   1       8.442  -7.354   0.000  0.00  0.00     0.060 A 
ATOM     16  C   UNL d   1       8.442  -8.179   0.000  0.00  0.00     0.029 A 
ATOM     17  C   UNL d   1       9.154  -8.588   0.000  0.00  0.00     0.094 A 
ATOM     18  C   UNL d   1       9.879  -8.167   0.000  0.00  0.00     0.024 A 
ATOM     19  C   UNL d   1       9.879  -7.342   0.000  0.00  0.00     0.002 A 
ATOM     20  C   UNL d   1       9.154  -6.929   0.000  0.00  0.00     0.005 A 
BRANCH  17  21
ATOM     21  O   UNL d   1       9.162  -9.417   0.000  0.00  0.00    -0.328 OA
ATOM     22  C   UNL d   1       9.879  -9.829   0.000  0.00  0.00     0.181 C 
ENDBRANCH  17  21
ENDBRANCH   1  15
TORSDOF 4
