REMARK  7 active torsions:
REMARK  status: ('A' for Active; 'I' for Inactive)
REMARK    1  A    between atoms: N_4  and  S_1 
REMARK    2  A    between atoms: C_2  and  N_4 
REMARK    3  A    between atoms: C_3  and  C_2 
REMARK    4  A    between atoms: N_5  and  C_3 
REMARK    5  A    between atoms: C_7  and  C_3 
REMARK    6  A    between atoms: C_9  and  N_6 
REMARK    7  A    between atoms: O_26  and  C_22 
ROOT
ATOM      1  N   UNL d   1      -2.293   1.356   0.000  0.00  0.00    -0.300 N 
ATOM      2  N   UNL d   1      -1.956  -0.275   0.000  0.00  0.00    -0.301 N 
ATOM      3  C   UNL d   1      -2.909   0.795   0.000  0.00  0.00     0.100 A 
ATOM      4  C   UNL d   1      -1.519   1.086   0.000  0.00  0.00     0.100 A 
ATOM      5  C   UNL d   1      -2.746  -0.013   0.000  0.00  0.00     0.100 A 
ATOM      6  C   UNL d   1      -1.344   0.283   0.000  0.00  0.00     0.100 A 
ENDROOT
BRANCH   1   7
ATOM      7  C   UNL d   1      -2.459   2.159   0.000  0.00  0.00     0.089 C 
BRANCH   7   8
ATOM      8  C   UNL d   1      -1.847   2.709   0.000  0.00  0.00     0.110 C 
ATOM      9  C   UNL d   1      -2.018   3.516   0.000  0.00  0.00     0.023 C 
BRANCH   8  10
ATOM     10  N   UNL d   1      -1.069   2.455   0.000  0.00  0.00    -0.161 NA
BRANCH  10  11
ATOM     11  S   UNL d   1      -0.449   2.996   0.000  0.00  0.00     0.266 S 
ATOM     12  O   UNL d   1      -1.036   3.583   0.000  0.00  0.00    -0.203 OA
ATOM     13  O   UNL d   1      -0.237   3.795   0.000  0.00  0.00    -0.203 OA
ATOM     14  C   UNL d   1       0.179   2.467   0.000  0.00  0.00     0.165 C 
ENDBRANCH  10  11
ENDBRANCH   8  10
ENDBRANCH   7   8
BRANCH   7  15
ATOM     15  C   UNL d   1      -3.241   2.417   0.000  0.00  0.00     0.047 A 
ATOM     16  S   UNL d   1      -3.915   1.935   0.000  0.00  0.00    -0.085 SA
ATOM     17  C   UNL d   1      -4.577   2.430   0.000  0.00  0.00     0.035 A 
ATOM     18  C   UNL d   1      -4.327   3.208   0.000  0.00  0.00     0.007 A 
ATOM     19  C   UNL d   1      -3.495   3.204   0.000  0.00  0.00     0.009 A 
ENDBRANCH   7  15
ENDBRANCH   1   7
BRANCH   2  20
ATOM     20  C   UNL d   1      -1.793  -1.086   0.000  0.00  0.00     0.064 A 
ATOM     21  C   UNL d   1      -2.409  -1.627   0.000  0.00  0.00     0.020 A 
ATOM     22  C   UNL d   1      -2.243  -2.438   0.000  0.00  0.00     0.026 A 
ATOM     23  C   UNL d   1      -1.456  -2.700   0.000  0.00  0.00     0.094 A 
ATOM     24  C   UNL d   1      -0.845  -2.139   0.000  0.00  0.00     0.026 A 
ATOM     25  C   UNL d   1      -1.011  -1.327   0.000  0.00  0.00     0.020 A 
BRANCH  23  26
ATOM     26  O   UNL d   1      -1.282  -3.512   0.000  0.00  0.00    -0.328 OA
ATOM     27  C   UNL d   1      -1.906  -4.049   0.000  0.00  0.00     0.181 C 
ENDBRANCH  23  26
ENDBRANCH   2  20
TORSDOF 7
