REMARK  4 active torsions:
REMARK  status: ('A' for Active; 'I' for Inactive)
REMARK    1  A    between atoms: N_7  and  S_1 
REMARK    2  A    between atoms: C_8  and  S_1 
REMARK    3  A    between atoms: C_16  and  N_7 
REMARK    4  A    between atoms: C_15  and  C_16 
ROOT
ATOM      1  C   UNL d   1       3.413  -2.942   0.000  0.00  0.00     0.112 C 
ENDROOT
BRANCH   1   2
ATOM      2  C   UNL d   1       2.700  -3.354   0.000  0.00  0.00     0.020 A 
ATOM      3  C   UNL d   1       1.979  -2.942   0.000  0.00  0.00     0.003 A 
ATOM      4  C   UNL d   1       1.267  -3.362   0.000  0.00  0.00     0.018 A 
ATOM      5  C   UNL d   1       0.479  -3.112   0.000  0.00  0.00     0.019 A 
ATOM      6  C   UNL d   1       1.267  -4.188   0.000  0.00  0.00     0.064 A 
ATOM      7  C   UNL d   1       0.000  -3.779   0.000  0.00  0.00     0.064 A 
ATOM      8  C   UNL d   1      -0.825  -3.779   0.000  0.00  0.00     0.019 C 
ATOM      9  N   UNL d   1       0.487  -4.442   0.000  0.00  0.00    -0.304 N 
ATOM     10  C   UNL d   1       0.229  -5.229   0.000  0.00  0.00     0.099 C 
ATOM     11  C   UNL d   1       1.979  -4.600   0.000  0.00  0.00     0.018 A 
ATOM     12  C   UNL d   1       2.700  -4.188   0.000  0.00  0.00     0.003 A 
ENDBRANCH   1   2
BRANCH   1  13
ATOM     13  N   UNL d   1       4.129  -3.350   0.000  0.00  0.00    -0.157 NA
BRANCH  13  14
ATOM     14  S   UNL d   1       4.842  -2.938   0.000  0.00  0.00     0.285 S 
ATOM     15  O   UNL d   1       5.425  -2.350   0.000  0.00  0.00    -0.198 OA
ATOM     16  O   UNL d   1       4.254  -2.350   0.000  0.00  0.00    -0.198 OA
BRANCH  14  17
ATOM     17  C   UNL d   1       5.554  -3.342   0.000  0.00  0.00     0.105 A 
ATOM     18  C   UNL d   1       5.554  -4.167   0.000  0.00  0.00     0.013 A 
ATOM     19  C   UNL d   1       6.275  -4.579   0.000  0.00  0.00     0.001 A 
ATOM     20  C   UNL d   1       6.987  -4.162   0.000  0.00  0.00     0.000 A 
ATOM     21  C   UNL d   1       6.979  -3.329   0.000  0.00  0.00     0.001 A 
ATOM     22  C   UNL d   1       7.704  -4.567   0.000  0.00  0.00     0.000 C 
ATOM     23  C   UNL d   1       6.263  -2.929   0.000  0.00  0.00     0.013 A 
ENDBRANCH  14  17
ENDBRANCH  13  14
ENDBRANCH   1  13
TORSDOF 4
