REMARK  5 active torsions:
REMARK  status: ('A' for Active; 'I' for Inactive)
REMARK    1  A    between atoms: S_13  and  C_7 
REMARK    2  A    between atoms: C_22  and  C_10 
REMARK    3  A    between atoms: C_11  and  C_16 
REMARK       I    between atoms: N_12  and  C_11 
REMARK    4  A    between atoms: C_16  and  S_13 
REMARK    5  A    between atoms: C_23  and  C_22 
ROOT
ATOM      1  N   UNL d   1      -3.846   2.146   0.000  0.00  0.00    -0.224 N 
ATOM      2  N   UNL d   1      -3.133   0.900   0.000  0.00  0.00    -0.241 N 
ATOM      3  C   UNL d   1      -3.846   1.312   0.000  0.00  0.00     0.343 A 
ATOM      4  C   UNL d   1      -2.421   1.321   0.000  0.00  0.00     0.160 A 
ATOM      5  C   UNL d   1      -3.133   2.558   0.000  0.00  0.00     0.273 A 
ATOM      6  C   UNL d   1      -2.421   2.146   0.000  0.00  0.00     0.115 A 
ATOM      7  C   UNL d   1      -1.708   2.558   0.000  0.00  0.00     0.120 A 
ATOM      8  N   UNL d   1      -1.700   0.908   0.000  0.00  0.00    -0.209 NA
ATOM      9  N   UNL d   1      -0.996   2.150   0.000  0.00  0.00    -0.220 NA
ATOM     10  C   UNL d   1      -0.988   1.321   0.000  0.00  0.00     0.165 A 
ATOM     11  O   UNL d   1      -4.562   0.900   0.000  0.00  0.00    -0.245 OA
ATOM     12  O   UNL d   1      -3.138   3.383   0.000  0.00  0.00    -0.266 OA
ATOM     13  C   UNL d   1      -4.558   2.550   0.000  0.00  0.00     0.107 C 
ATOM     14  C   UNL d   1      -3.133   0.075   0.000  0.00  0.00     0.105 C 
ENDROOT
BRANCH   7  15
ATOM     15  S   UNL d   1      -1.712   3.383   0.000  0.00  0.00    -0.062 SA
BRANCH  15  16
ATOM     16  C   UNL d   1      -1.000   3.800   0.000  0.00  0.00     0.098 C 
BRANCH  16  17
ATOM     17  C   UNL d   1      -0.283   3.396   0.000  0.00  0.00     0.271 C 
ATOM     18  N   UNL d   1       0.429   3.821   0.000  0.00  0.00    -0.272 N 
ATOM     19  C   UNL d   1       1.129   3.312   0.000  0.00  0.00     0.083 A 
ATOM     20  C   UNL d   1       0.338   4.554   0.000  0.00  0.00     0.083 A 
ATOM     21  C   UNL d   1       1.842   3.433   0.000  0.00  0.00     0.019 A 
ATOM     22  C   UNL d   1       2.229   4.179   0.000  0.00  0.00     0.002 A 
ATOM     23  C   UNL d   1       1.829   4.967   0.000  0.00  0.00     0.002 A 
ATOM     24  C   UNL d   1       0.954   5.142   0.000  0.00  0.00     0.019 A 
ATOM     25  O   UNL d   1      -0.271   2.571   0.000  0.00  0.00    -0.266 OA
ENDBRANCH  16  17
ENDBRANCH  15  16
ENDBRANCH   7  15
BRANCH  10  26
ATOM     26  C   UNL d   1      -0.271   0.912   0.000  0.00  0.00     0.039 C 
BRANCH  26  27
ATOM     27  C   UNL d   1       0.442   1.333   0.000  0.00  0.00     0.003 C 
ATOM     28  C   UNL d   1       0.442   2.150   0.000  0.00  0.00     0.000 C 
ENDBRANCH  26  27
ENDBRANCH  10  26
TORSDOF 5
