REMARK  7 active torsions:
REMARK  status: ('A' for Active; 'I' for Inactive)
REMARK    1  A    between atoms: N_4  and  C_1 
REMARK    2  A    between atoms: N_8  and  C_1 
REMARK    3  A    between atoms: C_2  and  C_3 
REMARK    4  A    between atoms: C_5  and  C_2 
REMARK    5  A    between atoms: N_6  and  C_2 
REMARK    6  A    between atoms: C_3  and  N_4 
REMARK    7  A    between atoms: C_14  and  N_8 
ROOT
ATOM      1  C   UNL d   1      -1.853   2.713   0.000  0.00  0.00     0.100 C 
ATOM      2  C   UNL d   1      -2.024   3.515   0.000  0.00  0.00     0.022 C 
ENDROOT
BRANCH   1   3
ATOM      3  C   UNL d   1      -2.467   2.162   0.000  0.00  0.00     0.088 C 
BRANCH   3   4
ATOM      4  C   UNL d   1      -3.252   2.417   0.000  0.00  0.00     0.047 A 
ATOM      5  S   UNL d   1      -3.928   1.937   0.000  0.00  0.00    -0.085 SA
ATOM      6  C   UNL d   1      -4.592   2.425   0.000  0.00  0.00     0.035 A 
ATOM      7  C   UNL d   1      -4.341   3.214   0.000  0.00  0.00     0.007 A 
ATOM      8  C   UNL d   1      -3.506   3.214   0.000  0.00  0.00     0.009 A 
ENDBRANCH   3   4
BRANCH   3   9
ATOM      9  N   UNL d   1      -2.300   1.348   0.000  0.00  0.00    -0.299 N 
ATOM     10  C   UNL d   1      -1.524   1.089   0.000  0.00  0.00     0.107 A 
ATOM     11  C   UNL d   1      -1.348   0.284   0.000  0.00  0.00     0.142 A 
ATOM     12  O   UNL d   1      -1.962  -0.280   0.000  0.00  0.00    -0.300 OA
ATOM     13  C   UNL d   1      -2.751  -0.013   0.000  0.00  0.00     0.142 A 
ATOM     14  C   UNL d   1      -2.918   0.797   0.000  0.00  0.00     0.107 A 
ENDBRANCH   3   9
ENDBRANCH   1   3
BRANCH   1  15
ATOM     15  N   UNL d   1      -1.073   2.450   0.000  0.00  0.00    -0.216 NA
BRANCH  15  16
ATOM     16  C   UNL d   1      -0.451   3.001   0.000  0.00  0.00     0.221 C 
ATOM     17  S   UNL d   1      -0.622   3.807   0.000  0.00  0.00    -0.037 SA
BRANCH  16  18
ATOM     18  N   UNL d   1       0.330   2.738   0.000  0.00  0.00    -0.217 NA
BRANCH  18  19
ATOM     19  C   UNL d   1       0.501   1.929   0.000  0.00  0.00     0.084 A 
ATOM     20  C   UNL d   1      -0.121   1.377   0.000  0.00  0.00     0.021 A 
ATOM     21  C   UNL d   1       0.054   0.584   0.000  0.00  0.00     0.031 A 
ATOM     22  C   UNL d   1       0.839   0.321   0.000  0.00  0.00     0.140 A 
ATOM     23  C   UNL d   1       1.453   0.872   0.000  0.00  0.00     0.031 A 
ATOM     24  F   UNL d   1       1.006  -0.493   0.000  0.00  0.00    -0.204 F 
ATOM     25  C   UNL d   1       1.282   1.674   0.000  0.00  0.00     0.021 A 
ENDBRANCH  18  19
ENDBRANCH  16  18
ENDBRANCH  15  16
ENDBRANCH   1  15
TORSDOF 7
