REMARK  3 active torsions:
REMARK  status: ('A' for Active; 'I' for Inactive)
REMARK       I    between atoms: C_6  and  N_9 
REMARK    1  A    between atoms: C_7  and  C_6 
REMARK    2  A    between atoms: N_9  and  C_17 
REMARK    3  A    between atoms: C_17  and  C_16 
ROOT
ATOM      1  N   UNL d   1      -3.141   1.356   0.000  0.00  0.00    -0.304 N 
ATOM      2  C   UNL d   1      -3.627   2.018   0.000  0.00  0.00     0.064 A 
ATOM      3  C   UNL d   1      -2.359   1.610   0.000  0.00  0.00     0.064 A 
ATOM      4  C   UNL d   1      -2.367   2.434   0.000  0.00  0.00     0.018 A 
ATOM      5  C   UNL d   1      -3.145   2.683   0.000  0.00  0.00     0.019 A 
ATOM      6  C   UNL d   1      -1.647   1.198   0.000  0.00  0.00     0.018 A 
ATOM      7  C   UNL d   1      -1.647   2.854   0.000  0.00  0.00     0.003 A 
ATOM      8  C   UNL d   1      -0.932   2.442   0.000  0.00  0.00     0.019 A 
ATOM      9  C   UNL d   1      -0.932   1.610   0.000  0.00  0.00     0.003 A 
ATOM     10  C   UNL d   1      -3.390   0.570   0.000  0.00  0.00     0.099 C 
ATOM     11  C   UNL d   1      -4.451   2.018   0.000  0.00  0.00     0.019 C 
ENDROOT
BRANCH   8  12
ATOM     12  C   UNL d   1      -0.220   2.854   0.000  0.00  0.00     0.102 C 
BRANCH  12  13
ATOM     13  N   UNL d   1       0.491   2.454   0.000  0.00  0.00    -0.206 NA
ATOM     14  C   UNL d   1       1.202   2.858   0.000  0.00  0.00     0.285 C 
ATOM     15  O   UNL d   1       1.202   3.682   0.000  0.00  0.00    -0.265 OA
BRANCH  14  16
ATOM     16  C   UNL d   1       1.922   2.454   0.000  0.00  0.00     0.087 A 
ATOM     17  S   UNL d   1       2.675   2.791   0.000  0.00  0.00    -0.082 SA
ATOM     18  C   UNL d   1       3.224   2.180   0.000  0.00  0.00     0.036 A 
ATOM     19  C   UNL d   1       2.820   1.456   0.000  0.00  0.00     0.008 A 
ATOM     20  C   UNL d   1       2.013   1.631   0.000  0.00  0.00     0.012 A 
ENDBRANCH  14  16
ENDBRANCH  12  13
ENDBRANCH   8  12
TORSDOF 3
