REMARK  4 active torsions:
REMARK  status: ('A' for Active; 'I' for Inactive)
REMARK    1  A    between atoms: C_6  and  C_1 
REMARK    2  A    between atoms: C_10  and  C_2 
REMARK       I    between atoms: N_14  and  C_6 
REMARK    3  A    between atoms: C_8  and  C_15 
REMARK    4  A    between atoms: C_21  and  N_14 
ROOT
ATOM      1  C   UNL d   1       1.943   2.185   0.000  0.00  0.00     0.283 C 
ATOM      2  N   UNL d   1       1.530   2.898   0.000  0.00  0.00    -0.208 NA
ATOM      3  O   UNL d   1       1.539   1.464   0.000  0.00  0.00    -0.265 OA
ENDROOT
BRANCH   2   4
ATOM      4  C   UNL d   1       0.705   2.886   0.000  0.00  0.00     0.085 A 
ATOM      5  C   UNL d   1       0.292   2.172   0.000  0.00  0.00     0.019 A 
ATOM      6  C   UNL d   1      -0.534   2.164   0.000  0.00  0.00     0.003 A 
ATOM      7  C   UNL d   1      -0.947   2.877   0.000  0.00  0.00     0.020 A 
ATOM      8  C   UNL d   1      -0.546   3.599   0.000  0.00  0.00     0.003 A 
ATOM      9  C   UNL d   1       0.279   3.611   0.000  0.00  0.00     0.019 A 
BRANCH   7  10
ATOM     10  C   UNL d   1      -1.772   2.873   0.000  0.00  0.00     0.118 A 
ATOM     11  N   UNL d   1      -2.260   3.536   0.000  0.00  0.00    -0.059 NA
ATOM     12  C   UNL d   1      -3.040   3.273   0.000  0.00  0.00     0.735 A 
ATOM     13  N   UNL d   1      -3.753   3.690   0.000  0.00  0.00    -0.059 NA
ATOM     14  N   UNL d   1      -3.036   2.460   0.000  0.00  0.00    -0.136 N 
ATOM     15  C   UNL d   1      -4.462   3.273   0.000  0.00  0.00     0.119 A 
ATOM     16  C   UNL d   1      -4.462   2.448   0.000  0.00  0.00     0.041 A 
ATOM     17  C   UNL d   1      -3.753   2.039   0.000  0.00  0.00     0.100 A 
ATOM     18  C   UNL d   1      -2.252   2.210   0.000  0.00  0.00     0.118 A 
ENDBRANCH   7  10
ENDBRANCH   2   4
BRANCH   1  19
ATOM     19  C   UNL d   1       2.769   2.185   0.000  0.00  0.00     0.102 A 
ATOM     20  C   UNL d   1       3.253   1.522   0.000  0.00  0.00     0.116 A 
ATOM     21  N   UNL d   1       4.041   1.785   0.000  0.00  0.00    -0.126 NA
ATOM     22  O   UNL d   1       4.028   2.610   0.000  0.00  0.00    -0.211 OA
ATOM     23  C   UNL d   1       3.244   2.861   0.000  0.00  0.00     0.131 A 
ATOM     24  C   UNL d   1       2.977   3.636   0.000  0.00  0.00     0.029 C 
BRANCH  20  25
ATOM     25  C   UNL d   1       3.015   0.746   0.000  0.00  0.00     0.031 A 
ATOM     26  C   UNL d   1       3.570   0.146   0.000  0.00  0.00     0.059 A 
ATOM     27 CL   UNL d   1       4.370   0.321   0.000  0.00  0.00    -0.082 Cl
ATOM     28  C   UNL d   1       3.319  -0.642   0.000  0.00  0.00     0.011 A 
ATOM     29  C   UNL d   1       2.519  -0.817   0.000  0.00  0.00     0.001 A 
ATOM     30  C   UNL d   1       1.956  -0.217   0.000  0.00  0.00     0.000 A 
ATOM     31  C   UNL d   1       2.206   0.571   0.000  0.00  0.00     0.002 A 
ENDBRANCH  20  25
ENDBRANCH   1  19
TORSDOF 4
