REMARK  3 active torsions:
REMARK  status: ('A' for Active; 'I' for Inactive)
REMARK    1  A    between atoms: S_12  and  C_7 
REMARK    2  A    between atoms: C_10  and  C_13 
REMARK    3  A    between atoms: C_13  and  S_12 
ROOT
ATOM      1  N   UNL d   1       3.841  -8.178   0.000  0.00  0.00    -0.224 N 
ATOM      2  N   UNL d   1       4.554  -9.424   0.000  0.00  0.00    -0.241 N 
ATOM      3  C   UNL d   1       3.841  -9.011   0.000  0.00  0.00     0.343 A 
ATOM      4  C   UNL d   1       5.274  -9.003   0.000  0.00  0.00     0.160 A 
ATOM      5  C   UNL d   1       4.554  -7.766   0.000  0.00  0.00     0.273 A 
ATOM      6  C   UNL d   1       5.274  -8.178   0.000  0.00  0.00     0.115 A 
ATOM      7  C   UNL d   1       5.979  -7.766   0.000  0.00  0.00     0.120 A 
ATOM      8  N   UNL d   1       5.991  -9.416   0.000  0.00  0.00    -0.209 NA
ATOM      9  N   UNL d   1       6.699  -8.174   0.000  0.00  0.00    -0.220 NA
ATOM     10  C   UNL d   1       6.703  -9.003   0.000  0.00  0.00     0.165 A 
ATOM     11  O   UNL d   1       3.129  -9.424   0.000  0.00  0.00    -0.245 OA
ATOM     12  O   UNL d   1       4.554  -6.941   0.000  0.00  0.00    -0.266 OA
ATOM     13  C   UNL d   1       3.129  -7.774   0.000  0.00  0.00     0.107 C 
ATOM     14  C   UNL d   1       4.562 -10.249   0.000  0.00  0.00     0.105 C 
ATOM     15  C   UNL d   1       7.416  -9.411   0.000  0.00  0.00     0.042 C 
ENDROOT
BRANCH   7  16
ATOM     16  S   UNL d   1       5.979  -6.941   0.000  0.00  0.00    -0.067 SA
BRANCH  16  17
ATOM     17  C   UNL d   1       6.691  -6.524   0.000  0.00  0.00     0.040 C 
BRANCH  17  18
ATOM     18  C   UNL d   1       6.691  -5.699   0.000  0.00  0.00     0.045 A 
ATOM     19  C   UNL d   1       7.412  -5.291   0.000  0.00  0.00     0.060 A 
ATOM     20 CL   UNL d   1       8.124  -5.712   0.000  0.00  0.00    -0.082 Cl
ATOM     21  C   UNL d   1       7.428  -4.466   0.000  0.00  0.00     0.012 A 
ATOM     22  C   UNL d   1       6.716  -4.050   0.000  0.00  0.00     0.003 A 
ATOM     23  C   UNL d   1       5.991  -4.441   0.000  0.00  0.00     0.030 A 
ATOM     24  C   UNL d   1       5.979  -5.266   0.000  0.00  0.00     0.141 A 
ATOM     25  F   UNL d   1       5.266  -5.666   0.000  0.00  0.00    -0.204 F 
ENDBRANCH  17  18
ENDBRANCH  16  17
ENDBRANCH   7  16
TORSDOF 3
