REMARK  3 active torsions:
REMARK  status: ('A' for Active; 'I' for Inactive)
REMARK    1  A    between atoms: C_11  and  C_4 
REMARK       I    between atoms: C_6  and  N_8 
REMARK    2  A    between atoms: C_9  and  C_6 
REMARK    3  A    between atoms: N_8  and  C_19 
ROOT
ATOM      1  C   UNL d   1       6.279  -5.604   0.000  0.00  0.00     0.021 A 
ATOM      2  C   UNL d   1       7.528  -6.316   0.000  0.00  0.00     0.085 A 
ATOM      3  C   UNL d   1       6.703  -6.316   0.000  0.00  0.00     0.021 A 
ATOM      4  C   UNL d   1       6.691  -4.879   0.000  0.00  0.00     0.002 A 
ATOM      5  C   UNL d   1       7.516  -4.874   0.000  0.00  0.00     0.002 A 
ATOM      6  C   UNL d   1       7.941  -5.591   0.000  0.00  0.00     0.019 A 
ENDROOT
BRANCH   2   7
ATOM      7  N   UNL d   1       7.941  -7.028   0.000  0.00  0.00    -0.208 NA
ATOM      8  C   UNL d   1       7.537  -7.753   0.000  0.00  0.00     0.279 C 
ATOM      9  O   UNL d   1       6.703  -7.753   0.000  0.00  0.00    -0.265 OA
BRANCH   8  10
ATOM     10  C   UNL d   1       7.949  -8.466   0.000  0.00  0.00     0.060 A 
ATOM     11  C   UNL d   1       7.541  -9.178   0.000  0.00  0.00     0.031 A 
ATOM     12  C   UNL d   1       7.953  -9.878   0.000  0.00  0.00     0.119 A 
ATOM     13  O   UNL d   1       7.703 -10.674   0.000  0.00  0.00    -0.300 OA
ATOM     14  C   UNL d   1       8.778  -9.878   0.000  0.00  0.00     0.119 A 
ATOM     15  C   UNL d   1       8.378 -11.153   0.000  0.00  0.00     0.304 A 
ATOM     16  O   UNL d   1       9.041 -10.661   0.000  0.00  0.00    -0.300 OA
ATOM     17  C   UNL d   1       9.191  -9.166   0.000  0.00  0.00     0.026 A 
ATOM     18  C   UNL d   1       8.774  -8.453   0.000  0.00  0.00     0.007 A 
ENDBRANCH   8  10
ENDBRANCH   2   7
BRANCH   1  19
ATOM     19  C   UNL d   1       5.454  -5.604   0.000  0.00  0.00     0.118 A 
ATOM     20  N   UNL d   1       4.966  -4.941   0.000  0.00  0.00    -0.059 NA
ATOM     21  C   UNL d   1       4.179  -5.204   0.000  0.00  0.00     0.735 A 
ATOM     22  N   UNL d   1       4.187  -6.029   0.000  0.00  0.00    -0.136 N 
ATOM     23  N   UNL d   1       3.466  -4.787   0.000  0.00  0.00    -0.059 NA
ATOM     24  C   UNL d   1       4.974  -6.279   0.000  0.00  0.00     0.118 A 
ATOM     25  C   UNL d   1       3.466  -6.441   0.000  0.00  0.00     0.100 A 
ATOM     26  C   UNL d   1       2.754  -6.037   0.000  0.00  0.00     0.041 A 
ATOM     27  C   UNL d   1       2.754  -5.204   0.000  0.00  0.00     0.119 A 
ENDBRANCH   1  19
TORSDOF 3
