REMARK  5 active torsions:
REMARK  status: ('A' for Active; 'I' for Inactive)
REMARK       I    between atoms: N_2  and  C_1 
REMARK    1  A    between atoms: C_11  and  C_1 
REMARK    2  A    between atoms: C_4  and  N_2 
REMARK    3  A    between atoms: C_3  and  C_4 
REMARK    4  A    between atoms: C_5  and  C_3 
REMARK    5  A    between atoms: N_6  and  C_3 
ROOT
ATOM      1  C   UNL d   1      -2.467   2.162   0.000  0.00  0.00     0.088 C 
ENDROOT
BRANCH   1   2
ATOM      2  C   UNL d   1      -1.853   2.713   0.000  0.00  0.00     0.101 C 
ATOM      3  C   UNL d   1      -2.024   3.515   0.000  0.00  0.00     0.022 C 
BRANCH   2   4
ATOM      4  N   UNL d   1      -1.073   2.450   0.000  0.00  0.00    -0.206 NA
ATOM      5  C   UNL d   1      -0.451   3.001   0.000  0.00  0.00     0.279 C 
ATOM      6  O   UNL d   1      -0.622   3.807   0.000  0.00  0.00    -0.265 OA
BRANCH   5   7
ATOM      7  C   UNL d   1       0.330   2.738   0.000  0.00  0.00     0.058 A 
ATOM      8  C   UNL d   1       0.501   1.924   0.000  0.00  0.00     0.005 A 
ATOM      9  C   UNL d   1       1.282   1.674   0.000  0.00  0.00     0.000 A 
ATOM     10  C   UNL d   1       1.903   2.225   0.000  0.00  0.00     0.000 A 
ATOM     11  C   UNL d   1       1.728   3.030   0.000  0.00  0.00     0.000 A 
ATOM     12  C   UNL d   1       0.943   3.289   0.000  0.00  0.00     0.005 A 
ENDBRANCH   5   7
ENDBRANCH   2   4
ENDBRANCH   1   2
BRANCH   1  13
ATOM     13  C   UNL d   1      -3.252   2.417   0.000  0.00  0.00     0.047 A 
ATOM     14  S   UNL d   1      -3.928   1.937   0.000  0.00  0.00    -0.085 SA
ATOM     15  C   UNL d   1      -4.592   2.425   0.000  0.00  0.00     0.035 A 
ATOM     16  C   UNL d   1      -4.341   3.214   0.000  0.00  0.00     0.007 A 
ATOM     17  C   UNL d   1      -3.506   3.214   0.000  0.00  0.00     0.009 A 
ENDBRANCH   1  13
BRANCH   1  18
ATOM     18  N   UNL d   1      -2.300   1.348   0.000  0.00  0.00    -0.299 N 
ATOM     19  C   UNL d   1      -1.524   1.089   0.000  0.00  0.00     0.107 A 
ATOM     20  C   UNL d   1      -1.348   0.284   0.000  0.00  0.00     0.142 A 
ATOM     21  O   UNL d   1      -1.962  -0.280   0.000  0.00  0.00    -0.300 OA
ATOM     22  C   UNL d   1      -2.751  -0.013   0.000  0.00  0.00     0.142 A 
ATOM     23  C   UNL d   1      -2.918   0.797   0.000  0.00  0.00     0.107 A 
ENDBRANCH   1  18
TORSDOF 5
