REMARK  6 active torsions:
REMARK  status: ('A' for Active; 'I' for Inactive)
REMARK       I    between atoms: N_6  and  C_1 
REMARK       I    between atoms: N_9  and  C_1 
REMARK    1  A    between atoms: N_2  and  C_3 
REMARK    2  A    between atoms: C_3  and  C_5 
REMARK    3  A    between atoms: C_7  and  C_3 
REMARK    4  A    between atoms: C_16  and  N_4 
REMARK    5  A    between atoms: C_5  and  N_6 
REMARK    6  A    between atoms: C_19  and  N_9 
ROOT
ATOM      1  C   UNL d   1       1.785  -0.866   0.000  0.00  0.00     0.088 C 
ENDROOT
BRANCH   1   2
ATOM      2  N   UNL d   1       1.952  -1.677   0.000  0.00  0.00    -0.300 N 
ATOM      3  C   UNL d   1       2.734  -1.935   0.000  0.00  0.00     0.100 A 
ATOM      4  C   UNL d   1       2.900  -2.738   0.000  0.00  0.00     0.100 A 
ATOM      5  N   UNL d   1       2.289  -3.300   0.000  0.00  0.00    -0.301 N 
ATOM      6  C   UNL d   1       1.490  -3.025   0.000  0.00  0.00     0.100 A 
ATOM      7  C   UNL d   1       1.340  -2.222   0.000  0.00  0.00     0.100 A 
BRANCH   5   8
ATOM      8  C   UNL d   1       2.438  -4.099   0.000  0.00  0.00     0.064 A 
ATOM      9  C   UNL d   1       1.827  -4.648   0.000  0.00  0.00     0.018 A 
ATOM     10  C   UNL d   1       1.989  -5.459   0.000  0.00  0.00     0.002 A 
ATOM     11  C   UNL d   1       2.776  -5.721   0.000  0.00  0.00     0.000 A 
ATOM     12  C   UNL d   1       3.395  -5.168   0.000  0.00  0.00     0.002 A 
ATOM     13  C   UNL d   1       3.225  -4.361   0.000  0.00  0.00     0.018 A 
ENDBRANCH   5   8
ENDBRANCH   1   2
BRANCH   1  14
ATOM     14  C   UNL d   1       2.397  -0.316   0.000  0.00  0.00     0.103 C 
ATOM     15  C   UNL d   1       2.226   0.483   0.000  0.00  0.00     0.022 C 
BRANCH  14  16
ATOM     16  N   UNL d   1       3.175  -0.578   0.000  0.00  0.00    -0.190 NA
ATOM     17  C   UNL d   1       3.795  -0.029   0.000  0.00  0.00     0.369 C 
ATOM     18  N   UNL d   1       4.573  -0.291   0.000  0.00  0.00    -0.191 NA
ATOM     19  O   UNL d   1       3.624   0.774   0.000  0.00  0.00    -0.242 OA
BRANCH  18  20
ATOM     20  C   UNL d   1       4.744  -1.099   0.000  0.00  0.00     0.086 A 
ATOM     21  C   UNL d   1       4.119  -1.648   0.000  0.00  0.00     0.019 A 
ATOM     22  C   UNL d   1       4.286  -2.451   0.000  0.00  0.00     0.002 A 
ATOM     23  C   UNL d   1       5.068  -2.713   0.000  0.00  0.00     0.000 A 
ATOM     24  C   UNL d   1       5.684  -2.164   0.000  0.00  0.00     0.002 A 
ATOM     25  C   UNL d   1       5.522  -1.352   0.000  0.00  0.00     0.019 A 
ENDBRANCH  18  20
ENDBRANCH  14  16
ENDBRANCH   1  14
BRANCH   1  26
ATOM     26  C   UNL d   1       1.003  -0.612   0.000  0.00  0.00     0.047 A 
ATOM     27  S   UNL d   1       0.329  -1.090   0.000  0.00  0.00    -0.085 SA
ATOM     28  C   UNL d   1      -0.333  -0.603   0.000  0.00  0.00     0.035 A 
ATOM     29  C   UNL d   1      -0.075   0.183   0.000  0.00  0.00     0.007 A 
ATOM     30  C   UNL d   1       0.749   0.175   0.000  0.00  0.00     0.009 A 
ENDBRANCH   1  26
TORSDOF 6
