REMARK  5 active torsions:
REMARK  status: ('A' for Active; 'I' for Inactive)
REMARK    1  A    between atoms: C_12  and  N_3 
REMARK    2  A    between atoms: C_10  and  N_7 
REMARK    3  A    between atoms: C_11  and  C_10 
REMARK    4  A    between atoms: C_15  and  C_11 
REMARK    5  A    between atoms: C_16  and  C_12 
ROOT
ATOM      1  C   UNL d   1      -6.309   3.270   0.000  0.00  0.00     0.191 A 
ATOM      2  C   UNL d   1      -6.309   4.104   0.000  0.00  0.00     0.196 A 
ATOM      3  N   UNL d   1      -7.102   3.022   0.000  0.00  0.00    -0.191 N 
ATOM      4  N   UNL d   1      -5.599   2.865   0.000  0.00  0.00    -0.204 NA
ATOM      5  N   UNL d   1      -7.102   4.352   0.000  0.00  0.00    -0.122 NA
ATOM      6  N   UNL d   1      -7.572   3.691   0.000  0.00  0.00    -0.058 NA
ATOM      7  N   UNL d   1      -4.880   4.104   0.000  0.00  0.00    -0.251 N 
ATOM      8  C   UNL d   1      -5.599   4.509   0.000  0.00  0.00     0.289 A 
ATOM      9  C   UNL d   1      -4.880   3.270   0.000  0.00  0.00     0.187 A 
ATOM     10  O   UNL d   1      -5.599   5.343   0.000  0.00  0.00    -0.265 OA
ENDROOT
BRANCH   7  11
ATOM     11  C   UNL d   1      -4.154   4.509   0.000  0.00  0.00     0.127 C 
BRANCH  11  12
ATOM     12  C   UNL d   1      -3.435   4.088   0.000  0.00  0.00     0.213 C 
ATOM     13  O   UNL d   1      -3.443   3.262   0.000  0.00  0.00    -0.285 OA
BRANCH  12  14
ATOM     14  C   UNL d   1      -2.725   4.500   0.000  0.00  0.00     0.041 A 
ATOM     15  C   UNL d   1      -2.725   5.326   0.000  0.00  0.00     0.003 A 
ATOM     16  C   UNL d   1      -2.023   5.739   0.000  0.00  0.00     0.000 A 
ATOM     17  C   UNL d   1      -1.305   5.326   0.000  0.00  0.00     0.000 A 
ATOM     18  C   UNL d   1      -1.305   4.500   0.000  0.00  0.00     0.000 A 
ATOM     19  C   UNL d   1      -2.007   4.088   0.000  0.00  0.00     0.003 A 
ENDBRANCH  12  14
ENDBRANCH  11  12
ENDBRANCH   7  11
BRANCH   3  20
ATOM     20  C   UNL d   1      -7.374   2.230   0.000  0.00  0.00     0.104 C 
BRANCH  20  21
ATOM     21  C   UNL d   1      -8.192   2.073   0.000  0.00  0.00     0.019 A 
ATOM     22  C   UNL d   1      -8.737   2.692   0.000  0.00  0.00     0.002 A 
ATOM     23  C   UNL d   1      -9.530   2.519   0.000  0.00  0.00     0.000 A 
ATOM     24  C   UNL d   1      -9.802   1.751   0.000  0.00  0.00     0.000 A 
ATOM     25  C   UNL d   1      -9.241   1.115   0.000  0.00  0.00     0.000 A 
ATOM     26  C   UNL d   1      -8.440   1.288   0.000  0.00  0.00     0.002 A 
ENDBRANCH  20  21
ENDBRANCH   3  20
TORSDOF 5
