REMARK  6 active torsions:
REMARK  status: ('A' for Active; 'I' for Inactive)
REMARK    1  A    between atoms: C_10  and  N_3 
REMARK    2  A    between atoms: C_11  and  N_8 
REMARK    3  A    between atoms: C_12  and  C_11 
REMARK    4  A    between atoms: O_15  and  C_12 
REMARK    5  A    between atoms: C_18  and  O_15 
REMARK    6  A    between atoms: C_22  and  C_18 
ROOT
ATOM      1  C   UNL d   1      -6.295   3.263   0.000  0.00  0.00     0.191 A 
ATOM      2  C   UNL d   1      -6.295   4.095   0.000  0.00  0.00     0.196 A 
ATOM      3  N   UNL d   1      -7.086   3.016   0.000  0.00  0.00    -0.193 N 
ATOM      4  N   UNL d   1      -7.555   3.683   0.000  0.00  0.00    -0.058 NA
ATOM      5  N   UNL d   1      -7.086   4.342   0.000  0.00  0.00    -0.122 NA
ATOM      6  N   UNL d   1      -5.586   2.859   0.000  0.00  0.00    -0.204 NA
ATOM      7  C   UNL d   1      -5.586   4.499   0.000  0.00  0.00     0.289 A 
ATOM      8  N   UNL d   1      -4.869   4.095   0.000  0.00  0.00    -0.249 N 
ATOM      9  C   UNL d   1      -4.869   3.263   0.000  0.00  0.00     0.187 A 
ATOM     10  O   UNL d   1      -5.586   5.331   0.000  0.00  0.00    -0.265 OA
ENDROOT
BRANCH   8  11
ATOM     11  C   UNL d   1      -4.144   4.499   0.000  0.00  0.00     0.153 C 
BRANCH  11  12
ATOM     12  C   UNL d   1      -3.428   4.079   0.000  0.00  0.00     0.318 C 
ATOM     13  O   UNL d   1      -3.436   3.255   0.000  0.00  0.00    -0.257 OA
BRANCH  12  14
ATOM     14  O   UNL d   1      -2.719   4.490   0.000  0.00  0.00    -0.270 OA
BRANCH  14  15
ATOM     15  C   UNL d   1      -2.002   4.079   0.000  0.00  0.00     0.126 C 
BRANCH  15  16
ATOM     16  C   UNL d   1      -1.302   4.490   0.000  0.00  0.00     0.025 A 
ATOM     17  C   UNL d   1      -0.585   4.079   0.000  0.00  0.00     0.002 A 
ATOM     18  C   UNL d   1       0.132   4.490   0.000  0.00  0.00     0.000 A 
ATOM     19  C   UNL d   1       0.124   5.314   0.000  0.00  0.00     0.000 A 
ATOM     20  C   UNL d   1      -0.593   5.726   0.000  0.00  0.00     0.000 A 
ATOM     21  C   UNL d   1      -1.302   5.314   0.000  0.00  0.00     0.002 A 
ENDBRANCH  15  16
ENDBRANCH  14  15
ENDBRANCH  12  14
ENDBRANCH  11  12
ENDBRANCH   8  11
BRANCH   3  22
ATOM     22  C   UNL d   1      -7.382   2.266   0.000  0.00  0.00     0.086 A 
ATOM     23  C   UNL d   1      -6.863   1.607   0.000  0.00  0.00     0.019 A 
ATOM     24  C   UNL d   1      -7.168   0.857   0.000  0.00  0.00     0.002 A 
ATOM     25  C   UNL d   1      -8.000   0.733   0.000  0.00  0.00     0.000 A 
ATOM     26  C   UNL d   1      -8.495   1.376   0.000  0.00  0.00     0.002 A 
ATOM     27  C   UNL d   1      -8.322  -0.049   0.000  0.00  0.00     0.000 C 
ATOM     28  C   UNL d   1      -8.198   2.142   0.000  0.00  0.00     0.019 A 
ENDBRANCH   3  22
TORSDOF 6
