REMARK  5 active torsions:
REMARK  status: ('A' for Active; 'I' for Inactive)
REMARK       I    between atoms: N_2  and  C_1 
REMARK    1  A    between atoms: C_8  and  C_1 
REMARK    2  A    between atoms: C_4  and  N_2 
REMARK    3  A    between atoms: C_3  and  C_4 
REMARK    4  A    between atoms: C_5  and  C_3 
REMARK    5  A    between atoms: N_6  and  C_3 
ROOT
ATOM      1  C   UNL d   1      -2.459   2.155   0.000  0.00  0.00     0.088 C 
ENDROOT
BRANCH   1   2
ATOM      2  C   UNL d   1      -1.847   2.704   0.000  0.00  0.00     0.101 C 
ATOM      3  C   UNL d   1      -2.018   3.503   0.000  0.00  0.00     0.022 C 
BRANCH   2   4
ATOM      4  N   UNL d   1      -1.069   2.442   0.000  0.00  0.00    -0.206 NA
ATOM      5  C   UNL d   1      -0.449   2.991   0.000  0.00  0.00     0.279 C 
ATOM      6  O   UNL d   1      -0.620   3.794   0.000  0.00  0.00    -0.265 OA
BRANCH   5   7
ATOM      7  C   UNL d   1       0.329   2.729   0.000  0.00  0.00     0.058 A 
ATOM      8  C   UNL d   1       0.503   1.918   0.000  0.00  0.00     0.005 A 
ATOM      9  C   UNL d   1       1.290   1.656   0.000  0.00  0.00     0.000 A 
ATOM     10  C   UNL d   1       1.452   0.857   0.000  0.00  0.00     0.000 C 
ATOM     11  C   UNL d   1       1.901   2.217   0.000  0.00  0.00     0.000 A 
ATOM     12  C   UNL d   1       1.735   3.029   0.000  0.00  0.00     0.000 A 
ATOM     13  C   UNL d   1       0.953   3.278   0.000  0.00  0.00     0.005 A 
ENDBRANCH   5   7
ENDBRANCH   2   4
ENDBRANCH   1   2
BRANCH   1  14
ATOM     14  C   UNL d   1      -3.241   2.409   0.000  0.00  0.00     0.047 A 
ATOM     15  S   UNL d   1      -3.915   1.930   0.000  0.00  0.00    -0.085 SA
ATOM     16  C   UNL d   1      -4.577   2.417   0.000  0.00  0.00     0.035 A 
ATOM     17  C   UNL d   1      -4.327   3.204   0.000  0.00  0.00     0.007 A 
ATOM     18  C   UNL d   1      -3.495   3.204   0.000  0.00  0.00     0.009 A 
ENDBRANCH   1  14
BRANCH   1  19
ATOM     19  N   UNL d   1      -2.292   1.344   0.000  0.00  0.00    -0.299 N 
ATOM     20  C   UNL d   1      -1.518   1.086   0.000  0.00  0.00     0.107 A 
ATOM     21  C   UNL d   1      -1.344   0.283   0.000  0.00  0.00     0.142 A 
ATOM     22  O   UNL d   1      -1.955  -0.279   0.000  0.00  0.00    -0.300 OA
ATOM     23  C   UNL d   1      -2.742  -0.013   0.000  0.00  0.00     0.142 A 
ATOM     24  C   UNL d   1      -2.908   0.795   0.000  0.00  0.00     0.107 A 
ENDBRANCH   1  19
TORSDOF 5
