REMARK  4 active torsions:
REMARK  status: ('A' for Active; 'I' for Inactive)
REMARK    1  A    between atoms: S_13  and  C_7 
REMARK       I    between atoms: N_10  and  C_12 
REMARK    2  A    between atoms: C_25  and  C_11 
REMARK    3  A    between atoms: C_12  and  C_16 
REMARK    4  A    between atoms: C_16  and  S_13 
ROOT
ATOM      1  N   UNL d   1      -3.854   2.150   0.000  0.00  0.00    -0.224 N 
ATOM      2  N   UNL d   1      -3.140   0.902   0.000  0.00  0.00    -0.241 N 
ATOM      3  C   UNL d   1      -3.854   1.315   0.000  0.00  0.00     0.343 A 
ATOM      4  C   UNL d   1      -2.426   1.323   0.000  0.00  0.00     0.160 A 
ATOM      5  C   UNL d   1      -3.140   2.564   0.000  0.00  0.00     0.273 A 
ATOM      6  C   UNL d   1      -2.426   2.150   0.000  0.00  0.00     0.115 A 
ATOM      7  C   UNL d   1      -1.712   2.564   0.000  0.00  0.00     0.120 A 
ATOM      8  N   UNL d   1      -1.704   0.910   0.000  0.00  0.00    -0.209 NA
ATOM      9  N   UNL d   1      -0.998   2.155   0.000  0.00  0.00    -0.220 NA
ATOM     10  C   UNL d   1      -0.990   1.323   0.000  0.00  0.00     0.165 A 
ATOM     11  O   UNL d   1      -4.572   0.902   0.000  0.00  0.00    -0.245 OA
ATOM     12  O   UNL d   1      -3.144   3.390   0.000  0.00  0.00    -0.266 OA
ATOM     13  C   UNL d   1      -4.568   2.555   0.000  0.00  0.00     0.107 C 
ATOM     14  C   UNL d   1      -3.140   0.075   0.000  0.00  0.00     0.105 C 
ENDROOT
BRANCH   7  15
ATOM     15  S   UNL d   1      -1.716   3.390   0.000  0.00  0.00    -0.062 SA
BRANCH  15  16
ATOM     16  C   UNL d   1      -1.002   3.808   0.000  0.00  0.00     0.098 C 
BRANCH  16  17
ATOM     17  C   UNL d   1      -0.284   3.403   0.000  0.00  0.00     0.271 C 
ATOM     18  N   UNL d   1       0.426   3.816   0.000  0.00  0.00    -0.272 N 
ATOM     19  C   UNL d   1       0.413   4.626   0.000  0.00  0.00     0.083 A 
ATOM     20  C   UNL d   1       1.144   3.415   0.000  0.00  0.00     0.083 A 
ATOM     21  C   UNL d   1       1.131   5.052   0.000  0.00  0.00     0.019 A 
ATOM     22  C   UNL d   1       1.854   4.647   0.000  0.00  0.00     0.003 A 
ATOM     23  C   UNL d   1       1.854   3.820   0.000  0.00  0.00     0.019 A 
ATOM     24  C   UNL d   1       2.559   5.065   0.000  0.00  0.00     0.000 C 
ATOM     25  O   UNL d   1      -0.276   2.568   0.000  0.00  0.00    -0.266 OA
ENDBRANCH  16  17
ENDBRANCH  15  16
ENDBRANCH   7  15
BRANCH  10  26
ATOM     26  C   UNL d   1      -0.271   0.914   0.000  0.00  0.00     0.039 C 
ATOM     27  C   UNL d   1       0.443   1.328   0.000  0.00  0.00     0.003 C 
ENDBRANCH  10  26
TORSDOF 4
