REMARK  4 active torsions:
REMARK  status: ('A' for Active; 'I' for Inactive)
REMARK       I    between atoms: C_6  and  N_7 
REMARK    1  A    between atoms: C_9  and  C_6 
REMARK    2  A    between atoms: N_7  and  C_15 
REMARK    3  A    between atoms: C_15  and  C_14 
REMARK    4  A    between atoms: O_22  and  C_18 
ROOT
ATOM      1  C   UNL d   1      -0.221   2.857   0.000  0.00  0.00     0.102 C 
ENDROOT
BRANCH   1   2
ATOM      2  N   UNL d   1       0.491   2.457   0.000  0.00  0.00    -0.206 NA
ATOM      3  C   UNL d   1       1.204   2.861   0.000  0.00  0.00     0.279 C 
ATOM      4  O   UNL d   1       1.204   3.686   0.000  0.00  0.00    -0.265 OA
BRANCH   3   5
ATOM      5  C   UNL d   1       1.924   2.457   0.000  0.00  0.00     0.058 A 
ATOM      6  C   UNL d   1       2.636   2.874   0.000  0.00  0.00     0.007 A 
ATOM      7  C   UNL d   1       3.348   2.457   0.000  0.00  0.00     0.024 A 
ATOM      8  C   UNL d   1       3.361   1.645   0.000  0.00  0.00     0.094 A 
ATOM      9  C   UNL d   1       2.636   1.220   0.000  0.00  0.00     0.024 A 
ATOM     10  C   UNL d   1       1.916   1.624   0.000  0.00  0.00     0.007 A 
BRANCH   8  11
ATOM     11  O   UNL d   1       4.065   1.224   0.000  0.00  0.00    -0.328 OA
ATOM     12  C   UNL d   1       4.785   1.645   0.000  0.00  0.00     0.181 C 
ENDBRANCH   8  11
ENDBRANCH   3   5
ENDBRANCH   1   2
BRANCH   1  13
ATOM     13  C   UNL d   1      -0.933   2.445   0.000  0.00  0.00     0.019 A 
ATOM     14  C   UNL d   1      -0.933   1.612   0.000  0.00  0.00     0.003 A 
ATOM     15  C   UNL d   1      -1.649   1.199   0.000  0.00  0.00     0.018 A 
ATOM     16  C   UNL d   1      -2.361   1.612   0.000  0.00  0.00     0.064 A 
ATOM     17  N   UNL d   1      -3.144   1.358   0.000  0.00  0.00    -0.304 N 
ATOM     18  C   UNL d   1      -2.370   2.436   0.000  0.00  0.00     0.018 A 
ATOM     19  C   UNL d   1      -3.631   2.020   0.000  0.00  0.00     0.064 A 
ATOM     20  C   UNL d   1      -3.394   0.571   0.000  0.00  0.00     0.099 C 
ATOM     21  C   UNL d   1      -3.148   2.686   0.000  0.00  0.00     0.019 A 
ATOM     22  C   UNL d   1      -4.456   2.020   0.000  0.00  0.00     0.019 C 
ATOM     23  C   UNL d   1      -1.649   2.857   0.000  0.00  0.00     0.003 A 
ENDBRANCH   1  13
TORSDOF 4
