REMARK  6 active torsions:
REMARK  status: ('A' for Active; 'I' for Inactive)
REMARK       I    between atoms: C_3  and  N_1 
REMARK    1  A    between atoms: C_8  and  C_3 
REMARK    2  A    between atoms: S_4  and  N_9 
REMARK    3  A    between atoms: C_24  and  S_4 
REMARK    4  A    between atoms: C_10  and  C_5 
REMARK    5  A    between atoms: C_11  and  C_6 
REMARK    6  A    between atoms: N_9  and  C_23 
ROOT
ATOM      1  N   UNL d   1       2.752  -3.525   0.000  0.00  0.00    -0.193 N 
ATOM      2  N   UNL d   1       1.995  -3.157   0.000  0.00  0.00    -0.163 NA
ATOM      3  C   UNL d   1       2.891  -4.337   0.000  0.00  0.00     0.303 C 
ATOM      4  C   UNL d   1       3.319  -2.956   0.000  0.00  0.00     0.088 A 
ATOM      5  C   UNL d   1       2.122  -2.345   0.000  0.00  0.00     0.103 A 
ATOM      6  C   UNL d   1       2.943  -2.209   0.000  0.00  0.00     0.040 A 
ATOM      7  O   UNL d   1       3.659  -4.622   0.000  0.00  0.00    -0.263 OA
ENDROOT
BRANCH   5   8
ATOM      8  C   UNL d   1       1.561  -1.748   0.000  0.00  0.00     0.019 A 
ATOM      9  C   UNL d   1       1.810  -0.958   0.000  0.00  0.00     0.003 A 
ATOM     10  C   UNL d   1       1.258  -0.360   0.000  0.00  0.00     0.020 A 
ATOM     11  C   UNL d   1       0.450  -0.537   0.000  0.00  0.00     0.094 A 
ATOM     12  C   UNL d   1       0.203  -1.324   0.000  0.00  0.00     0.020 A 
ATOM     13  C   UNL d   1       0.759  -1.931   0.000  0.00  0.00     0.003 A 
BRANCH  11  14
ATOM     14  N   UNL d   1      -0.122   0.065   0.000  0.00  0.00    -0.158 NA
BRANCH  14  15
ATOM     15  S   UNL d   1       0.110   0.845   0.000  0.00  0.00     0.286 S 
ATOM     16  O   UNL d   1       0.908   0.611   0.000  0.00  0.00    -0.198 OA
ATOM     17  O   UNL d   1       0.340   1.653   0.000  0.00  0.00    -0.198 OA
BRANCH  15  18
ATOM     18  C   UNL d   1      -0.688   1.082   0.000  0.00  0.00     0.117 C 
ATOM     19  C   UNL d   1      -0.886   1.877   0.000  0.00  0.00     0.014 C 
ENDBRANCH  15  18
ENDBRANCH  14  15
ENDBRANCH  11  14
ENDBRANCH   5   8
BRANCH   4  20
ATOM     20  C   UNL d   1       4.122  -3.051   0.000  0.00  0.00     0.018 A 
ATOM     21  C   UNL d   1       4.462  -3.803   0.000  0.00  0.00     0.002 A 
ATOM     22  C   UNL d   1       5.286  -3.901   0.000  0.00  0.00     0.000 A 
ATOM     23  C   UNL d   1       5.774  -3.226   0.000  0.00  0.00     0.000 A 
ATOM     24  C   UNL d   1       5.435  -2.469   0.000  0.00  0.00     0.000 A 
ATOM     25  C   UNL d   1       6.593  -3.308   0.000  0.00  0.00     0.000 C 
ATOM     26  C   UNL d   1       4.615  -2.380   0.000  0.00  0.00     0.002 A 
ENDBRANCH   4  20
BRANCH   3  27
ATOM     27  C   UNL d   1       2.252  -4.859   0.000  0.00  0.00     0.158 A 
ATOM     28  O   UNL d   1       2.309  -5.683   0.000  0.00  0.00    -0.300 OA
ATOM     29  C   UNL d   1       1.545  -5.985   0.000  0.00  0.00     0.123 A 
ATOM     30  C   UNL d   1       1.016  -5.348   0.000  0.00  0.00     0.029 A 
ATOM     31  C   UNL d   1       1.459  -4.656   0.000  0.00  0.00     0.032 A 
ENDBRANCH   3  27
TORSDOF 6
