REMARK  6 active torsions:
REMARK  status: ('A' for Active; 'I' for Inactive)
REMARK    1  A    between atoms: N_2  and  S_1 
REMARK    2  A    between atoms: C_7  and  S_1 
REMARK    3  A    between atoms: C_3  and  N_2 
REMARK    4  A    between atoms: C_4  and  C_3 
REMARK    5  A    between atoms: N_5  and  C_4 
REMARK    6  A    between atoms: C_6  and  C_4 
ROOT
ATOM      1  C   UNL d   1      -1.847   2.708   0.000  0.00  0.00     0.110 C 
ATOM      2  C   UNL d   1      -2.018   3.516   0.000  0.00  0.00     0.023 C 
ENDROOT
BRANCH   1   3
ATOM      3  N   UNL d   1      -1.069   2.455   0.000  0.00  0.00    -0.157 NA
BRANCH   3   4
ATOM      4  S   UNL d   1      -0.449   2.995   0.000  0.00  0.00     0.285 S 
ATOM      5  O   UNL d   1      -0.237   3.794   0.000  0.00  0.00    -0.198 OA
ATOM      6  O   UNL d   1      -1.036   3.582   0.000  0.00  0.00    -0.198 OA
BRANCH   4   7
ATOM      7  C   UNL d   1       0.179   2.467   0.000  0.00  0.00     0.105 A 
ATOM      8  C   UNL d   1       0.029   1.647   0.000  0.00  0.00     0.013 A 
ATOM      9  C   UNL d   1       0.666   1.119   0.000  0.00  0.00     0.007 A 
ATOM     10  C   UNL d   1       1.440   1.398   0.000  0.00  0.00     0.035 A 
ATOM     11  C   UNL d   1       1.589   2.209   0.000  0.00  0.00     0.007 A 
ATOM     12 BR   UNL d   1       2.076   0.861   0.000  0.00  0.00    -0.049 Br
ATOM     13  C   UNL d   1       0.953   2.746   0.000  0.00  0.00     0.013 A 
ENDBRANCH   4   7
ENDBRANCH   3   4
ENDBRANCH   1   3
BRANCH   1  14
ATOM     14  C   UNL d   1      -2.459   2.159   0.000  0.00  0.00     0.089 C 
BRANCH  14  15
ATOM     15  N   UNL d   1      -2.292   1.356   0.000  0.00  0.00    -0.300 N 
ATOM     16  C   UNL d   1      -1.510   1.094   0.000  0.00  0.00     0.100 A 
ATOM     17  C   UNL d   1      -1.344   0.283   0.000  0.00  0.00     0.100 A 
ATOM     18  N   UNL d   1      -1.955  -0.266   0.000  0.00  0.00    -0.299 N 
ATOM     19  C   UNL d   1      -2.742  -0.004   0.000  0.00  0.00     0.100 A 
ATOM     20  C   UNL d   1      -1.785  -1.078   0.000  0.00  0.00     0.100 C 
ATOM     21  C   UNL d   1      -2.908   0.799   0.000  0.00  0.00     0.100 A 
ENDBRANCH  14  15
BRANCH  14  22
ATOM     22  C   UNL d   1      -3.241   2.417   0.000  0.00  0.00     0.047 A 
ATOM     23  S   UNL d   1      -3.915   1.935   0.000  0.00  0.00    -0.085 SA
ATOM     24  C   UNL d   1      -4.577   2.430   0.000  0.00  0.00     0.035 A 
ATOM     25  C   UNL d   1      -4.327   3.208   0.000  0.00  0.00     0.007 A 
ATOM     26  C   UNL d   1      -3.495   3.204   0.000  0.00  0.00     0.009 A 
ENDBRANCH  14  22
ENDBRANCH   1  14
TORSDOF 6
