REMARK  6 active torsions:
REMARK  status: ('A' for Active; 'I' for Inactive)
REMARK    1  A    between atoms: N_2  and  S_1 
REMARK    2  A    between atoms: C_11  and  S_1 
REMARK    3  A    between atoms: C_3  and  N_2 
REMARK    4  A    between atoms: C_4  and  C_3 
REMARK    5  A    between atoms: N_5  and  C_4 
REMARK    6  A    between atoms: C_6  and  C_4 
ROOT
ATOM      1  C   UNL d   1      -2.460   2.160   0.000  0.00  0.00     0.089 C 
ENDROOT
BRANCH   1   2
ATOM      2  C   UNL d   1      -1.848   2.710   0.000  0.00  0.00     0.110 C 
ATOM      3  C   UNL d   1      -2.019   3.517   0.000  0.00  0.00     0.023 C 
BRANCH   2   4
ATOM      4  N   UNL d   1      -1.070   2.456   0.000  0.00  0.00    -0.157 NA
BRANCH   4   5
ATOM      5  S   UNL d   1      -0.450   2.997   0.000  0.00  0.00     0.285 S 
ATOM      6  O   UNL d   1      -1.036   3.584   0.000  0.00  0.00    -0.198 OA
ATOM      7  O   UNL d   1      -0.237   3.796   0.000  0.00  0.00    -0.198 OA
BRANCH   5   8
ATOM      8  C   UNL d   1       0.179   2.468   0.000  0.00  0.00     0.105 A 
ATOM      9  C   UNL d   1       0.029   1.657   0.000  0.00  0.00     0.013 A 
ATOM     10  C   UNL d   1       0.666   1.132   0.000  0.00  0.00     0.001 A 
ATOM     11  C   UNL d   1       1.440   1.407   0.000  0.00  0.00     0.000 A 
ATOM     12  C   UNL d   1       1.586   2.219   0.000  0.00  0.00     0.001 A 
ATOM     13  C   UNL d   1       0.949   2.743   0.000  0.00  0.00     0.013 A 
ENDBRANCH   5   8
ENDBRANCH   4   5
ENDBRANCH   2   4
ENDBRANCH   1   2
BRANCH   1  14
ATOM     14  N   UNL d   1      -2.293   1.357   0.000  0.00  0.00    -0.300 N 
ATOM     15  C   UNL d   1      -1.511   1.095   0.000  0.00  0.00     0.100 A 
ATOM     16  C   UNL d   1      -1.344   0.283   0.000  0.00  0.00     0.100 A 
ATOM     17  N   UNL d   1      -1.956  -0.266   0.000  0.00  0.00    -0.299 N 
ATOM     18  C   UNL d   1      -2.743  -0.004   0.000  0.00  0.00     0.100 A 
ATOM     19  C   UNL d   1      -1.786  -1.078   0.000  0.00  0.00     0.100 C 
ATOM     20  C   UNL d   1      -2.909   0.799   0.000  0.00  0.00     0.100 A 
ENDBRANCH   1  14
BRANCH   1  21
ATOM     21  C   UNL d   1      -3.243   2.418   0.000  0.00  0.00     0.047 A 
ATOM     22  S   UNL d   1      -3.917   1.935   0.000  0.00  0.00    -0.085 SA
ATOM     23  C   UNL d   1      -4.579   2.431   0.000  0.00  0.00     0.035 A 
ATOM     24  C   UNL d   1      -4.329   3.209   0.000  0.00  0.00     0.007 A 
ATOM     25  C   UNL d   1      -3.496   3.205   0.000  0.00  0.00     0.009 A 
ENDBRANCH   1  21
TORSDOF 6
