REMARK  4 active torsions:
REMARK  status: ('A' for Active; 'I' for Inactive)
REMARK    1  A    between atoms: C_8  and  C_4 
REMARK       I    between atoms: C_7  and  N_10 
REMARK    2  A    between atoms: C_16  and  C_7 
REMARK    3  A    between atoms: N_10  and  C_13 
REMARK    4  A    between atoms: C_17  and  C_16 
ROOT
ATOM      1  C   UNL d   1       6.049  -6.517   0.000  0.00  0.00     0.021 A 
ATOM      2  C   UNL d   1       6.468  -7.231   0.000  0.00  0.00     0.021 A 
ATOM      3  C   UNL d   1       7.289  -7.226   0.000  0.00  0.00     0.085 A 
ATOM      4  C   UNL d   1       6.455  -5.800   0.000  0.00  0.00     0.002 A 
ATOM      5  C   UNL d   1       7.280  -5.788   0.000  0.00  0.00     0.002 A 
ATOM      6  C   UNL d   1       7.699  -6.509   0.000  0.00  0.00     0.019 A 
ENDROOT
BRANCH   1   7
ATOM      7  C   UNL d   1       5.224  -6.522   0.000  0.00  0.00     0.118 A 
ATOM      8  N   UNL d   1       4.739  -5.862   0.000  0.00  0.00    -0.059 NA
ATOM      9  C   UNL d   1       3.959  -6.124   0.000  0.00  0.00     0.735 A 
ATOM     10  N   UNL d   1       3.959  -6.944   0.000  0.00  0.00    -0.136 N 
ATOM     11  N   UNL d   1       3.246  -5.701   0.000  0.00  0.00    -0.059 NA
ATOM     12  C   UNL d   1       4.743  -7.193   0.000  0.00  0.00     0.118 A 
ATOM     13  C   UNL d   1       3.246  -7.355   0.000  0.00  0.00     0.100 A 
ATOM     14  C   UNL d   1       2.537  -6.944   0.000  0.00  0.00     0.041 A 
ATOM     15  C   UNL d   1       2.537  -6.124   0.000  0.00  0.00     0.119 A 
ENDBRANCH   1   7
BRANCH   3  16
ATOM     16  N   UNL d   1       7.703  -7.939   0.000  0.00  0.00    -0.208 NA
ATOM     17  C   UNL d   1       7.293  -8.657   0.000  0.00  0.00     0.275 C 
ATOM     18  O   UNL d   1       6.472  -8.661   0.000  0.00  0.00    -0.266 OA
BRANCH  17  19
ATOM     19  C   UNL d   1       7.703  -9.366   0.000  0.00  0.00     0.036 C 
BRANCH  19  20
ATOM     20  C   UNL d   1       8.524  -9.357   0.000  0.00  0.00     0.023 C 
ATOM     21  C   UNL d   1       8.748 -10.162   0.000  0.00  0.00     0.004 C 
ATOM     22  C   UNL d   1       8.736  -8.570   0.000  0.00  0.00     0.004 C 
ATOM     23  C   UNL d   1       9.353  -9.353   0.000  0.00  0.00     0.004 C 
ENDBRANCH  19  20
ENDBRANCH  17  19
ENDBRANCH   3  16
TORSDOF 4
