REMARK  5 active torsions:
REMARK  status: ('A' for Active; 'I' for Inactive)
REMARK       I    between atoms: N_4  and  C_1 
REMARK       I    between atoms: N_8  and  C_1 
REMARK    1  A    between atoms: C_2  and  C_3 
REMARK    2  A    between atoms: C_5  and  C_2 
REMARK    3  A    between atoms: N_6  and  C_2 
REMARK    4  A    between atoms: C_3  and  N_4 
REMARK    5  A    between atoms: C_12  and  N_8 
ROOT
ATOM      1  C   UNL d   1       1.679  -1.492   0.000  0.00  0.00     0.103 C 
ATOM      2  C   UNL d   1       1.517  -0.692   0.000  0.00  0.00     0.022 C 
ENDROOT
BRANCH   1   3
ATOM      3  C   UNL d   1       1.067  -2.042   0.000  0.00  0.00     0.088 C 
BRANCH   3   4
ATOM      4  C   UNL d   1       0.287  -1.788   0.000  0.00  0.00     0.047 A 
ATOM      5  S   UNL d   1      -0.383  -2.267   0.000  0.00  0.00    -0.085 SA
ATOM      6  C   UNL d   1      -1.050  -1.779   0.000  0.00  0.00     0.035 A 
ATOM      7  C   UNL d   1      -0.796  -0.992   0.000  0.00  0.00     0.007 A 
ATOM      8  C   UNL d   1       0.029  -1.000   0.000  0.00  0.00     0.009 A 
ENDBRANCH   3   4
BRANCH   3   9
ATOM      9  N   UNL d   1       1.238  -2.854   0.000  0.00  0.00    -0.299 N 
ATOM     10  C   UNL d   1       2.017  -3.113   0.000  0.00  0.00     0.107 A 
ATOM     11  C   UNL d   1       2.188  -3.917   0.000  0.00  0.00     0.142 A 
ATOM     12  O   UNL d   1       1.575  -4.480   0.000  0.00  0.00    -0.300 OA
ATOM     13  C   UNL d   1       0.788  -4.213   0.000  0.00  0.00     0.142 A 
ATOM     14  C   UNL d   1       0.617  -3.405   0.000  0.00  0.00     0.107 A 
ENDBRANCH   3   9
ENDBRANCH   1   3
BRANCH   1  15
ATOM     15  N   UNL d   1       2.467  -1.754   0.000  0.00  0.00    -0.190 NA
ATOM     16  C   UNL d   1       3.079  -1.204   0.000  0.00  0.00     0.369 C 
ATOM     17  N   UNL d   1       3.863  -1.467   0.000  0.00  0.00    -0.191 NA
ATOM     18  O   UNL d   1       2.917  -0.400   0.000  0.00  0.00    -0.242 OA
BRANCH  17  19
ATOM     19  C   UNL d   1       4.030  -2.275   0.000  0.00  0.00     0.086 A 
ATOM     20  C   UNL d   1       4.813  -2.530   0.000  0.00  0.00     0.019 A 
ATOM     21  C   UNL d   1       4.980  -3.329   0.000  0.00  0.00     0.002 A 
ATOM     22  C   UNL d   1       5.767  -3.592   0.000  0.00  0.00     0.000 C 
ATOM     23  C   UNL d   1       4.363  -3.888   0.000  0.00  0.00     0.000 A 
ATOM     24  C   UNL d   1       3.580  -3.630   0.000  0.00  0.00     0.002 A 
ATOM     25  C   UNL d   1       3.413  -2.817   0.000  0.00  0.00     0.019 A 
ENDBRANCH  17  19
ENDBRANCH   1  15
TORSDOF 5
