REMARK  5 active torsions:
REMARK  status: ('A' for Active; 'I' for Inactive)
REMARK    1  A    between atoms: C_14  and  N_3 
REMARK    2  A    between atoms: C_13  and  N_7 
REMARK    3  A    between atoms: C_10  and  C_13 
REMARK       I    between atoms: N_11  and  C_10 
REMARK    4  A    between atoms: C_21  and  N_12 
REMARK    5  A    between atoms: C_22  and  C_14 
ROOT
ATOM      1  C   UNL d   1      -6.301   3.266   0.000  0.00  0.00     0.191 A 
ATOM      2  C   UNL d   1      -6.301   4.099   0.000  0.00  0.00     0.196 A 
ATOM      3  N   UNL d   1      -7.093   3.019   0.000  0.00  0.00    -0.191 N 
ATOM      4  N   UNL d   1      -5.592   2.862   0.000  0.00  0.00    -0.204 NA
ATOM      5  N   UNL d   1      -7.093   4.346   0.000  0.00  0.00    -0.122 NA
ATOM      6  N   UNL d   1      -7.563   3.687   0.000  0.00  0.00    -0.058 NA
ATOM      7  N   UNL d   1      -4.874   4.099   0.000  0.00  0.00    -0.249 N 
ATOM      8  C   UNL d   1      -5.592   4.503   0.000  0.00  0.00     0.289 A 
ATOM      9  C   UNL d   1      -4.874   3.266   0.000  0.00  0.00     0.187 A 
ATOM     10  O   UNL d   1      -5.592   5.336   0.000  0.00  0.00    -0.265 OA
ENDROOT
BRANCH   7  11
ATOM     11  C   UNL d   1      -4.149   4.503   0.000  0.00  0.00     0.146 C 
BRANCH  11  12
ATOM     12  C   UNL d   1      -3.431   4.083   0.000  0.00  0.00     0.283 C 
ATOM     13  N   UNL d   1      -2.722   4.495   0.000  0.00  0.00    -0.268 N 
ATOM     14  C   UNL d   1      -2.738   5.320   0.000  0.00  0.00     0.102 A 
ATOM     15  C   UNL d   1      -2.021   4.083   0.000  0.00  0.00     0.102 A 
ATOM     16  C   UNL d   1      -2.021   5.732   0.000  0.00  0.00     0.100 A 
ATOM     17  N   UNL d   1      -1.303   5.320   0.000  0.00  0.00    -0.301 N 
ATOM     18  C   UNL d   1      -1.303   4.495   0.000  0.00  0.00     0.100 A 
ATOM     19  O   UNL d   1      -3.439   3.258   0.000  0.00  0.00    -0.265 OA
BRANCH  17  20
ATOM     20  C   UNL d   1      -0.594   5.732   0.000  0.00  0.00     0.064 A 
ATOM     21  C   UNL d   1       0.107   5.320   0.000  0.00  0.00     0.018 A 
ATOM     22  C   UNL d   1       0.825   5.732   0.000  0.00  0.00     0.002 A 
ATOM     23  C   UNL d   1       0.825   6.557   0.000  0.00  0.00     0.000 A 
ATOM     24  C   UNL d   1       0.107   6.969   0.000  0.00  0.00     0.002 A 
ATOM     25  C   UNL d   1      -0.610   6.557   0.000  0.00  0.00     0.018 A 
ENDBRANCH  17  20
ENDBRANCH  11  12
ENDBRANCH   7  11
BRANCH   3  26
ATOM     26  C   UNL d   1      -7.365   2.227   0.000  0.00  0.00     0.104 C 
BRANCH  26  27
ATOM     27  C   UNL d   1      -8.182   2.070   0.000  0.00  0.00     0.019 A 
ATOM     28  C   UNL d   1      -8.726   2.689   0.000  0.00  0.00     0.002 A 
ATOM     29  C   UNL d   1      -9.518   2.515   0.000  0.00  0.00     0.000 A 
ATOM     30  C   UNL d   1      -9.790   1.748   0.000  0.00  0.00     0.000 A 
ATOM     31  C   UNL d   1      -9.229   1.113   0.000  0.00  0.00     0.000 A 
ATOM     32  C   UNL d   1      -8.429   1.287   0.000  0.00  0.00     0.002 A 
ENDBRANCH  26  27
ENDBRANCH   3  26
TORSDOF 5
