REMARK  11 active torsions:
REMARK  status: ('A' for Active; 'I' for Inactive)
REMARK    1  A    between atoms: C_2  and  N_1 
REMARK    2  A    between atoms: C_4  and  C_2 
REMARK    3  A    between atoms: C_5  and  C_2 
REMARK    4  A    between atoms: C_3  and  N_6 
REMARK    5  A    between atoms: N_15  and  C_3 
REMARK    6  A    between atoms: N_6  and  C_4 
REMARK    7  A    between atoms: C_16  and  N_7 
REMARK    8  A    between atoms: C_20  and  N_15 
REMARK    9  A    between atoms: C_19  and  C_16 
REMARK   10  A    between atoms: C_23  and  C_20 
REMARK   11  A    between atoms: C_22  and  C_23 
ROOT
ATOM      1  C   UNL d   1       5.530  -6.186   0.000  0.00  0.00     0.088 C 
ENDROOT
BRANCH   1   2
ATOM      2  N   UNL d   1       5.692  -6.995   0.000  0.00  0.00    -0.300 N 
ATOM      3  C   UNL d   1       6.476  -7.256   0.000  0.00  0.00     0.100 A 
ATOM      4  C   UNL d   1       6.638  -8.065   0.000  0.00  0.00     0.100 A 
ATOM      5  N   UNL d   1       6.024  -8.613   0.000  0.00  0.00    -0.300 N 
ATOM      6  C   UNL d   1       5.244  -8.351   0.000  0.00  0.00     0.100 A 
ATOM      7  C   UNL d   1       5.082  -7.542   0.000  0.00  0.00     0.100 A 
BRANCH   5   8
ATOM      8  C   UNL d   1       6.190  -9.421   0.000  0.00  0.00     0.080 C 
BRANCH   8   9
ATOM      9  C   UNL d   1       5.567  -9.969   0.000  0.00  0.00     0.018 A 
ATOM     10  C   UNL d   1       4.796  -9.712   0.000  0.00  0.00     0.002 A 
ATOM     11  C   UNL d   1       4.173 -10.255   0.000  0.00  0.00     0.000 A 
ATOM     12  C   UNL d   1       4.348 -11.056   0.000  0.00  0.00     0.000 A 
ATOM     13  C   UNL d   1       5.132 -11.326   0.000  0.00  0.00     0.000 A 
ATOM     14  C   UNL d   1       5.742 -10.766   0.000  0.00  0.00     0.002 A 
ENDBRANCH   8   9
ENDBRANCH   5   8
ENDBRANCH   1   2
BRANCH   1  15
ATOM     15  C   UNL d   1       6.140  -5.638   0.000  0.00  0.00     0.100 C 
ATOM     16  C   UNL d   1       5.966  -4.841   0.000  0.00  0.00     0.022 C 
BRANCH  15  17
ATOM     17  N   UNL d   1       6.912  -5.899   0.000  0.00  0.00    -0.216 NA
BRANCH  17  18
ATOM     18  C   UNL d   1       7.534  -5.352   0.000  0.00  0.00     0.221 C 
ATOM     19  S   UNL d   1       7.360  -4.547   0.000  0.00  0.00    -0.037 SA
BRANCH  18  20
ATOM     20  N   UNL d   1       8.306  -5.613   0.000  0.00  0.00    -0.216 NA
BRANCH  20  21
ATOM     21  C   UNL d   1       8.480  -6.414   0.000  0.00  0.00     0.102 C 
BRANCH  21  22
ATOM     22  C   UNL d   1       7.857  -6.961   0.000  0.00  0.00     0.021 C 
BRANCH  22  23
ATOM     23  C   UNL d   1       8.028  -7.758   0.000  0.00  0.00     0.002 A 
ATOM     24  C   UNL d   1       7.410  -8.306   0.000  0.00  0.00     0.000 A 
ATOM     25  C   UNL d   1       7.580  -9.114   0.000  0.00  0.00     0.000 A 
ATOM     26  C   UNL d   1       8.355  -9.372   0.000  0.00  0.00     0.000 A 
ATOM     27  C   UNL d   1       8.973  -8.816   0.000  0.00  0.00     0.000 A 
ATOM     28  C   UNL d   1       8.803  -8.019   0.000  0.00  0.00     0.000 A 
ENDBRANCH  22  23
ENDBRANCH  21  22
ENDBRANCH  20  21
ENDBRANCH  18  20
ENDBRANCH  17  18
ENDBRANCH  15  17
ENDBRANCH   1  15
BRANCH   1  29
ATOM     29  C   UNL d   1       4.746  -5.928   0.000  0.00  0.00     0.047 A 
ATOM     30  S   UNL d   1       4.074  -6.410   0.000  0.00  0.00    -0.085 SA
ATOM     31  C   UNL d   1       3.414  -5.924   0.000  0.00  0.00     0.035 A 
ATOM     32  C   UNL d   1       3.671  -5.140   0.000  0.00  0.00     0.007 A 
ATOM     33  C   UNL d   1       4.497  -5.144   0.000  0.00  0.00     0.009 A 
ENDBRANCH   1  29
TORSDOF 11
