REMARK  7 active torsions:
REMARK  status: ('A' for Active; 'I' for Inactive)
REMARK    1  A    between atoms: C_16  and  N_3 
REMARK    2  A    between atoms: C_15  and  N_8 
REMARK    3  A    between atoms: C_12  and  C_10 
REMARK    4  A    between atoms: C_11  and  N_14 
REMARK    5  A    between atoms: O_22  and  C_12 
REMARK    6  A    between atoms: C_13  and  C_15 
REMARK       I    between atoms: N_14  and  C_13 
REMARK    7  A    between atoms: C_28  and  O_22 
ROOT
ATOM      1  C   UNL d   1      -6.302   3.267   0.000  0.00  0.00     0.191 A 
ATOM      2  C   UNL d   1      -6.302   4.100   0.000  0.00  0.00     0.196 A 
ATOM      3  N   UNL d   1      -7.094   3.019   0.000  0.00  0.00    -0.193 N 
ATOM      4  N   UNL d   1      -7.565   3.688   0.000  0.00  0.00    -0.058 NA
ATOM      5  N   UNL d   1      -7.094   4.347   0.000  0.00  0.00    -0.122 NA
ATOM      6  N   UNL d   1      -5.593   2.862   0.000  0.00  0.00    -0.204 NA
ATOM      7  C   UNL d   1      -5.593   4.504   0.000  0.00  0.00     0.289 A 
ATOM      8  N   UNL d   1      -4.875   4.100   0.000  0.00  0.00    -0.249 N 
ATOM      9  C   UNL d   1      -4.875   3.267   0.000  0.00  0.00     0.187 A 
ATOM     10  O   UNL d   1      -5.593   5.337   0.000  0.00  0.00    -0.265 OA
ENDROOT
BRANCH   8  11
ATOM     11  C   UNL d   1      -4.149   4.504   0.000  0.00  0.00     0.147 C 
BRANCH  11  12
ATOM     12  C   UNL d   1      -3.432   4.083   0.000  0.00  0.00     0.297 C 
ATOM     13  N   UNL d   1      -2.722   4.496   0.000  0.00  0.00    -0.207 NA
ATOM     14  O   UNL d   1      -3.440   3.258   0.000  0.00  0.00    -0.264 OA
BRANCH  13  15
ATOM     15  C   UNL d   1      -2.005   4.083   0.000  0.00  0.00     0.090 A 
ATOM     16  C   UNL d   1      -1.303   4.496   0.000  0.00  0.00     0.081 A 
ATOM     17  C   UNL d   1      -0.586   4.083   0.000  0.00  0.00     0.007 A 
ATOM     18  C   UNL d   1      -0.586   3.258   0.000  0.00  0.00     0.000 A 
ATOM     19  C   UNL d   1      -1.287   2.846   0.000  0.00  0.00     0.002 A 
ATOM     20  C   UNL d   1      -1.996   3.258   0.000  0.00  0.00     0.019 A 
BRANCH  16  21
ATOM     21  C   UNL d   1      -1.303   5.321   0.000  0.00  0.00     0.302 C 
ATOM     22  O   UNL d   1      -2.021   5.733   0.000  0.00  0.00    -0.259 OA
BRANCH  21  23
ATOM     23  O   UNL d   1      -0.586   5.733   0.000  0.00  0.00    -0.271 OA
BRANCH  23  24
ATOM     24  C   UNL d   1       0.132   5.321   0.000  0.00  0.00     0.126 C 
ATOM     25  C   UNL d   1       0.841   5.733   0.000  0.00  0.00     0.029 C 
ENDBRANCH  23  24
ENDBRANCH  21  23
ENDBRANCH  16  21
ENDBRANCH  13  15
ENDBRANCH  11  12
ENDBRANCH   8  11
BRANCH   3  26
ATOM     26  C   UNL d   1      -7.391   2.268   0.000  0.00  0.00     0.086 A 
ATOM     27  C   UNL d   1      -6.872   1.609   0.000  0.00  0.00     0.019 A 
ATOM     28  C   UNL d   1      -7.177   0.858   0.000  0.00  0.00     0.002 A 
ATOM     29  C   UNL d   1      -8.010   0.734   0.000  0.00  0.00     0.000 A 
ATOM     30  C   UNL d   1      -8.505   1.378   0.000  0.00  0.00     0.002 A 
ATOM     31  C   UNL d   1      -8.332  -0.050   0.000  0.00  0.00     0.000 C 
ATOM     32  C   UNL d   1      -8.208   2.145   0.000  0.00  0.00     0.019 A 
ENDBRANCH   3  26
TORSDOF 7
