REMARK  4 active torsions:
REMARK  status: ('A' for Active; 'I' for Inactive)
REMARK    1  A    between atoms: N_8  and  S_1 
REMARK    2  A    between atoms: C_12  and  S_1 
REMARK    3  A    between atoms: C_5  and  C_9 
REMARK    4  A    between atoms: C_15  and  N_8 
ROOT
ATOM      1  C   UNL d   1       3.260   0.969   0.000  0.00  0.00     0.021 A 
ATOM      2  C   UNL d   1       4.496   0.258   0.000  0.00  0.00     0.094 A 
ATOM      3  C   UNL d   1       3.672   0.258   0.000  0.00  0.00     0.021 A 
ATOM      4  C   UNL d   1       3.660   1.693   0.000  0.00  0.00     0.002 A 
ATOM      5  C   UNL d   1       4.491   1.697   0.000  0.00  0.00     0.002 A 
ATOM      6  C   UNL d   1       4.916   0.981   0.000  0.00  0.00     0.020 A 
ENDROOT
BRANCH   2   7
ATOM      7  N   UNL d   1       4.907  -0.453   0.000  0.00  0.00    -0.158 NA
BRANCH   7   8
ATOM      8  S   UNL d   1       5.731  -0.449   0.000  0.00  0.00     0.285 S 
ATOM      9  O   UNL d   1       5.943   0.349   0.000  0.00  0.00    -0.198 OA
ATOM     10  O   UNL d   1       6.529  -0.229   0.000  0.00  0.00    -0.198 OA
BRANCH   8  11
ATOM     11  C   UNL d   1       6.142  -1.165   0.000  0.00  0.00     0.105 A 
ATOM     12  C   UNL d   1       5.731  -1.876   0.000  0.00  0.00     0.013 A 
ATOM     13  C   UNL d   1       6.142  -2.587   0.000  0.00  0.00     0.001 A 
ATOM     14  C   UNL d   1       6.974  -2.587   0.000  0.00  0.00     0.000 A 
ATOM     15  C   UNL d   1       7.378  -1.863   0.000  0.00  0.00     0.001 A 
ATOM     16  C   UNL d   1       6.966  -1.160   0.000  0.00  0.00     0.013 A 
ENDBRANCH   8  11
ENDBRANCH   7   8
ENDBRANCH   2   7
BRANCH   1  17
ATOM     17  C   UNL d   1       2.433   0.969   0.000  0.00  0.00     0.118 A 
ATOM     18  N   UNL d   1       1.938   1.630   0.000  0.00  0.00    -0.059 NA
ATOM     19  C   UNL d   1       1.160   1.368   0.000  0.00  0.00     0.735 A 
ATOM     20  N   UNL d   1       0.441   1.784   0.000  0.00  0.00    -0.059 NA
ATOM     21  N   UNL d   1       1.165   0.545   0.000  0.00  0.00    -0.136 N 
ATOM     22  C   UNL d   1      -0.270   1.368   0.000  0.00  0.00     0.119 A 
ATOM     23  C   UNL d   1      -0.270   0.545   0.000  0.00  0.00     0.041 A 
ATOM     24  C   UNL d   1       0.441   0.133   0.000  0.00  0.00     0.100 A 
ATOM     25  C   UNL d   1       1.950   0.295   0.000  0.00  0.00     0.118 A 
ENDBRANCH   1  17
TORSDOF 4
