REMARK  2 active torsions:
REMARK  status: ('A' for Active; 'I' for Inactive)
REMARK    1  A    between atoms: C_11  and  N_1 
REMARK    2  A    between atoms: C_16  and  C_11 
ROOT
ATOM      1  C   UNL d   1       4.646  -3.696   0.000  0.00  0.00     0.086 C 
ENDROOT
BRANCH   1   2
ATOM      2  N   UNL d   1       5.362  -4.100   0.000  0.00  0.00    -0.240 N 
ATOM      3  C   UNL d   1       5.449  -4.920   0.000  0.00  0.00     0.267 A 
ATOM      4  C   UNL d   1       6.261  -5.087   0.000  0.00  0.00     0.061 A 
ATOM      5  O   UNL d   1       4.845  -5.474   0.000  0.00  0.00    -0.267 OA
ATOM      6  C   UNL d   1       6.673  -5.794   0.000  0.00  0.00     0.005 A 
ATOM      7  C   UNL d   1       6.669  -4.371   0.000  0.00  0.00     0.061 A 
ATOM      8  C   UNL d   1       7.497  -5.786   0.000  0.00  0.00     0.000 A 
ATOM      9  C   UNL d   1       7.905  -5.074   0.000  0.00  0.00     0.000 A 
ATOM     10  C   UNL d   1       7.484  -4.362   0.000  0.00  0.00     0.005 A 
ATOM     11  C   UNL d   1       6.111  -3.763   0.000  0.00  0.00     0.267 A 
ATOM     12  O   UNL d   1       6.282  -2.951   0.000  0.00  0.00    -0.267 OA
ENDBRANCH   1   2
BRANCH   1  13
ATOM     13  C   UNL d   1       3.925  -4.113   0.000  0.00  0.00     0.018 A 
ATOM     14  C   UNL d   1       3.214  -3.696   0.000  0.00  0.00     0.003 A 
ATOM     15  C   UNL d   1       2.489  -4.121   0.000  0.00  0.00     0.018 A 
ATOM     16  C   UNL d   1       1.703  -3.871   0.000  0.00  0.00     0.019 A 
ATOM     17  C   UNL d   1       2.498  -4.949   0.000  0.00  0.00     0.064 A 
ATOM     18  C   UNL d   1       1.216  -4.537   0.000  0.00  0.00     0.064 A 
ATOM     19  C   UNL d   1       0.391  -4.537   0.000  0.00  0.00     0.019 C 
ATOM     20  N   UNL d   1       1.711  -5.199   0.000  0.00  0.00    -0.304 N 
ATOM     21  C   UNL d   1       1.453  -5.994   0.000  0.00  0.00     0.099 C 
ATOM     22  C   UNL d   1       3.214  -5.362   0.000  0.00  0.00     0.018 A 
ATOM     23  C   UNL d   1       3.925  -4.949   0.000  0.00  0.00     0.003 A 
ENDBRANCH   1  13
TORSDOF 2
