REMARK  9 active torsions:
REMARK  status: ('A' for Active; 'I' for Inactive)
REMARK    1  A    between atoms: C_14  and  N_1 
REMARK    2  A    between atoms: C_8  and  C_2 
REMARK    3  A    between atoms: C_3  and  N_11 
REMARK    4  A    between atoms: S_16  and  C_4 
REMARK    5  A    between atoms: C_10  and  C_8 
REMARK       I    between atoms: N_11  and  C_17 
REMARK    6  A    between atoms: C_23  and  C_14 
REMARK    7  A    between atoms: C_22  and  S_16 
REMARK    8  A    between atoms: C_17  and  C_22 
REMARK    9  A    between atoms: C_25  and  C_23 
ROOT
ATOM      1  N   UNL d   1      -1.325   1.833   0.000  0.00  0.00    -0.268 N 
ATOM      2  C   UNL d   1      -1.983   2.333   0.000  0.00  0.00     0.172 A 
ATOM      3  C   UNL d   1      -0.646   2.300   0.000  0.00  0.00     0.201 A 
ATOM      4  N   UNL d   1      -1.712   3.108   0.000  0.00  0.00    -0.128 NA
ATOM      5  N   UNL d   1      -0.887   3.096   0.000  0.00  0.00    -0.121 NA
ENDROOT
BRANCH   3   6
ATOM      6  S   UNL d   1       0.129   2.033   0.000  0.00  0.00    -0.043 SA
BRANCH   6   7
ATOM      7  C   UNL d   1       0.754   2.571   0.000  0.00  0.00     0.101 C 
BRANCH   7   8
ATOM      8  C   UNL d   1       0.600   3.383   0.000  0.00  0.00     0.288 C 
ATOM      9  N   UNL d   1      -0.175   3.650   0.000  0.00  0.00    -0.182 NA
ATOM     10  O   UNL d   1       1.225   3.921   0.000  0.00  0.00    -0.265 OA
BRANCH   9  11
ATOM     11  C   UNL d   1      -0.333   4.454   0.000  0.00  0.00     0.197 A 
ATOM     12  N   UNL d   1       0.229   5.062   0.000  0.00  0.00    -0.221 NA
ATOM     13  C   UNL d   1      -0.171   5.779   0.000  0.00  0.00     0.090 A 
ATOM     14  C   UNL d   1       0.092   6.554   0.000  0.00  0.00     0.020 A 
ATOM     15  C   UNL d   1      -0.983   5.625   0.000  0.00  0.00     0.050 A 
ATOM     16  C   UNL d   1      -0.446   7.179   0.000  0.00  0.00     0.002 A 
ATOM     17  C   UNL d   1      -1.258   7.017   0.000  0.00  0.00     0.001 A 
ATOM     18  C   UNL d   1      -1.521   6.250   0.000  0.00  0.00     0.008 A 
ATOM     19  S   UNL d   1      -1.096   4.804   0.000  0.00  0.00    -0.047 SA
ENDBRANCH   9  11
ENDBRANCH   7   8
ENDBRANCH   6   7
ENDBRANCH   3   6
BRANCH   1  20
ATOM     20  C   UNL d   1      -1.346   1.008   0.000  0.00  0.00     0.084 C 
BRANCH  20  21
ATOM     21  C   UNL d   1      -0.633   0.575   0.000  0.00  0.00     0.019 C 
BRANCH  21  22
ATOM     22  C   UNL d   1      -0.650  -0.254   0.000  0.00  0.00     0.002 A 
ATOM     23  C   UNL d   1      -1.371  -0.642   0.000  0.00  0.00     0.000 A 
ATOM     24  C   UNL d   1      -1.383  -1.467   0.000  0.00  0.00     0.000 A 
ATOM     25  C   UNL d   1      -0.671  -1.892   0.000  0.00  0.00     0.000 A 
ATOM     26  C   UNL d   1       0.054  -1.492   0.000  0.00  0.00     0.000 A 
ATOM     27  C   UNL d   1       0.054  -0.667   0.000  0.00  0.00     0.000 A 
ENDBRANCH  21  22
ENDBRANCH  20  21
ENDBRANCH   1  20
BRANCH   2  28
ATOM     28  C   UNL d   1      -2.775   2.096   0.000  0.00  0.00     0.057 C 
BRANCH  28  29
ATOM     29  C   UNL d   1      -3.375   2.658   0.000  0.00  0.00     0.067 A 
ATOM     30  N   UNL d   1      -4.188   2.508   0.000  0.00  0.00    -0.303 N 
ATOM     31  C   UNL d   1      -4.583   3.233   0.000  0.00  0.00     0.080 A 
ATOM     32  C   UNL d   1      -4.537   1.762   0.000  0.00  0.00     0.100 C 
ATOM     33  C   UNL d   1      -4.021   3.833   0.000  0.00  0.00     0.021 A 
ATOM     34  C   UNL d   1      -3.275   3.483   0.000  0.00  0.00     0.019 A 
ENDBRANCH  28  29
ENDBRANCH   2  28
TORSDOF 9
