REMARK  4 active torsions:
REMARK  status: ('A' for Active; 'I' for Inactive)
REMARK    1  A    between atoms: C_14  and  N_3 
REMARK    2  A    between atoms: C_13  and  N_7 
REMARK       I    between atoms: N_9  and  C_10 
REMARK    3  A    between atoms: C_10  and  C_13 
REMARK    4  A    between atoms: C_19  and  C_14 
ROOT
ATOM      1  C   UNL d   1      -1.314   5.279   0.000  0.00  0.00     0.191 A 
ATOM      2  C   UNL d   1      -2.033   4.875   0.000  0.00  0.00     0.196 A 
ATOM      3  N   UNL d   1      -0.711   4.726   0.000  0.00  0.00    -0.191 N 
ATOM      4  N   UNL d   1      -1.305   6.114   0.000  0.00  0.00    -0.204 NA
ATOM      5  N   UNL d   1      -1.859   4.065   0.000  0.00  0.00    -0.122 NA
ATOM      6  N   UNL d   1      -1.041   3.982   0.000  0.00  0.00    -0.058 NA
ATOM      7  N   UNL d   1      -2.743   6.114   0.000  0.00  0.00    -0.249 N 
ATOM      8  C   UNL d   1      -2.743   5.279   0.000  0.00  0.00     0.289 A 
ATOM      9  C   UNL d   1      -2.024   6.535   0.000  0.00  0.00     0.187 A 
ATOM     10  O   UNL d   1      -3.462   4.875   0.000  0.00  0.00    -0.265 OA
ENDROOT
BRANCH   7  11
ATOM     11  C   UNL d   1      -3.445   6.535   0.000  0.00  0.00     0.146 C 
BRANCH  11  12
ATOM     12  C   UNL d   1      -3.462   7.353   0.000  0.00  0.00     0.283 C 
ATOM     13  N   UNL d   1      -4.181   7.774   0.000  0.00  0.00    -0.272 N 
ATOM     14  C   UNL d   1      -4.899   7.353   0.000  0.00  0.00     0.067 A 
ATOM     15  C   UNL d   1      -4.181   8.584   0.000  0.00  0.00     0.083 A 
ATOM     16  C   UNL d   1      -5.618   7.774   0.000  0.00  0.00     0.016 A 
ATOM     17  C   UNL d   1      -4.908   6.535   0.000  0.00  0.00     0.018 A 
ATOM     18  C   UNL d   1      -6.337   7.353   0.000  0.00  0.00     0.001 A 
ATOM     19  C   UNL d   1      -5.602   8.584   0.000  0.00  0.00     0.003 A 
ATOM     20  C   UNL d   1      -6.337   6.535   0.000  0.00  0.00     0.000 A 
ATOM     21  C   UNL d   1      -5.618   6.114   0.000  0.00  0.00     0.002 A 
ATOM     22  C   UNL d   1      -4.899   9.006   0.000  0.00  0.00     0.019 A 
ATOM     23  O   UNL d   1      -2.743   7.774   0.000  0.00  0.00    -0.265 OA
ENDBRANCH  11  12
ENDBRANCH   7  11
BRANCH   3  24
ATOM     24  C   UNL d   1       0.099   4.899   0.000  0.00  0.00     0.104 C 
BRANCH  24  25
ATOM     25  C   UNL d   1       0.355   5.668   0.000  0.00  0.00     0.019 A 
ATOM     26  C   UNL d   1      -0.190   6.287   0.000  0.00  0.00     0.002 A 
ATOM     27  C   UNL d   1       0.074   7.056   0.000  0.00  0.00     0.000 A 
ATOM     28  C   UNL d   1       0.876   7.229   0.000  0.00  0.00     0.000 A 
ATOM     29  C   UNL d   1       1.421   6.610   0.000  0.00  0.00     0.000 A 
ATOM     30  C   UNL d   1       1.165   5.841   0.000  0.00  0.00     0.002 A 
ENDBRANCH  24  25
ENDBRANCH   3  24
TORSDOF 4
