REMARK  9 active torsions:
REMARK  status: ('A' for Active; 'I' for Inactive)
REMARK    1  A    between atoms: C_9  and  N_1 
REMARK    2  A    between atoms: C_6  and  C_2 
REMARK    3  A    between atoms: S_11  and  C_3 
REMARK    4  A    between atoms: C_7  and  C_6 
REMARK    5  A    between atoms: C_20  and  C_9 
REMARK       I    between atoms: N_10  and  C_12 
REMARK    6  A    between atoms: C_13  and  N_10 
REMARK    7  A    between atoms: C_19  and  S_11 
REMARK    8  A    between atoms: C_12  and  C_19 
REMARK    9  A    between atoms: C_23  and  C_20 
ROOT
ATOM      1  N   UNL d   1      -1.325   1.833   0.000  0.00  0.00    -0.268 N 
ATOM      2  C   UNL d   1      -1.983   2.333   0.000  0.00  0.00     0.172 A 
ATOM      3  C   UNL d   1      -0.646   2.300   0.000  0.00  0.00     0.201 A 
ATOM      4  N   UNL d   1      -1.712   3.108   0.000  0.00  0.00    -0.128 NA
ATOM      5  N   UNL d   1      -0.887   3.095   0.000  0.00  0.00    -0.121 NA
ENDROOT
BRANCH   3   6
ATOM      6  S   UNL d   1       0.129   2.033   0.000  0.00  0.00    -0.043 SA
BRANCH   6   7
ATOM      7  C   UNL d   1       0.754   2.571   0.000  0.00  0.00     0.101 C 
BRANCH   7   8
ATOM      8  C   UNL d   1       0.600   3.383   0.000  0.00  0.00     0.286 C 
ATOM      9  N   UNL d   1      -0.183   3.645   0.000  0.00  0.00    -0.205 NA
ATOM     10  O   UNL d   1       1.217   3.925   0.000  0.00  0.00    -0.265 OA
BRANCH   9  11
ATOM     11  C   UNL d   1      -0.338   4.441   0.000  0.00  0.00     0.112 A 
ATOM     12  C   UNL d   1      -1.121   4.699   0.000  0.00  0.00     0.158 A 
ATOM     13  F   UNL d   1      -1.746   4.154   0.000  0.00  0.00    -0.203 F 
ATOM     14  C   UNL d   1      -1.296   5.504   0.000  0.00  0.00     0.031 A 
ATOM     15  C   UNL d   1      -0.671   6.053   0.000  0.00  0.00     0.002 A 
ATOM     16  C   UNL d   1       0.113   5.791   0.000  0.00  0.00     0.002 A 
ATOM     17  C   UNL d   1       0.275   4.979   0.000  0.00  0.00     0.021 A 
ENDBRANCH   9  11
ENDBRANCH   7   8
ENDBRANCH   6   7
ENDBRANCH   3   6
BRANCH   1  18
ATOM     18  C   UNL d   1      -1.346   1.008   0.000  0.00  0.00     0.084 C 
BRANCH  18  19
ATOM     19  C   UNL d   1      -0.633   0.575   0.000  0.00  0.00     0.019 C 
BRANCH  19  20
ATOM     20  C   UNL d   1      -0.650  -0.254   0.000  0.00  0.00     0.002 A 
ATOM     21  C   UNL d   1      -1.371  -0.642   0.000  0.00  0.00     0.000 A 
ATOM     22  C   UNL d   1      -1.383  -1.466   0.000  0.00  0.00     0.000 A 
ATOM     23  C   UNL d   1      -0.671  -1.891   0.000  0.00  0.00     0.000 A 
ATOM     24  C   UNL d   1       0.054  -1.492   0.000  0.00  0.00     0.000 A 
ATOM     25  C   UNL d   1       0.054  -0.667   0.000  0.00  0.00     0.000 A 
ENDBRANCH  19  20
ENDBRANCH  18  19
ENDBRANCH   1  18
BRANCH   2  26
ATOM     26  C   UNL d   1      -2.775   2.096   0.000  0.00  0.00     0.057 C 
BRANCH  26  27
ATOM     27  C   UNL d   1      -3.375   2.658   0.000  0.00  0.00     0.067 A 
ATOM     28  N   UNL d   1      -4.187   2.508   0.000  0.00  0.00    -0.303 N 
ATOM     29  C   UNL d   1      -4.583   3.233   0.000  0.00  0.00     0.080 A 
ATOM     30  C   UNL d   1      -4.537   1.762   0.000  0.00  0.00     0.100 C 
ATOM     31  C   UNL d   1      -4.020   3.833   0.000  0.00  0.00     0.021 A 
ATOM     32  C   UNL d   1      -3.275   3.483   0.000  0.00  0.00     0.019 A 
ENDBRANCH  26  27
ENDBRANCH   2  26
TORSDOF 9
