REMARK  5 active torsions:
REMARK  status: ('A' for Active; 'I' for Inactive)
REMARK    1  A    between atoms: C_9  and  N_1 
REMARK    2  A    between atoms: C_2  and  C_9 
REMARK    3  A    between atoms: S_14  and  C_5 
REMARK    4  A    between atoms: C_12  and  C_16 
REMARK       I    between atoms: N_13  and  C_12 
REMARK    5  A    between atoms: C_16  and  S_14 
ROOT
ATOM      1  C   UNL d   1      -2.361   1.345   0.000  0.00  0.00     0.189 A 
ATOM      2  N   UNL d   1      -1.753   0.796   0.000  0.00  0.00    -0.265 N 
ATOM      3  C   UNL d   1      -1.039   1.208   0.000  0.00  0.00     0.202 A 
ATOM      4  N   UNL d   1      -2.027   2.096   0.000  0.00  0.00    -0.126 NA
ATOM      5  N   UNL d   1      -1.208   2.014   0.000  0.00  0.00    -0.121 NA
ATOM      6  C   UNL d   1      -1.826  -0.028   0.000  0.00  0.00     0.103 C 
ENDROOT
BRANCH   1   7
ATOM      7  C   UNL d   1      -3.139   1.094   0.000  0.00  0.00     0.123 C 
BRANCH   7   8
ATOM      8  N   UNL d   1      -3.757   1.643   0.000  0.00  0.00    -0.265 N 
ATOM      9  C   UNL d   1      -4.567   1.464   0.000  0.00  0.00     0.296 A 
ATOM     10  S   UNL d   1      -4.979   2.178   0.000  0.00  0.00    -0.025 SA
ATOM     11  O   UNL d   1      -4.897   0.709   0.000  0.00  0.00    -0.259 OA
ATOM     12  C   UNL d   1      -4.416   2.796   0.000  0.00  0.00     0.050 A 
ATOM     13  C   UNL d   1      -3.666   2.458   0.000  0.00  0.00     0.074 A 
ATOM     14  C   UNL d   1      -4.503   3.620   0.000  0.00  0.00     0.008 A 
ATOM     15  C   UNL d   1      -2.993   2.947   0.000  0.00  0.00     0.018 A 
ATOM     16  C   UNL d   1      -3.075   3.771   0.000  0.00  0.00     0.002 A 
ATOM     17  C   UNL d   1      -3.840   4.101   0.000  0.00  0.00     0.001 A 
ENDBRANCH   7   8
ENDBRANCH   1   7
BRANCH   3  18
ATOM     18  S   UNL d   1      -0.284   0.874   0.000  0.00  0.00    -0.043 SA
BRANCH  18  19
ATOM     19  C   UNL d   1       0.389   1.355   0.000  0.00  0.00     0.099 C 
BRANCH  19  20
ATOM     20  C   UNL d   1       1.144   1.016   0.000  0.00  0.00     0.271 C 
ATOM     21  N   UNL d   1       1.812   1.496   0.000  0.00  0.00    -0.272 N 
ATOM     22  C   UNL d   1       1.899   2.316   0.000  0.00  0.00     0.083 A 
ATOM     23  C   UNL d   1       2.558   1.162   0.000  0.00  0.00     0.083 A 
ATOM     24  C   UNL d   1       2.709   2.481   0.000  0.00  0.00     0.021 A 
ATOM     25  C   UNL d   1       3.107   1.771   0.000  0.00  0.00     0.021 A 
ATOM     26  O   UNL d   1       1.227   0.192   0.000  0.00  0.00    -0.266 OA
ENDBRANCH  19  20
ENDBRANCH  18  19
ENDBRANCH   3  18
TORSDOF 5
