REMARK  2 active torsions:
REMARK  status: ('A' for Active; 'I' for Inactive)
REMARK    1  A    between atoms: C_2  and  C_1 
REMARK       I    between atoms: N_3  and  C_2 
REMARK    2  A    between atoms: C_6  and  N_3 
ROOT
ATOM      1  C   UNL d   1      -3.494   2.007   0.000  0.00  0.00     0.303 C 
ATOM      2  N   UNL d   1      -3.668   1.195   0.000  0.00  0.00    -0.206 NA
ATOM      3  O   UNL d   1      -4.106   2.557   0.000  0.00  0.00    -0.263 OA
ENDROOT
BRANCH   2   4
ATOM      4  C   UNL d   1      -4.456   0.945   0.000  0.00  0.00     0.086 A 
ATOM      5  C   UNL d   1      -5.068   1.507   0.000  0.00  0.00     0.031 A 
ATOM      6  C   UNL d   1      -5.846   1.245   0.000  0.00  0.00     0.059 A 
ATOM      7 CL   UNL d   1      -6.450   1.807   0.000  0.00  0.00    -0.082 Cl
ATOM      8  C   UNL d   1      -6.013   0.446   0.000  0.00  0.00     0.011 A 
ATOM      9  C   UNL d   1      -5.418  -0.112   0.000  0.00  0.00     0.002 A 
ATOM     10  C   UNL d   1      -4.630   0.137   0.000  0.00  0.00     0.018 A 
ATOM     11  C   UNL d   1      -4.031  -0.412   0.000  0.00  0.00     0.002 C 
ENDBRANCH   2   4
BRANCH   1  12
ATOM     12  C   UNL d   1      -2.707   2.257   0.000  0.00  0.00     0.176 A 
ATOM     13  C   UNL d   1      -2.449   3.044   0.000  0.00  0.00     0.110 A 
ATOM     14  N   UNL d   1      -1.624   3.044   0.000  0.00  0.00    -0.233 NA
ATOM     15  C   UNL d   1      -2.932   3.706   0.000  0.00  0.00     0.023 C 
ATOM     16  C   UNL d   1      -1.370   2.249   0.000  0.00  0.00     0.259 A 
ATOM     17  O   UNL d   1      -2.045   1.770   0.000  0.00  0.00    -0.296 OA
ENDBRANCH   1  12
TORSDOF 2
