REMARK  6 active torsions:
REMARK  status: ('A' for Active; 'I' for Inactive)
REMARK    1  A    between atoms: C_9  and  C_1 
REMARK    2  A    between atoms: N_4  and  C_2 
REMARK       I    between atoms: C_5  and  N_4 
REMARK    3  A    between atoms: C_7  and  C_5 
REMARK    4  A    between atoms: O_13  and  C_9 
REMARK    5  A    between atoms: O_16  and  C_11 
REMARK    6  A    between atoms: C_19  and  O_13 
ROOT
ATOM      1  C   UNL d   1      -1.775   0.814   0.000  0.00  0.00     0.181 A 
ATOM      2  C   UNL d   1      -2.038   1.603   0.000  0.00  0.00     0.115 A 
ATOM      3  O   UNL d   1      -2.451   0.334   0.000  0.00  0.00    -0.300 OA
ATOM      4  C   UNL d   1      -2.856   1.599   0.000  0.00  0.00     0.043 A 
ATOM      5  C   UNL d   1      -3.115   0.814   0.000  0.00  0.00     0.102 A 
ATOM      6  C   UNL d   1      -3.407   2.213   0.000  0.00  0.00     0.004 A 
ATOM      7  C   UNL d   1      -3.917   0.647   0.000  0.00  0.00     0.025 A 
ATOM      8  C   UNL d   1      -4.218   2.042   0.000  0.00  0.00     0.000 A 
ATOM      9  C   UNL d   1      -4.468   1.253   0.000  0.00  0.00     0.002 A 
ENDROOT
BRANCH   2  10
ATOM     10  N   UNL d   1      -1.549   2.276   0.000  0.00  0.00    -0.206 NA
ATOM     11  C   UNL d   1      -1.887   3.027   0.000  0.00  0.00     0.281 C 
ATOM     12  O   UNL d   1      -2.706   3.115   0.000  0.00  0.00    -0.265 OA
BRANCH  11  13
ATOM     13  C   UNL d   1      -1.403   3.691   0.000  0.00  0.00     0.080 A 
ATOM     14  C   UNL d   1      -0.572   3.604   0.000  0.00  0.00     0.099 A 
ATOM     15  C   UNL d   1      -0.100   4.272   0.000  0.00  0.00     0.024 A 
ATOM     16  C   UNL d   1      -0.447   5.028   0.000  0.00  0.00     0.002 A 
ATOM     17  C   UNL d   1      -1.261   5.103   0.000  0.00  0.00     0.000 A 
ATOM     18  C   UNL d   1      -1.741   4.439   0.000  0.00  0.00     0.007 A 
BRANCH  14  19
ATOM     19  O   UNL d   1      -0.246   2.852   0.000  0.00  0.00    -0.328 OA
ATOM     20  C   UNL d   1       0.576   2.781   0.000  0.00  0.00     0.181 C 
ENDBRANCH  14  19
ENDBRANCH  11  13
ENDBRANCH   2  10
BRANCH   1  21
ATOM     21  C   UNL d   1      -0.990   0.559   0.000  0.00  0.00     0.325 C 
ATOM     22  O   UNL d   1      -0.376   1.115   0.000  0.00  0.00    -0.257 OA
BRANCH  21  23
ATOM     23  O   UNL d   1      -0.823  -0.242   0.000  0.00  0.00    -0.269 OA
BRANCH  23  24
ATOM     24  C   UNL d   1      -0.033  -0.501   0.000  0.00  0.00     0.126 C 
ATOM     25  C   UNL d   1       0.581   0.058   0.000  0.00  0.00     0.029 C 
ENDBRANCH  23  24
ENDBRANCH  21  23
ENDBRANCH   1  21
TORSDOF 6
