REMARK  5 active torsions:
REMARK  status: ('A' for Active; 'I' for Inactive)
REMARK    1  A    between atoms: C_4  and  C_1 
REMARK    2  A    between atoms: N_5  and  C_2 
REMARK       I    between atoms: N_9  and  C_4 
REMARK       I    between atoms: C_7  and  N_5 
REMARK    3  A    between atoms: C_10  and  C_7 
REMARK    4  A    between atoms: C_21  and  N_9 
REMARK    5  A    between atoms: O_29  and  C_22 
ROOT
ATOM      1  C   UNL d   1      -1.776   0.815   0.000  0.00  0.00     0.175 A 
ATOM      2  C   UNL d   1      -2.039   1.605   0.000  0.00  0.00     0.114 A 
ATOM      3  O   UNL d   1      -2.453   0.334   0.000  0.00  0.00    -0.301 OA
ATOM      4  C   UNL d   1      -2.858   1.600   0.000  0.00  0.00     0.043 A 
ATOM      5  C   UNL d   1      -3.117   0.815   0.000  0.00  0.00     0.102 A 
ATOM      6  C   UNL d   1      -3.410   2.215   0.000  0.00  0.00     0.004 A 
ATOM      7  C   UNL d   1      -3.920   0.648   0.000  0.00  0.00     0.025 A 
ATOM      8  C   UNL d   1      -4.220   2.043   0.000  0.00  0.00     0.000 A 
ATOM      9  C   UNL d   1      -4.471   1.254   0.000  0.00  0.00     0.002 A 
ENDROOT
BRANCH   2  10
ATOM     10  N   UNL d   1      -1.550   2.277   0.000  0.00  0.00    -0.206 NA
ATOM     11  C   UNL d   1      -1.889   3.029   0.000  0.00  0.00     0.279 C 
ATOM     12  O   UNL d   1      -2.708   3.117   0.000  0.00  0.00    -0.265 OA
BRANCH  11  13
ATOM     13  C   UNL d   1      -1.404   3.694   0.000  0.00  0.00     0.060 A 
ATOM     14  C   UNL d   1      -0.589   3.606   0.000  0.00  0.00     0.031 A 
ATOM     15  C   UNL d   1      -0.109   4.266   0.000  0.00  0.00     0.119 A 
ATOM     16  O   UNL d   1       0.715   4.354   0.000  0.00  0.00    -0.300 OA
ATOM     17  C   UNL d   1      -0.447   5.019   0.000  0.00  0.00     0.119 A 
ATOM     18  C   UNL d   1       0.882   5.165   0.000  0.00  0.00     0.304 A 
ATOM     19  O   UNL d   1       0.163   5.570   0.000  0.00  0.00    -0.300 OA
ATOM     20  C   UNL d   1      -1.262   5.106   0.000  0.00  0.00     0.026 A 
ATOM     21  C   UNL d   1      -1.742   4.429   0.000  0.00  0.00     0.007 A 
ENDBRANCH  11  13
ENDBRANCH   2  10
BRANCH   1  22
ATOM     22  C   UNL d   1      -0.990   0.560   0.000  0.00  0.00     0.303 C 
ATOM     23  N   UNL d   1      -0.823  -0.242   0.000  0.00  0.00    -0.206 NA
ATOM     24  O   UNL d   1      -0.376   1.116   0.000  0.00  0.00    -0.263 OA
BRANCH  23  25
ATOM     25  C   UNL d   1      -0.038  -0.501   0.000  0.00  0.00     0.085 A 
ATOM     26  C   UNL d   1       0.568   0.059   0.000  0.00  0.00     0.021 A 
ATOM     27  C   UNL d   1       1.358  -0.192   0.000  0.00  0.00     0.026 A 
ATOM     28  C   UNL d   1       1.529  -1.003   0.000  0.00  0.00     0.094 A 
ATOM     29  C   UNL d   1       0.919  -1.554   0.000  0.00  0.00     0.026 A 
ATOM     30  C   UNL d   1       0.130  -1.295   0.000  0.00  0.00     0.021 A 
BRANCH  28  31
ATOM     31  O   UNL d   1       2.311  -1.258   0.000  0.00  0.00    -0.328 OA
ATOM     32  C   UNL d   1       2.921  -0.702   0.000  0.00  0.00     0.181 C 
ENDBRANCH  28  31
ENDBRANCH  23  25
ENDBRANCH   1  22
TORSDOF 5
