REMARK  4 active torsions:
REMARK  status: ('A' for Active; 'I' for Inactive)
REMARK    1  A    between atoms: C_9  and  N_1 
REMARK    2  A    between atoms: C_2  and  C_9 
REMARK    3  A    between atoms: S_13  and  C_5 
REMARK    4  A    between atoms: C_17  and  S_13 
ROOT
ATOM      1  N   UNL d   1      -3.749   1.639   0.000  0.00  0.00    -0.265 N 
ATOM      2  C   UNL d   1      -4.557   1.461   0.000  0.00  0.00     0.296 A 
ATOM      3  S   UNL d   1      -4.968   2.173   0.000  0.00  0.00    -0.025 SA
ATOM      4  C   UNL d   1      -3.657   2.452   0.000  0.00  0.00     0.074 A 
ATOM      5  C   UNL d   1      -4.406   2.790   0.000  0.00  0.00     0.050 A 
ATOM      6  O   UNL d   1      -4.886   0.708   0.000  0.00  0.00    -0.259 OA
ATOM      7  C   UNL d   1      -2.986   2.941   0.000  0.00  0.00     0.018 A 
ATOM      8  C   UNL d   1      -4.493   3.612   0.000  0.00  0.00     0.008 A 
ATOM      9  C   UNL d   1      -3.068   3.762   0.000  0.00  0.00     0.002 A 
ATOM     10  C   UNL d   1      -3.831   4.091   0.000  0.00  0.00     0.001 A 
ENDROOT
BRANCH   1  11
ATOM     11  C   UNL d   1      -3.132   1.091   0.000  0.00  0.00     0.123 C 
BRANCH  11  12
ATOM     12  C   UNL d   1      -2.356   1.342   0.000  0.00  0.00     0.189 A 
ATOM     13  N   UNL d   1      -1.749   0.794   0.000  0.00  0.00    -0.265 N 
ATOM     14  C   UNL d   1      -1.036   1.205   0.000  0.00  0.00     0.201 A 
ATOM     15  C   UNL d   1      -1.822  -0.027   0.000  0.00  0.00     0.103 C 
ATOM     16  N   UNL d   1      -1.205   2.009   0.000  0.00  0.00    -0.121 NA
ATOM     17  N   UNL d   1      -2.023   2.091   0.000  0.00  0.00    -0.126 NA
BRANCH  14  18
ATOM     18  S   UNL d   1      -0.283   0.872   0.000  0.00  0.00    -0.048 SA
BRANCH  18  19
ATOM     19  C   UNL d   1       0.388   1.351   0.000  0.00  0.00     0.038 C 
ATOM     20  C   UNL d   1       1.142   1.014   0.000  0.00  0.00     0.008 C 
ENDBRANCH  18  19
ENDBRANCH  14  18
ENDBRANCH  11  12
ENDBRANCH   1  11
TORSDOF 4
