REMARK  2 active torsions:
REMARK  status: ('A' for Active; 'I' for Inactive)
REMARK    1  A    between atoms: C_8  and  N_2 
REMARK    2  A    between atoms: N_7  and  C_4 
ROOT
ATOM      1  C   UNL d   1      -3.728   1.624   0.000  0.00  0.00     0.358 A 
ATOM      2  N   UNL d   1      -3.728   2.451   0.000  0.00  0.00    -0.226 N 
ATOM      3  N   UNL d   1      -3.019   1.215   0.000  0.00  0.00    -0.174 NA
ATOM      4  C   UNL d   1      -2.305   1.624   0.000  0.00  0.00     0.158 A 
ATOM      5  C   UNL d   1      -3.019   2.868   0.000  0.00  0.00     0.271 A 
ATOM      6  C   UNL d   1      -2.305   2.451   0.000  0.00  0.00     0.099 A 
ATOM      7  O   UNL d   1      -4.447   1.211   0.000  0.00  0.00    -0.244 OA
ATOM      8  O   UNL d   1      -3.019   3.695   0.000  0.00  0.00    -0.266 OA
ENDROOT
BRANCH   2   9
ATOM      9  C   UNL d   1      -4.442   2.864   0.000  0.00  0.00     0.071 A 
ATOM     10  C   UNL d   1      -5.157   2.451   0.000  0.00  0.00     0.019 A 
ATOM     11  C   UNL d   1      -5.870   2.856   0.000  0.00  0.00     0.013 A 
ATOM     12  C   UNL d   1      -5.870   3.683   0.000  0.00  0.00     0.058 A 
ATOM     13  C   UNL d   1      -5.157   4.088   0.000  0.00  0.00     0.013 A 
ATOM     14 CL   UNL d   1      -6.580   4.088   0.000  0.00  0.00    -0.082 Cl
ATOM     15  C   UNL d   1      -4.442   3.683   0.000  0.00  0.00     0.019 A 
ENDBRANCH   2   9
BRANCH   4  16
ATOM     16  N   UNL d   1      -1.591   1.215   0.000  0.00  0.00    -0.285 N 
ATOM     17  C   UNL d   1      -1.599   0.388   0.000  0.00  0.00     0.108 A 
ATOM     18  C   UNL d   1      -0.885  -0.025   0.000  0.00  0.00     0.142 A 
ATOM     19  O   UNL d   1      -0.159   0.388   0.000  0.00  0.00    -0.300 OA
ATOM     20  C   UNL d   1      -0.171   1.211   0.000  0.00  0.00     0.142 A 
ATOM     21  C   UNL d   1      -0.885   1.624   0.000  0.00  0.00     0.108 A 
ENDBRANCH   4  16
TORSDOF 2
