REMARK  3 active torsions:
REMARK  status: ('A' for Active; 'I' for Inactive)
REMARK    1  A    between atoms: C_9  and  N_1 
REMARK    2  A    between atoms: C_2  and  C_9 
REMARK    3  A    between atoms: S_13  and  C_5 
ROOT
ATOM      1  N   UNL d   1      -3.752   1.641   0.000  0.00  0.00    -0.265 N 
ATOM      2  C   UNL d   1      -4.561   1.462   0.000  0.00  0.00     0.296 A 
ATOM      3  S   UNL d   1      -4.972   2.175   0.000  0.00  0.00    -0.025 SA
ATOM      4  C   UNL d   1      -3.660   2.454   0.000  0.00  0.00     0.074 A 
ATOM      5  C   UNL d   1      -4.410   2.792   0.000  0.00  0.00     0.050 A 
ATOM      6  O   UNL d   1      -4.890   0.708   0.000  0.00  0.00    -0.259 OA
ATOM      7  C   UNL d   1      -2.989   2.943   0.000  0.00  0.00     0.018 A 
ATOM      8  C   UNL d   1      -4.497   3.615   0.000  0.00  0.00     0.008 A 
ATOM      9  C   UNL d   1      -3.071   3.766   0.000  0.00  0.00     0.002 A 
ATOM     10  C   UNL d   1      -3.834   4.095   0.000  0.00  0.00     0.001 A 
ENDROOT
BRANCH   1  11
ATOM     11  C   UNL d   1      -3.135   1.092   0.000  0.00  0.00     0.123 C 
BRANCH  11  12
ATOM     12  C   UNL d   1      -2.358   1.344   0.000  0.00  0.00     0.189 A 
ATOM     13  N   UNL d   1      -1.750   0.795   0.000  0.00  0.00    -0.265 N 
ATOM     14  C   UNL d   1      -1.037   1.206   0.000  0.00  0.00     0.197 A 
ATOM     15  C   UNL d   1      -1.823  -0.027   0.000  0.00  0.00     0.103 C 
ATOM     16  N   UNL d   1      -1.206   2.011   0.000  0.00  0.00    -0.122 NA
ATOM     17  N   UNL d   1      -2.025   2.093   0.000  0.00  0.00    -0.126 NA
BRANCH  14  18
ATOM     18  S   UNL d   1      -0.283   0.873   0.000  0.00  0.00    -0.074 SA
ATOM     19  C   UNL d   1       0.389   1.353   0.000  0.00  0.00     0.077 C 
ENDBRANCH  14  18
ENDBRANCH  11  12
ENDBRANCH   1  11
TORSDOF 3
