REMARK  3 active torsions:
REMARK  status: ('A' for Active; 'I' for Inactive)
REMARK    1  A    between atoms: C_4  and  C_1 
REMARK    2  A    between atoms: C_9  and  N_2 
REMARK    3  A    between atoms: C_8  and  C_13 
ROOT
ATOM      1  N   UNL d   1      -2.650   5.416   0.000  0.00  0.00    -0.273 N 
ATOM      2  C   UNL d   1      -3.930   4.995   0.000  0.00  0.00     0.056 A 
ATOM      3  C   UNL d   1      -2.650   4.582   0.000  0.00  0.00     0.265 A 
ATOM      4  C   UNL d   1      -3.434   5.664   0.000  0.00  0.00     0.086 A 
ATOM      5  C   UNL d   1      -3.434   4.326   0.000  0.00  0.00     0.066 A 
ATOM      6  O   UNL d   1      -1.973   4.103   0.000  0.00  0.00    -0.267 OA
ENDROOT
BRANCH   1   7
ATOM      7  C   UNL d   1      -1.973   5.862   0.000  0.00  0.00     0.067 A 
ATOM      8  C   UNL d   1      -2.023   6.679   0.000  0.00  0.00     0.021 A 
ATOM      9  C   UNL d   1      -1.337   7.150   0.000  0.00  0.00     0.073 A 
ATOM     10  C   UNL d   1      -0.586   6.778   0.000  0.00  0.00     0.004 A 
ATOM     11  C   UNL d   1      -0.537   5.961   0.000  0.00  0.00     0.001 A 
ATOM     12  C   UNL d   1      -1.230   5.499   0.000  0.00  0.00     0.018 A 
BRANCH   9  13
ATOM     13  C   UNL d   1      -1.403   7.959   0.000  0.00  0.00     0.419 C 
ATOM     14  F   UNL d   1      -1.478   8.793   0.000  0.00  0.00    -0.166 F 
ATOM     15  F   UNL d   1      -0.586   8.033   0.000  0.00  0.00    -0.166 F 
ATOM     16  F   UNL d   1      -2.229   7.901   0.000  0.00  0.00    -0.166 F 
ENDBRANCH   9  13
ENDBRANCH   1   7
BRANCH   2  17
ATOM     17  C   UNL d   1      -4.747   5.045   0.000  0.00  0.00     0.142 A 
ATOM     18  N   UNL d   1      -5.218   5.689   0.000  0.00  0.00    -0.227 NA
ATOM     19  C   UNL d   1      -6.011   5.441   0.000  0.00  0.00     0.099 A 
ATOM     20  C   UNL d   1      -6.712   5.862   0.000  0.00  0.00     0.021 A 
ATOM     21  C   UNL d   1      -6.011   4.623   0.000  0.00  0.00     0.076 A 
ATOM     22  C   UNL d   1      -7.431   5.441   0.000  0.00  0.00     0.002 A 
ATOM     23  C   UNL d   1      -7.431   4.623   0.000  0.00  0.00     0.002 A 
ATOM     24  C   UNL d   1      -6.712   4.202   0.000  0.00  0.00     0.019 A 
ATOM     25  N   UNL d   1      -5.218   4.376   0.000  0.00  0.00    -0.338 N 
ATOM     26  H   UNL d   1      -4.945   3.583   0.000  0.00  0.00     0.167 HD
ENDBRANCH   2  17
TORSDOF 3
