REMARK  4 active torsions:
REMARK  status: ('A' for Active; 'I' for Inactive)
REMARK    1  A    between atoms: C_2  and  C_1 
REMARK       I    between atoms: N_5  and  C_2 
REMARK    2  A    between atoms: C_10  and  N_5 
REMARK    3  A    between atoms: O_9  and  C_11 
REMARK    4  A    between atoms: C_12  and  O_9 
ROOT
ATOM      1  C   UNL d   1      -4.447   0.944   0.000  0.00  0.00     0.085 A 
ATOM      2  C   UNL d   1      -6.010   0.445   0.000  0.00  0.00     0.100 A 
ATOM      3  C   UNL d   1      -5.058   1.505   0.000  0.00  0.00     0.021 A 
ATOM      4  C   UNL d   1      -4.622   0.137   0.000  0.00  0.00     0.021 A 
ATOM      5  C   UNL d   1      -5.836   1.255   0.000  0.00  0.00     0.026 A 
ATOM      6  C   UNL d   1      -5.412  -0.104   0.000  0.00  0.00     0.026 A 
ENDROOT
BRANCH   1   7
ATOM      7  N   UNL d   1      -3.662   1.193   0.000  0.00  0.00    -0.206 NA
ATOM      8  C   UNL d   1      -3.487   2.003   0.000  0.00  0.00     0.303 C 
ATOM      9  O   UNL d   1      -4.098   2.552   0.000  0.00  0.00    -0.263 OA
BRANCH   8  10
ATOM     10  C   UNL d   1      -2.702   2.253   0.000  0.00  0.00     0.176 A 
ATOM     11  C   UNL d   1      -2.444   3.038   0.000  0.00  0.00     0.110 A 
ATOM     12  N   UNL d   1      -1.621   3.038   0.000  0.00  0.00    -0.233 NA
ATOM     13  C   UNL d   1      -2.926   3.699   0.000  0.00  0.00     0.023 C 
ATOM     14  C   UNL d   1      -1.367   2.244   0.000  0.00  0.00     0.259 A 
ATOM     15  O   UNL d   1      -2.041   1.766   0.000  0.00  0.00    -0.296 OA
ENDBRANCH   8  10
ENDBRANCH   1   7
BRANCH   2  16
ATOM     16  O   UNL d   1      -6.800   0.200   0.000  0.00  0.00    -0.307 OA
BRANCH  16  17
ATOM     17  C   UNL d   1      -7.399   0.748   0.000  0.00  0.00     0.100 A 
ATOM     18  C   UNL d   1      -7.212   1.554   0.000  0.00  0.00     0.025 A 
ATOM     19  C   UNL d   1      -7.822   2.107   0.000  0.00  0.00     0.002 A 
ATOM     20  C   UNL d   1      -8.620   1.866   0.000  0.00  0.00     0.000 A 
ATOM     21  C   UNL d   1      -8.795   1.043   0.000  0.00  0.00     0.002 A 
ATOM     22  C   UNL d   1      -8.172   0.507   0.000  0.00  0.00     0.025 A 
ENDBRANCH  16  17
ENDBRANCH   2  16
TORSDOF 4
