REMARK  4 active torsions:
REMARK  status: ('A' for Active; 'I' for Inactive)
REMARK    1  A    between atoms: C_4  and  C_1 
REMARK    2  A    between atoms: C_13  and  N_3 
REMARK    3  A    between atoms: C_11  and  N_5 
REMARK    4  A    between atoms: C_14  and  C_11 
ROOT
ATOM      1  C   UNL d   1      -3.918   4.980   0.000  0.00  0.00     0.057 A 
ATOM      2  N   UNL d   1      -2.642   5.399   0.000  0.00  0.00    -0.272 N 
ATOM      3  C   UNL d   1      -2.642   4.568   0.000  0.00  0.00     0.265 A 
ATOM      4  C   UNL d   1      -3.424   5.646   0.000  0.00  0.00     0.086 A 
ATOM      5  C   UNL d   1      -3.424   4.313   0.000  0.00  0.00     0.066 A 
ATOM      6  O   UNL d   1      -1.967   4.091   0.000  0.00  0.00    -0.267 OA
ENDROOT
BRANCH   1   7
ATOM      7  C   UNL d   1      -4.733   5.029   0.000  0.00  0.00     0.149 A 
ATOM      8  N   UNL d   1      -5.202   5.671   0.000  0.00  0.00    -0.227 NA
ATOM      9  C   UNL d   1      -5.992   5.424   0.000  0.00  0.00     0.099 A 
ATOM     10  C   UNL d   1      -6.692   5.844   0.000  0.00  0.00     0.021 A 
ATOM     11  C   UNL d   1      -5.992   4.609   0.000  0.00  0.00     0.083 A 
ATOM     12  C   UNL d   1      -7.408   5.424   0.000  0.00  0.00     0.002 A 
ATOM     13  C   UNL d   1      -7.408   4.609   0.000  0.00  0.00     0.002 A 
ATOM     14  C   UNL d   1      -6.692   4.189   0.000  0.00  0.00     0.019 A 
ATOM     15  N   UNL d   1      -5.202   4.362   0.000  0.00  0.00    -0.289 N 
BRANCH  15  16
ATOM     16  C   UNL d   1      -4.930   3.572   0.000  0.00  0.00     0.082 C 
ATOM     17  C   UNL d   1      -5.482   2.938   0.000  0.00  0.00     0.021 C 
ENDBRANCH  15  16
ENDBRANCH   1   7
BRANCH   2  18
ATOM     18  C   UNL d   1      -1.967   5.893   0.000  0.00  0.00     0.083 C 
BRANCH  18  19
ATOM     19  C   UNL d   1      -1.210   5.548   0.000  0.00  0.00     0.018 A 
ATOM     20  C   UNL d   1      -0.543   6.041   0.000  0.00  0.00     0.002 A 
ATOM     21  C   UNL d   1       0.206   5.696   0.000  0.00  0.00     0.000 A 
ATOM     22  C   UNL d   1       0.296   4.881   0.000  0.00  0.00     0.000 A 
ATOM     23  C   UNL d   1      -0.370   4.395   0.000  0.00  0.00     0.000 A 
ATOM     24  C   UNL d   1      -1.128   4.733   0.000  0.00  0.00     0.002 A 
ENDBRANCH  18  19
ENDBRANCH   2  18
TORSDOF 4
