REMARK  3 active torsions:
REMARK  status: ('A' for Active; 'I' for Inactive)
REMARK    1  A    between atoms: C_8  and  N_1 
REMARK    2  A    between atoms: N_7  and  C_2 
REMARK    3  A    between atoms: C_16  and  C_8 
ROOT
ATOM      1  N   UNL d   1      -3.728   2.451   0.000  0.00  0.00    -0.225 N 
ATOM      2  C   UNL d   1      -2.305   1.624   0.000  0.00  0.00     0.158 A 
ATOM      3  C   UNL d   1      -3.728   1.624   0.000  0.00  0.00     0.358 A 
ATOM      4  N   UNL d   1      -3.019   1.215   0.000  0.00  0.00    -0.174 NA
ATOM      5  C   UNL d   1      -3.019   2.868   0.000  0.00  0.00     0.271 A 
ATOM      6  C   UNL d   1      -2.305   2.451   0.000  0.00  0.00     0.099 A 
ATOM      7  O   UNL d   1      -4.447   1.211   0.000  0.00  0.00    -0.244 OA
ATOM      8  O   UNL d   1      -3.019   3.695   0.000  0.00  0.00    -0.266 OA
ENDROOT
BRANCH   1   9
ATOM      9  C   UNL d   1      -4.442   2.864   0.000  0.00  0.00     0.087 C 
BRANCH   9  10
ATOM     10  C   UNL d   1      -5.157   2.451   0.000  0.00  0.00     0.018 A 
ATOM     11  C   UNL d   1      -5.144   1.624   0.000  0.00  0.00     0.004 A 
ATOM     12  C   UNL d   1      -5.858   1.211   0.000  0.00  0.00     0.030 A 
ATOM     13  C   UNL d   1      -6.568   1.624   0.000  0.00  0.00     0.140 A 
ATOM     14  C   UNL d   1      -6.576   2.438   0.000  0.00  0.00     0.030 A 
ATOM     15  F   UNL d   1      -7.282   1.202   0.000  0.00  0.00    -0.204 F 
ATOM     16  C   UNL d   1      -5.870   2.856   0.000  0.00  0.00     0.004 A 
ENDBRANCH   9  10
ENDBRANCH   1   9
BRANCH   2  17
ATOM     17  N   UNL d   1      -1.591   1.215   0.000  0.00  0.00    -0.285 N 
ATOM     18  C   UNL d   1      -0.885   1.624   0.000  0.00  0.00     0.106 A 
ATOM     19  C   UNL d   1      -0.171   1.215   0.000  0.00  0.00     0.118 A 
ATOM     20  C   UNL d   1       0.543   1.628   0.000  0.00  0.00     0.028 C 
ATOM     21  O   UNL d   1      -0.159   0.397   0.000  0.00  0.00    -0.304 OA
ATOM     22  C   UNL d   1      -0.885  -0.029   0.000  0.00  0.00     0.118 A 
ATOM     23  C   UNL d   1      -1.599   0.384   0.000  0.00  0.00     0.106 A 
ATOM     24  C   UNL d   1      -0.877  -0.852   0.000  0.00  0.00     0.028 C 
ENDBRANCH   2  17
TORSDOF 3
