REMARK  2 active torsions:
REMARK  status: ('A' for Active; 'I' for Inactive)
REMARK    1  A    between atoms: C_5  and  C_1 
REMARK    2  A    between atoms: C_10  and  N_4 
ROOT
ATOM      1  N   UNL d   1      -2.644   5.402   0.000  0.00  0.00    -0.273 N 
ATOM      2  C   UNL d   1      -3.920   4.982   0.000  0.00  0.00     0.057 A 
ATOM      3  C   UNL d   1      -2.644   4.571   0.000  0.00  0.00     0.265 A 
ATOM      4  C   UNL d   1      -3.426   5.649   0.000  0.00  0.00     0.086 A 
ATOM      5  C   UNL d   1      -3.426   4.315   0.000  0.00  0.00     0.066 A 
ATOM      6  O   UNL d   1      -1.968   4.093   0.000  0.00  0.00    -0.267 OA
ENDROOT
BRANCH   2   7
ATOM      7  C   UNL d   1      -4.735   5.032   0.000  0.00  0.00     0.149 A 
ATOM      8  N   UNL d   1      -5.205   5.674   0.000  0.00  0.00    -0.227 NA
ATOM      9  C   UNL d   1      -5.995   5.427   0.000  0.00  0.00     0.099 A 
ATOM     10  C   UNL d   1      -6.695   5.847   0.000  0.00  0.00     0.021 A 
ATOM     11  C   UNL d   1      -5.995   4.612   0.000  0.00  0.00     0.083 A 
ATOM     12  C   UNL d   1      -7.412   5.427   0.000  0.00  0.00     0.002 A 
ATOM     13  C   UNL d   1      -7.412   4.612   0.000  0.00  0.00     0.002 A 
ATOM     14  C   UNL d   1      -6.695   4.192   0.000  0.00  0.00     0.019 A 
ATOM     15  N   UNL d   1      -5.205   4.365   0.000  0.00  0.00    -0.288 N 
ATOM     16  C   UNL d   1      -4.933   3.574   0.000  0.00  0.00     0.101 C 
ENDBRANCH   2   7
BRANCH   1  17
ATOM     17  C   UNL d   1      -1.968   5.847   0.000  0.00  0.00     0.067 A 
ATOM     18  C   UNL d   1      -2.018   6.662   0.000  0.00  0.00     0.018 A 
ATOM     19  C   UNL d   1      -1.334   7.132   0.000  0.00  0.00     0.001 A 
ATOM     20  C   UNL d   1      -1.400   7.939   0.000  0.00  0.00     0.000 C 
ATOM     21  C   UNL d   1      -0.585   6.761   0.000  0.00  0.00     0.000 A 
ATOM     22  C   UNL d   1      -0.535   5.946   0.000  0.00  0.00     0.002 A 
ATOM     23  C   UNL d   1       0.123   7.231   0.000  0.00  0.00     0.000 C 
ATOM     24  C   UNL d   1      -1.227   5.485   0.000  0.00  0.00     0.018 A 
ENDBRANCH   1  17
TORSDOF 2
