REMARK  5 active torsions:
REMARK  status: ('A' for Active; 'I' for Inactive)
REMARK    1  A    between atoms: C_14  and  N_4 
REMARK    2  A    between atoms: C_12  and  N_6 
REMARK    3  A    between atoms: C_10  and  C_12 
REMARK       I    between atoms: N_11  and  C_10 
REMARK    4  A    between atoms: C_13  and  N_11 
REMARK    5  A    between atoms: O_18  and  C_17 
ROOT
ATOM      1  C   UNL d   1      -6.304   3.210   0.000  0.00  0.00     0.172 A 
ATOM      2  C   UNL d   1      -6.304   4.035   0.000  0.00  0.00     0.113 A 
ATOM      3  N   UNL d   1      -5.595   2.797   0.000  0.00  0.00    -0.206 NA
ATOM      4  N   UNL d   1      -7.096   2.962   0.000  0.00  0.00    -0.212 N 
ATOM      5  C   UNL d   1      -5.595   4.448   0.000  0.00  0.00     0.271 A 
ATOM      6  N   UNL d   1      -4.877   4.035   0.000  0.00  0.00    -0.251 N 
ATOM      7  N   UNL d   1      -7.567   3.631   0.000  0.00  0.00    -0.162 NA
ATOM      8  C   UNL d   1      -4.877   3.210   0.000  0.00  0.00     0.187 A 
ATOM      9  C   UNL d   1      -7.096   4.283   0.000  0.00  0.00     0.129 A 
ATOM     10  O   UNL d   1      -5.595   5.273   0.000  0.00  0.00    -0.266 OA
ENDROOT
BRANCH   6  11
ATOM     11  C   UNL d   1      -4.151   4.448   0.000  0.00  0.00     0.147 C 
BRANCH  11  12
ATOM     12  C   UNL d   1      -3.433   4.027   0.000  0.00  0.00     0.297 C 
ATOM     13  N   UNL d   1      -2.723   4.448   0.000  0.00  0.00    -0.205 NA
ATOM     14  O   UNL d   1      -3.441   3.210   0.000  0.00  0.00    -0.264 OA
BRANCH  13  15
ATOM     15  C   UNL d   1      -2.005   4.027   0.000  0.00  0.00     0.107 A 
ATOM     16  C   UNL d   1      -1.304   4.448   0.000  0.00  0.00     0.112 A 
ATOM     17  C   UNL d   1      -0.586   4.027   0.000  0.00  0.00     0.026 A 
ATOM     18  C   UNL d   1      -0.586   3.210   0.000  0.00  0.00     0.002 A 
ATOM     19  C   UNL d   1      -1.287   2.789   0.000  0.00  0.00     0.002 A 
ATOM     20  C   UNL d   1      -1.997   3.210   0.000  0.00  0.00     0.021 A 
BRANCH  16  21
ATOM     21  O   UNL d   1      -1.304   5.265   0.000  0.00  0.00    -0.327 OA
ATOM     22  C   UNL d   1      -2.005   5.685   0.000  0.00  0.00     0.181 C 
ENDBRANCH  16  21
ENDBRANCH  13  15
ENDBRANCH  11  12
ENDBRANCH   6  11
BRANCH   4  23
ATOM     23  C   UNL d   1      -7.394   2.203   0.000  0.00  0.00     0.085 A 
ATOM     24  C   UNL d   1      -6.874   1.551   0.000  0.00  0.00     0.019 A 
ATOM     25  C   UNL d   1      -7.179   0.792   0.000  0.00  0.00     0.002 A 
ATOM     26  C   UNL d   1      -8.012   0.668   0.000  0.00  0.00     0.000 A 
ATOM     27  C   UNL d   1      -8.508   1.312   0.000  0.00  0.00     0.002 A 
ATOM     28  C   UNL d   1      -8.210   2.079   0.000  0.00  0.00     0.019 A 
ENDBRANCH   4  23
TORSDOF 5
