REMARK  4 active torsions:
REMARK  status: ('A' for Active; 'I' for Inactive)
REMARK    1  A    between atoms: C_13  and  C_2 
REMARK       I    between atoms: N_7  and  C_8 
REMARK    2  A    between atoms: C_8  and  C_15 
REMARK    3  A    between atoms: S_14  and  C_10 
REMARK    4  A    between atoms: C_15  and  S_14 
ROOT
ATOM      1  N   UNL d   1      -3.040   2.401   0.000  0.00  0.00    -0.191 N 
ATOM      2  C   UNL d   1      -2.426   2.944   0.000  0.00  0.00     0.187 A 
ATOM      3  N   UNL d   1      -2.756   3.695   0.000  0.00  0.00    -0.127 NA
ATOM      4  C   UNL d   1      -3.754   2.802   0.000  0.00  0.00     0.187 A 
ATOM      5  N   UNL d   1      -3.040   1.562   0.000  0.00  0.00    -0.156 NA
ATOM      6  N   UNL d   1      -3.578   3.616   0.000  0.00  0.00    -0.127 NA
ATOM      7  C   UNL d   1      -3.754   1.148   0.000  0.00  0.00     0.131 A 
ATOM      8  C   UNL d   1      -4.468   2.388   0.000  0.00  0.00     0.043 A 
ATOM      9  C   UNL d   1      -4.468   1.562   0.000  0.00  0.00     0.031 A 
ENDROOT
BRANCH   7  10
ATOM     10  S   UNL d   1      -3.754   0.322   0.000  0.00  0.00    -0.061 SA
BRANCH  10  11
ATOM     11  C   UNL d   1      -4.468  -0.088   0.000  0.00  0.00     0.098 C 
BRANCH  11  12
ATOM     12  C   UNL d   1      -5.169   0.322   0.000  0.00  0.00     0.271 C 
ATOM     13  N   UNL d   1      -5.883  -0.088   0.000  0.00  0.00    -0.273 N 
ATOM     14  C   UNL d   1      -5.883  -0.906   0.000  0.00  0.00     0.067 A 
ATOM     15  C   UNL d   1      -6.589   0.334   0.000  0.00  0.00     0.083 A 
ATOM     16  C   UNL d   1      -6.593  -1.307   0.000  0.00  0.00     0.016 A 
ATOM     17  C   UNL d   1      -5.173  -1.319   0.000  0.00  0.00     0.018 A 
ATOM     18  C   UNL d   1      -6.605  -2.134   0.000  0.00  0.00     0.001 A 
ATOM     19  C   UNL d   1      -7.307  -0.906   0.000  0.00  0.00     0.003 A 
ATOM     20  C   UNL d   1      -5.896  -2.559   0.000  0.00  0.00     0.000 A 
ATOM     21  C   UNL d   1      -5.173  -2.146   0.000  0.00  0.00     0.002 A 
ATOM     22  C   UNL d   1      -7.294  -0.075   0.000  0.00  0.00     0.019 A 
ATOM     23  O   UNL d   1      -5.169   1.148   0.000  0.00  0.00    -0.266 OA
ENDBRANCH  11  12
ENDBRANCH  10  11
ENDBRANCH   7  10
BRANCH   2  24
ATOM     24  C   UNL d   1      -1.624   2.776   0.000  0.00  0.00     0.038 A 
ATOM     25  C   UNL d   1      -1.073   3.382   0.000  0.00  0.00     0.003 A 
ATOM     26  C   UNL d   1      -0.263   3.215   0.000  0.00  0.00     0.000 A 
ATOM     27  C   UNL d   1      -0.013   2.426   0.000  0.00  0.00     0.000 A 
ATOM     28  C   UNL d   1      -0.564   1.812   0.000  0.00  0.00     0.000 A 
ATOM     29  C   UNL d   1      -1.374   1.987   0.000  0.00  0.00     0.003 A 
ENDBRANCH   2  24
TORSDOF 4
