REMARK  5 active torsions:
REMARK  status: ('A' for Active; 'I' for Inactive)
REMARK    1  A    between atoms: C_13  and  C_2 
REMARK       I    between atoms: N_7  and  C_10 
REMARK    2  A    between atoms: S_14  and  C_8 
REMARK    3  A    between atoms: C_20  and  N_9 
REMARK    4  A    between atoms: C_10  and  C_19 
REMARK    5  A    between atoms: C_19  and  S_14 
ROOT
ATOM      1  S   UNL d   1      -3.754   0.322   0.000  0.00  0.00    -0.061 SA
ENDROOT
BRANCH   1   2
ATOM      2  C   UNL d   1      -3.754   1.148   0.000  0.00  0.00     0.131 A 
ATOM      3  N   UNL d   1      -3.040   1.562   0.000  0.00  0.00    -0.156 NA
ATOM      4  N   UNL d   1      -3.040   2.401   0.000  0.00  0.00    -0.191 N 
ATOM      5  C   UNL d   1      -2.426   2.944   0.000  0.00  0.00     0.187 A 
ATOM      6  C   UNL d   1      -3.754   2.802   0.000  0.00  0.00     0.187 A 
ATOM      7  N   UNL d   1      -2.756   3.695   0.000  0.00  0.00    -0.127 NA
ATOM      8  N   UNL d   1      -3.578   3.616   0.000  0.00  0.00    -0.127 NA
ATOM      9  C   UNL d   1      -4.468   2.388   0.000  0.00  0.00     0.043 A 
ATOM     10  C   UNL d   1      -4.468   1.562   0.000  0.00  0.00     0.031 A 
BRANCH   5  11
ATOM     11  C   UNL d   1      -1.624   2.776   0.000  0.00  0.00     0.038 A 
ATOM     12  C   UNL d   1      -1.073   3.382   0.000  0.00  0.00     0.003 A 
ATOM     13  C   UNL d   1      -0.263   3.215   0.000  0.00  0.00     0.000 A 
ATOM     14  C   UNL d   1      -0.013   2.426   0.000  0.00  0.00     0.000 A 
ATOM     15  C   UNL d   1      -0.564   1.812   0.000  0.00  0.00     0.000 A 
ATOM     16  C   UNL d   1      -1.374   1.987   0.000  0.00  0.00     0.003 A 
ENDBRANCH   5  11
ENDBRANCH   1   2
BRANCH   1  17
ATOM     17  C   UNL d   1      -4.468  -0.088   0.000  0.00  0.00     0.098 C 
BRANCH  17  18
ATOM     18  C   UNL d   1      -5.173   0.326   0.000  0.00  0.00     0.272 C 
ATOM     19  N   UNL d   1      -5.887  -0.088   0.000  0.00  0.00    -0.269 N 
ATOM     20  C   UNL d   1      -6.589   0.326   0.000  0.00  0.00     0.102 A 
ATOM     21  C   UNL d   1      -5.883  -0.914   0.000  0.00  0.00     0.102 A 
ATOM     22  C   UNL d   1      -7.294  -0.079   0.000  0.00  0.00     0.100 A 
ATOM     23  N   UNL d   1      -7.307  -0.906   0.000  0.00  0.00    -0.301 N 
ATOM     24  C   UNL d   1      -6.593  -1.319   0.000  0.00  0.00     0.100 A 
ATOM     25  O   UNL d   1      -5.173   1.148   0.000  0.00  0.00    -0.266 OA
BRANCH  23  26
ATOM     26  C   UNL d   1      -8.021  -1.307   0.000  0.00  0.00     0.064 A 
ATOM     27  C   UNL d   1      -8.731  -0.893   0.000  0.00  0.00     0.018 A 
ATOM     28  C   UNL d   1      -9.449  -1.303   0.000  0.00  0.00     0.002 A 
ATOM     29  C   UNL d   1      -9.449  -2.121   0.000  0.00  0.00     0.000 A 
ATOM     30  C   UNL d   1      -8.731  -2.547   0.000  0.00  0.00     0.002 A 
ATOM     31  C   UNL d   1      -8.021  -2.134   0.000  0.00  0.00     0.018 A 
ENDBRANCH  23  26
ENDBRANCH  17  18
ENDBRANCH   1  17
TORSDOF 5
