REMARK  3 active torsions:
REMARK  status: ('A' for Active; 'I' for Inactive)
REMARK    1  A    between atoms: S_4  and  C_1 
REMARK    2  A    between atoms: C_8  and  S_4 
REMARK    3  A    between atoms: C_9  and  C_8 
ROOT
ATOM      1  C   UNL d   1       5.614  -7.684   0.000  0.00  0.00     0.114 A 
ATOM      2  C   UNL d   1       4.902  -8.100   0.000  0.00  0.00     0.042 A 
ATOM      3  N   UNL d   1       6.326  -8.096   0.000  0.00  0.00    -0.217 NA
ATOM      4  N   UNL d   1       5.614  -9.337   0.000  0.00  0.00    -0.224 NA
ATOM      5  C   UNL d   1       6.326  -8.925   0.000  0.00  0.00     0.200 A 
ATOM      6  C   UNL d   1       4.902  -8.925   0.000  0.00  0.00     0.085 A 
ATOM      7  C   UNL d   1       4.190  -7.688   0.000  0.00  0.00     0.004 A 
ATOM      8  C   UNL d   1       4.185  -9.337   0.000  0.00  0.00     0.019 A 
ATOM      9  C   UNL d   1       3.465  -8.096   0.000  0.00  0.00     0.000 A 
ATOM     10  C   UNL d   1       3.473  -8.925   0.000  0.00  0.00     0.002 A 
ENDROOT
BRANCH   1  11
ATOM     11  S   UNL d   1       5.614  -6.851   0.000  0.00  0.00    -0.067 SA
BRANCH  11  12
ATOM     12  C   UNL d   1       6.322  -6.439   0.000  0.00  0.00     0.037 C 
BRANCH  12  13
ATOM     13  C   UNL d   1       7.038  -6.851   0.000  0.00  0.00     0.006 A 
ATOM     14  C   UNL d   1       7.759  -6.426   0.000  0.00  0.00     0.001 A 
ATOM     15  C   UNL d   1       7.750  -5.601   0.000  0.00  0.00     0.000 C 
ATOM     16  C   UNL d   1       8.475  -6.847   0.000  0.00  0.00     0.000 A 
ATOM     17  C   UNL d   1       8.475  -7.663   0.000  0.00  0.00     0.000 A 
ATOM     18  C   UNL d   1       7.763  -8.075   0.000  0.00  0.00     0.000 A 
ATOM     19  C   UNL d   1       7.038  -7.675   0.000  0.00  0.00     0.001 A 
ENDBRANCH  12  13
ENDBRANCH  11  12
ENDBRANCH   1  11
TORSDOF 3
