REMARK  3 active torsions:
REMARK  status: ('A' for Active; 'I' for Inactive)
REMARK    1  A    between atoms: C_2  and  C_1 
REMARK       I    between atoms: N_6  and  C_2 
REMARK    2  A    between atoms: C_7  and  N_6 
REMARK    3  A    between atoms: C_18  and  N_6 
ROOT
ATOM      1  C   UNL d   1      -0.906   1.852   0.000  0.00  0.00     0.270 C 
ATOM      2  N   UNL d   1      -1.769   2.751   0.000  0.00  0.00    -0.274 N 
ATOM      3  O   UNL d   1      -0.166   2.148   0.000  0.00  0.00    -0.266 OA
ENDROOT
BRANCH   2   4
ATOM      4  C   UNL d   1      -2.514   2.506   0.000  0.00  0.00     0.079 A 
ATOM      5  C   UNL d   1      -2.755   1.762   0.000  0.00  0.00     0.116 A 
ATOM      6  S   UNL d   1      -3.535   1.762   0.000  0.00  0.00     0.213 S 
ATOM      7  O   UNL d   1      -4.315   1.762   0.000  0.00  0.00    -0.217 OA
ATOM      8  O   UNL d   1      -3.334   1.013   0.000  0.00  0.00    -0.217 OA
ATOM      9  C   UNL d   1      -3.771   2.506   0.000  0.00  0.00     0.100 A 
ATOM     10  C   UNL d   1      -3.145   2.963   0.000  0.00  0.00     0.030 A 
ENDBRANCH   2   4
BRANCH   2  11
ATOM     11  C   UNL d   1      -1.568   3.547   0.000  0.00  0.00     0.067 A 
ATOM     12  C   UNL d   1      -2.159   4.106   0.000  0.00  0.00     0.018 A 
ATOM     13  C   UNL d   1      -1.958   4.918   0.000  0.00  0.00     0.002 A 
ATOM     14  C   UNL d   1      -1.170   5.147   0.000  0.00  0.00     0.000 A 
ATOM     15  C   UNL d   1      -0.575   4.579   0.000  0.00  0.00     0.002 A 
ATOM     16  C   UNL d   1      -0.764   3.779   0.000  0.00  0.00     0.018 A 
ENDBRANCH   2  11
BRANCH   1  17
ATOM     17  C   UNL d   1      -1.084   1.048   0.000  0.00  0.00     0.120 A 
ATOM     18  C   UNL d   1      -0.461   0.485   0.000  0.00  0.00     0.305 A 
ATOM     19  O   UNL d   1      -0.638  -0.323   0.000  0.00  0.00    -0.273 OA
ATOM     20  O   UNL d   1       0.323   0.741   0.000  0.00  0.00    -0.259 OA
ATOM     21  C   UNL d   1      -1.427  -0.571   0.000  0.00  0.00     0.103 A 
ATOM     22  C   UNL d   1      -2.041  -0.016   0.000  0.00  0.00     0.023 A 
ATOM     23  C   UNL d   1      -1.596  -1.383   0.000  0.00  0.00     0.025 A 
ATOM     24  C   UNL d   1      -1.868   0.788   0.000  0.00  0.00     0.012 A 
ATOM     25  C   UNL d   1      -2.825  -0.272   0.000  0.00  0.00     0.002 A 
ATOM     26  C   UNL d   1      -2.999  -1.080   0.000  0.00  0.00     0.000 A 
ATOM     27  C   UNL d   1      -2.384  -1.635   0.000  0.00  0.00     0.002 A 
ENDBRANCH   1  17
TORSDOF 3
