REMARK  4 active torsions:
REMARK  status: ('A' for Active; 'I' for Inactive)
REMARK    1  A    between atoms: N_4  and  C_2 
REMARK       I    between atoms: C_3  and  N_4 
REMARK    2  A    between atoms: C_10  and  C_3 
REMARK    3  A    between atoms: C_12  and  N_4 
REMARK    4  A    between atoms: O_18  and  C_15 
ROOT
ATOM      1  C   UNL d   1      -0.909   1.858   0.000  0.00  0.00     0.265 C 
ATOM      2  N   UNL d   1      -1.775   2.760   0.000  0.00  0.00    -0.274 N 
ATOM      3  O   UNL d   1      -0.166   2.155   0.000  0.00  0.00    -0.267 OA
ENDROOT
BRANCH   2   4
ATOM      4  C   UNL d   1      -2.522   2.515   0.000  0.00  0.00     0.079 A 
ATOM      5  C   UNL d   1      -2.764   1.767   0.000  0.00  0.00     0.116 A 
ATOM      6  S   UNL d   1      -3.546   1.767   0.000  0.00  0.00     0.213 S 
ATOM      7  C   UNL d   1      -3.784   2.515   0.000  0.00  0.00     0.100 A 
ATOM      8  O   UNL d   1      -4.329   1.767   0.000  0.00  0.00    -0.217 OA
ATOM      9  O   UNL d   1      -3.345   1.016   0.000  0.00  0.00    -0.217 OA
ATOM     10  C   UNL d   1      -3.155   2.973   0.000  0.00  0.00     0.030 A 
ENDBRANCH   2   4
BRANCH   2  11
ATOM     11  C   UNL d   1      -1.574   3.558   0.000  0.00  0.00     0.067 A 
ATOM     12  C   UNL d   1      -2.167   4.120   0.000  0.00  0.00     0.018 A 
ATOM     13  C   UNL d   1      -1.965   4.934   0.000  0.00  0.00     0.002 A 
ATOM     14  C   UNL d   1      -1.174   5.164   0.000  0.00  0.00     0.000 A 
ATOM     15  C   UNL d   1      -0.577   4.594   0.000  0.00  0.00     0.002 A 
ATOM     16  C   UNL d   1      -0.767   3.792   0.000  0.00  0.00     0.018 A 
ENDBRANCH   2  11
BRANCH   1  17
ATOM     17  C   UNL d   1      -1.087   1.052   0.000  0.00  0.00     0.057 A 
ATOM     18  C   UNL d   1      -1.882   0.791   0.000  0.00  0.00     0.007 A 
ATOM     19  C   UNL d   1      -2.048  -0.016   0.000  0.00  0.00     0.024 A 
ATOM     20  C   UNL d   1      -1.435  -0.573   0.000  0.00  0.00     0.094 A 
ATOM     21  C   UNL d   1      -0.648  -0.324   0.000  0.00  0.00     0.024 A 
ATOM     22  C   UNL d   1      -0.463   0.494   0.000  0.00  0.00     0.007 A 
BRANCH  20  23
ATOM     23  O   UNL d   1      -1.613  -1.388   0.000  0.00  0.00    -0.328 OA
ATOM     24  C   UNL d   1      -2.408  -1.649   0.000  0.00  0.00     0.181 C 
ENDBRANCH  20  23
ENDBRANCH   1  17
TORSDOF 4
