REMARK  8 active torsions:
REMARK  status: ('A' for Active; 'I' for Inactive)
REMARK    1  A    between atoms: C_6  and  C_1 
REMARK    2  A    between atoms: C_7  and  C_3 
REMARK       I    between atoms: N_10  and  C_6 
REMARK    3  A    between atoms: O_12  and  C_7 
REMARK    4  A    between atoms: C_20  and  N_10 
REMARK    5  A    between atoms: C_23  and  O_12 
REMARK    6  A    between atoms: O_21  and  C_14 
REMARK    7  A    between atoms: C_15  and  C_22 
REMARK    8  A    between atoms: C_22  and  C_20 
ROOT
ATOM      1  C   UNL d   1      -0.583   2.271   0.000  0.00  0.00     0.075 A 
ATOM      2  C   UNL d   1      -1.408   2.275   0.000  0.00  0.00     0.027 A 
ATOM      3  C   UNL d   1      -1.671   1.496   0.000  0.00  0.00     0.121 A 
ATOM      4  N   UNL d   1      -1.000   1.000   0.000  0.00  0.00    -0.349 N 
ATOM      5  C   UNL d   1      -0.333   1.483   0.000  0.00  0.00     0.061 A 
ATOM      6  C   UNL d   1      -1.887   2.946   0.000  0.00  0.00     0.002 C 
ATOM      7  C   UNL d   1       0.454   1.225   0.000  0.00  0.00     0.019 C 
ATOM      8  H   UNL d   1      -1.008   0.175   0.000  0.00  0.00     0.166 HD
ENDROOT
BRANCH   1   9
ATOM      9  C   UNL d   1      -0.096   2.933   0.000  0.00  0.00     0.281 C 
ATOM     10  O   UNL d   1      -0.425   3.688   0.000  0.00  0.00    -0.265 OA
ATOM     11  N   UNL d   1       0.725   2.846   0.000  0.00  0.00    -0.206 NA
BRANCH  11  12
ATOM     12  C   UNL d   1       1.212   3.508   0.000  0.00  0.00     0.102 C 
BRANCH  12  13
ATOM     13  C   UNL d   1       2.029   3.421   0.000  0.00  0.00     0.021 C 
BRANCH  13  14
ATOM     14  C   UNL d   1       2.517   4.079   0.000  0.00  0.00     0.002 A 
ATOM     15  C   UNL d   1       3.342   3.996   0.000  0.00  0.00     0.002 A 
ATOM     16  C   UNL d   1       3.829   4.654   0.000  0.00  0.00     0.024 A 
ATOM     17  C   UNL d   1       3.500   5.417   0.000  0.00  0.00     0.094 A 
ATOM     18  C   UNL d   1       2.679   5.513   0.000  0.00  0.00     0.024 A 
ATOM     19  C   UNL d   1       2.188   4.842   0.000  0.00  0.00     0.002 A 
BRANCH  17  20
ATOM     20  O   UNL d   1       3.992   6.079   0.000  0.00  0.00    -0.328 OA
ATOM     21  C   UNL d   1       3.663   6.838   0.000  0.00  0.00     0.181 C 
ENDBRANCH  17  20
ENDBRANCH  13  14
ENDBRANCH  12  13
ENDBRANCH  11  12
ENDBRANCH   1   9
BRANCH   3  22
ATOM     22  C   UNL d   1      -2.458   1.238   0.000  0.00  0.00     0.316 C 
ATOM     23  O   UNL d   1      -2.633   0.433   0.000  0.00  0.00    -0.257 OA
BRANCH  22  24
ATOM     24  O   UNL d   1      -3.062   1.796   0.000  0.00  0.00    -0.270 OA
BRANCH  24  25
ATOM     25  C   UNL d   1      -3.850   1.546   0.000  0.00  0.00     0.126 C 
ATOM     26  C   UNL d   1      -4.458   2.096   0.000  0.00  0.00     0.029 C 
ENDBRANCH  24  25
ENDBRANCH  22  24
ENDBRANCH   3  22
TORSDOF 8
