REMARK  6 active torsions:
REMARK  status: ('A' for Active; 'I' for Inactive)
REMARK    1  A    between atoms: C_10  and  C_2 
REMARK    2  A    between atoms: S_12  and  C_7 
REMARK    3  A    between atoms: C_11  and  C_14 
REMARK    4  A    between atoms: O_15  and  C_11 
REMARK    5  A    between atoms: C_14  and  S_12 
REMARK    6  A    between atoms: C_18  and  O_15 
ROOT
ATOM      1  N   UNL d   1      -3.040   2.401   0.000  0.00  0.00    -0.191 N 
ATOM      2  C   UNL d   1      -2.426   2.944   0.000  0.00  0.00     0.187 A 
ATOM      3  N   UNL d   1      -2.756   3.695   0.000  0.00  0.00    -0.127 NA
ATOM      4  C   UNL d   1      -3.754   2.802   0.000  0.00  0.00     0.187 A 
ATOM      5  N   UNL d   1      -3.040   1.562   0.000  0.00  0.00    -0.156 NA
ATOM      6  N   UNL d   1      -3.578   3.616   0.000  0.00  0.00    -0.127 NA
ATOM      7  C   UNL d   1      -3.754   1.148   0.000  0.00  0.00     0.131 A 
ATOM      8  C   UNL d   1      -4.468   2.388   0.000  0.00  0.00     0.043 A 
ATOM      9  C   UNL d   1      -4.468   1.562   0.000  0.00  0.00     0.031 A 
ENDROOT
BRANCH   7  10
ATOM     10  S   UNL d   1      -3.754   0.322   0.000  0.00  0.00    -0.060 SA
BRANCH  10  11
ATOM     11  C   UNL d   1      -4.468  -0.088   0.000  0.00  0.00     0.105 C 
BRANCH  11  12
ATOM     12  C   UNL d   1      -5.173   0.322   0.000  0.00  0.00     0.307 C 
ATOM     13  O   UNL d   1      -5.173   1.148   0.000  0.00  0.00    -0.258 OA
BRANCH  12  14
ATOM     14  O   UNL d   1      -5.883  -0.092   0.000  0.00  0.00    -0.271 OA
BRANCH  14  15
ATOM     15  C   UNL d   1      -6.605   0.322   0.000  0.00  0.00     0.126 C 
ATOM     16  C   UNL d   1      -7.307  -0.092   0.000  0.00  0.00     0.029 C 
ENDBRANCH  14  15
ENDBRANCH  12  14
ENDBRANCH  11  12
ENDBRANCH  10  11
ENDBRANCH   7  10
BRANCH   2  17
ATOM     17  C   UNL d   1      -1.624   2.776   0.000  0.00  0.00     0.038 A 
ATOM     18  C   UNL d   1      -1.073   3.382   0.000  0.00  0.00     0.003 A 
ATOM     19  C   UNL d   1      -0.263   3.215   0.000  0.00  0.00     0.000 A 
ATOM     20  C   UNL d   1      -0.013   2.426   0.000  0.00  0.00     0.000 A 
ATOM     21  C   UNL d   1      -0.564   1.812   0.000  0.00  0.00     0.000 A 
ATOM     22  C   UNL d   1      -1.374   1.987   0.000  0.00  0.00     0.003 A 
ENDBRANCH   2  17
TORSDOF 6
