REMARK  4 active torsions:
REMARK  status: ('A' for Active; 'I' for Inactive)
REMARK    1  A    between atoms: C_7  and  N_1 
REMARK    2  A    between atoms: C_9  and  C_7 
REMARK       I    between atoms: N_16  and  C_9 
REMARK    3  A    between atoms: C_21  and  N_16 
REMARK    4  A    between atoms: C_20  and  C_21 
ROOT
ATOM      1  C   UNL d   1      -2.775   0.577   0.000  0.00  0.00     0.146 C 
ENDROOT
BRANCH   1   2
ATOM      2  N   UNL d   1      -2.535   1.360   0.000  0.00  0.00    -0.269 N 
ATOM      3  C   UNL d   1      -1.730   1.512   0.000  0.00  0.00     0.265 A 
ATOM      4  C   UNL d   1      -1.364   2.295   0.000  0.00  0.00     0.068 A 
ATOM      5  O   UNL d   1      -1.221   0.846   0.000  0.00  0.00    -0.267 OA
ATOM      6  C   UNL d   1      -1.752   3.053   0.000  0.00  0.00     0.034 A 
ATOM      7  C   UNL d   1      -1.272   3.709   0.000  0.00  0.00     0.007 C 
ATOM      8  S   UNL d   1      -2.560   3.192   0.000  0.00  0.00    -0.085 SA
ATOM      9  C   UNL d   1      -3.057   2.699   0.000  0.00  0.00     0.046 A 
ATOM     10  C   UNL d   1      -3.065   1.857   0.000  0.00  0.00     0.073 A 
ATOM     11  C   UNL d   1      -3.785   3.116   0.000  0.00  0.00     0.008 A 
ATOM     12  C   UNL d   1      -3.785   1.440   0.000  0.00  0.00     0.018 A 
ATOM     13  C   UNL d   1      -4.505   1.857   0.000  0.00  0.00     0.002 A 
ATOM     14  C   UNL d   1      -4.505   2.699   0.000  0.00  0.00     0.001 A 
ENDBRANCH   1   2
BRANCH   1  15
ATOM     15  C   UNL d   1      -2.206  -0.017   0.000  0.00  0.00     0.297 C 
ATOM     16  N   UNL d   1      -1.411   0.160   0.000  0.00  0.00    -0.205 NA
ATOM     17  O   UNL d   1      -2.446  -0.800   0.000  0.00  0.00    -0.264 OA
BRANCH  16  18
ATOM     18  C   UNL d   1      -0.855  -0.429   0.000  0.00  0.00     0.102 C 
BRANCH  18  19
ATOM     19  C   UNL d   1      -0.059  -0.244   0.000  0.00  0.00     0.021 A 
ATOM     20  C   UNL d   1       0.497  -0.851   0.000  0.00  0.00     0.028 A 
ATOM     21  C   UNL d   1       1.305  -0.661   0.000  0.00  0.00     0.119 A 
ATOM     22  O   UNL d   1       1.970  -1.116   0.000  0.00  0.00    -0.300 OA
ATOM     23  C   UNL d   1       1.533   0.122   0.000  0.00  0.00     0.119 A 
ATOM     24  C   UNL d   1       2.619  -0.623   0.000  0.00  0.00     0.304 A 
ATOM     25  O   UNL d   1       2.354   0.147   0.000  0.00  0.00    -0.300 OA
ATOM     26  C   UNL d   1       0.964   0.720   0.000  0.00  0.00     0.026 A 
ATOM     27  C   UNL d   1       0.169   0.526   0.000  0.00  0.00     0.004 A 
ENDBRANCH  18  19
ENDBRANCH  16  18
ENDBRANCH   1  15
TORSDOF 4
