REMARK  4 active torsions:
REMARK  status: ('A' for Active; 'I' for Inactive)
REMARK    1  A    between atoms: S_6  and  C_1 
REMARK    2  A    between atoms: C_19  and  S_6 
REMARK    3  A    between atoms: C_7  and  C_19 
REMARK       I    between atoms: N_10  and  C_7 
REMARK    4  A    between atoms: C_14  and  N_10 
ROOT
ATOM      1  C   UNL d   1      -1.035   3.403   0.000  0.00  0.00     0.286 C 
ATOM      2  N   UNL d   1      -0.326   3.816   0.000  0.00  0.00    -0.207 NA
ATOM      3  O   UNL d   1      -1.023   2.576   0.000  0.00  0.00    -0.265 OA
ENDROOT
BRANCH   1   4
ATOM      4  C   UNL d   1      -1.749   3.804   0.000  0.00  0.00     0.099 C 
BRANCH   4   5
ATOM      5  S   UNL d   1      -2.455   3.390   0.000  0.00  0.00    -0.062 SA
BRANCH   5   6
ATOM      6  C   UNL d   1      -2.455   2.564   0.000  0.00  0.00     0.114 A 
ATOM      7  C   UNL d   1      -3.165   2.150   0.000  0.00  0.00     0.042 A 
ATOM      8  C   UNL d   1      -3.165   1.323   0.000  0.00  0.00     0.085 A 
ATOM      9  C   UNL d   1      -3.879   2.564   0.000  0.00  0.00     0.004 A 
ATOM     10  C   UNL d   1      -3.879   0.910   0.000  0.00  0.00     0.019 A 
ATOM     11  N   UNL d   1      -2.455   0.910   0.000  0.00  0.00    -0.224 NA
ATOM     12  C   UNL d   1      -4.593   1.323   0.000  0.00  0.00     0.002 A 
ATOM     13  C   UNL d   1      -4.593   2.150   0.000  0.00  0.00     0.000 A 
ATOM     14  C   UNL d   1      -1.741   1.323   0.000  0.00  0.00     0.200 A 
ATOM     15  N   UNL d   1      -1.741   2.150   0.000  0.00  0.00    -0.217 NA
ENDBRANCH   5   6
ENDBRANCH   4   5
ENDBRANCH   1   4
BRANCH   2  16
ATOM     16  C   UNL d   1       0.393   3.415   0.000  0.00  0.00     0.087 A 
ATOM     17  C   UNL d   1       1.094   3.841   0.000  0.00  0.00     0.045 A 
ATOM     18  C   UNL d   1       1.816   3.440   0.000  0.00  0.00     0.121 A 
ATOM     19  O   UNL d   1       2.597   3.716   0.000  0.00  0.00    -0.299 OA
ATOM     20  C   UNL d   1       1.829   2.618   0.000  0.00  0.00     0.119 A 
ATOM     21  C   UNL d   1       3.086   3.056   0.000  0.00  0.00     0.304 A 
ATOM     22  O   UNL d   1       2.618   2.376   0.000  0.00  0.00    -0.300 OA
ATOM     23  C   UNL d   1       1.119   2.200   0.000  0.00  0.00     0.028 A 
ATOM     24  C   UNL d   1       0.405   2.593   0.000  0.00  0.00     0.021 A 
ENDBRANCH   2  16
TORSDOF 4
