REMARK  3 active torsions:
REMARK  status: ('A' for Active; 'I' for Inactive)
REMARK    1  A    between atoms: S_4  and  C_1 
REMARK    2  A    between atoms: C_8  and  S_4 
REMARK    3  A    between atoms: C_10  and  C_8 
ROOT
ATOM      1  C   UNL d   1      -2.455   2.564   0.000  0.00  0.00     0.114 A 
ATOM      2  C   UNL d   1      -3.165   2.150   0.000  0.00  0.00     0.042 A 
ATOM      3  N   UNL d   1      -1.741   2.150   0.000  0.00  0.00    -0.217 NA
ATOM      4  N   UNL d   1      -2.455   0.910   0.000  0.00  0.00    -0.224 NA
ATOM      5  C   UNL d   1      -1.741   1.323   0.000  0.00  0.00     0.200 A 
ATOM      6  C   UNL d   1      -3.165   1.323   0.000  0.00  0.00     0.085 A 
ATOM      7  C   UNL d   1      -3.879   2.564   0.000  0.00  0.00     0.004 A 
ATOM      8  C   UNL d   1      -3.879   0.910   0.000  0.00  0.00     0.019 A 
ATOM      9  C   UNL d   1      -4.593   2.150   0.000  0.00  0.00     0.000 A 
ATOM     10  C   UNL d   1      -4.593   1.323   0.000  0.00  0.00     0.002 A 
ENDROOT
BRANCH   1  11
ATOM     11  S   UNL d   1      -2.455   3.390   0.000  0.00  0.00    -0.067 SA
BRANCH  11  12
ATOM     12  C   UNL d   1      -1.749   3.804   0.000  0.00  0.00     0.037 C 
BRANCH  12  13
ATOM     13  C   UNL d   1      -1.035   3.403   0.000  0.00  0.00     0.007 A 
ATOM     14  C   UNL d   1      -0.313   3.816   0.000  0.00  0.00     0.003 A 
ATOM     15  C   UNL d   1       0.393   3.407   0.000  0.00  0.00     0.030 A 
ATOM     16  C   UNL d   1       0.393   2.589   0.000  0.00  0.00     0.140 A 
ATOM     17  C   UNL d   1      -0.313   2.175   0.000  0.00  0.00     0.030 A 
ATOM     18  F   UNL d   1       1.115   2.175   0.000  0.00  0.00    -0.204 F 
ATOM     19  C   UNL d   1      -1.035   2.576   0.000  0.00  0.00     0.003 A 
ENDBRANCH  12  13
ENDBRANCH  11  12
ENDBRANCH   1  11
TORSDOF 3
