REMARK  3 active torsions:
REMARK  status: ('A' for Active; 'I' for Inactive)
REMARK    1  A    between atoms: N_3  and  C_2 
REMARK       I    between atoms: C_4  and  N_3 
REMARK    2  A    between atoms: C_10  and  N_3 
REMARK    3  A    between atoms: C_12  and  C_4 
ROOT
ATOM      1  N   UNL d   1      -1.780   2.766   0.000  0.00  0.00    -0.274 N 
ATOM      2  C   UNL d   1      -0.911   1.863   0.000  0.00  0.00     0.265 C 
ATOM      3  O   UNL d   1      -0.167   2.160   0.000  0.00  0.00    -0.267 OA
ENDROOT
BRANCH   1   4
ATOM      4  C   UNL d   1      -2.529   2.521   0.000  0.00  0.00     0.079 A 
ATOM      5  C   UNL d   1      -2.770   1.772   0.000  0.00  0.00     0.116 A 
ATOM      6  S   UNL d   1      -3.555   1.772   0.000  0.00  0.00     0.213 S 
ATOM      7  C   UNL d   1      -3.793   2.521   0.000  0.00  0.00     0.100 A 
ATOM      8  O   UNL d   1      -4.340   1.772   0.000  0.00  0.00    -0.217 OA
ATOM      9  O   UNL d   1      -3.353   1.018   0.000  0.00  0.00    -0.217 OA
ATOM     10  C   UNL d   1      -3.163   2.980   0.000  0.00  0.00     0.030 A 
ENDBRANCH   1   4
BRANCH   1  11
ATOM     11  C   UNL d   1      -1.577   3.567   0.000  0.00  0.00     0.067 A 
ATOM     12  C   UNL d   1      -2.172   4.130   0.000  0.00  0.00     0.020 A 
ATOM     13  C   UNL d   1      -1.970   4.950   0.000  0.00  0.00     0.031 A 
ATOM     14  C   UNL d   1      -1.173   5.176   0.000  0.00  0.00     0.140 A 
ATOM     15  C   UNL d   1      -0.579   4.605   0.000  0.00  0.00     0.031 A 
ATOM     16  F   UNL d   1      -0.971   5.973   0.000  0.00  0.00    -0.204 F 
ATOM     17  C   UNL d   1      -0.761   3.801   0.000  0.00  0.00     0.020 A 
ENDBRANCH   1  11
BRANCH   2  18
ATOM     18  C   UNL d   1      -1.090   1.054   0.000  0.00  0.00     0.057 C 
ATOM     19  C   UNL d   1      -1.887   0.793   0.000  0.00  0.00     0.005 C 
ATOM     20  C   UNL d   1      -0.464   0.487   0.000  0.00  0.00     0.005 C 
ENDBRANCH   2  18
TORSDOF 3
