REMARK  3 active torsions:
REMARK  status: ('A' for Active; 'I' for Inactive)
REMARK    1  A    between atoms: C_10  and  N_4 
REMARK    2  A    between atoms: C_11  and  N_6 
REMARK    3  A    between atoms: C_16  and  C_11 
ROOT
ATOM      1  C   UNL d   1      -6.302   3.209   0.000  0.00  0.00     0.172 A 
ATOM      2  C   UNL d   1      -6.302   4.034   0.000  0.00  0.00     0.113 A 
ATOM      3  N   UNL d   1      -5.593   2.796   0.000  0.00  0.00    -0.206 NA
ATOM      4  N   UNL d   1      -7.094   2.961   0.000  0.00  0.00    -0.212 N 
ATOM      5  C   UNL d   1      -5.593   4.446   0.000  0.00  0.00     0.270 A 
ATOM      6  N   UNL d   1      -4.875   4.034   0.000  0.00  0.00    -0.254 N 
ATOM      7  N   UNL d   1      -7.565   3.630   0.000  0.00  0.00    -0.162 NA
ATOM      8  C   UNL d   1      -4.875   3.209   0.000  0.00  0.00     0.187 A 
ATOM      9  C   UNL d   1      -7.094   4.281   0.000  0.00  0.00     0.129 A 
ATOM     10  O   UNL d   1      -5.593   5.271   0.000  0.00  0.00    -0.266 OA
ENDROOT
BRANCH   4  11
ATOM     11  C   UNL d   1      -7.391   2.203   0.000  0.00  0.00     0.085 A 
ATOM     12  C   UNL d   1      -6.872   1.551   0.000  0.00  0.00     0.021 A 
ATOM     13  C   UNL d   1      -7.177   0.792   0.000  0.00  0.00     0.031 A 
ATOM     14  C   UNL d   1      -8.010   0.668   0.000  0.00  0.00     0.140 A 
ATOM     15  C   UNL d   1      -8.505   1.312   0.000  0.00  0.00     0.031 A 
ATOM     16  F   UNL d   1      -8.332  -0.107   0.000  0.00  0.00    -0.204 F 
ATOM     17  C   UNL d   1      -8.208   2.079   0.000  0.00  0.00     0.021 A 
ENDBRANCH   4  11
BRANCH   6  18
ATOM     18  C   UNL d   1      -4.149   4.446   0.000  0.00  0.00     0.104 C 
BRANCH  18  19
ATOM     19  C   UNL d   1      -3.432   4.026   0.000  0.00  0.00     0.099 A 
ATOM     20  N   UNL d   1      -2.722   4.446   0.000  0.00  0.00    -0.242 NA
ATOM     21  C   UNL d   1      -1.996   4.026   0.000  0.00  0.00     0.099 A 
ATOM     22  C   UNL d   1      -2.021   3.209   0.000  0.00  0.00     0.021 A 
ATOM     23  C   UNL d   1      -2.739   2.788   0.000  0.00  0.00     0.003 A 
ATOM     24  C   UNL d   1      -3.440   3.209   0.000  0.00  0.00     0.021 A 
ENDBRANCH  18  19
ENDBRANCH   6  18
TORSDOF 3
