REMARK  3 active torsions:
REMARK  status: ('A' for Active; 'I' for Inactive)
REMARK    1  A    between atoms: S_6  and  C_1 
REMARK    2  A    between atoms: C_3  and  C_9 
REMARK       I    between atoms: N_4  and  C_3 
REMARK    3  A    between atoms: C_9  and  S_6 
ROOT
ATOM      1  C   UNL d   1      -2.455   2.564   0.000  0.00  0.00     0.114 A 
ATOM      2  C   UNL d   1      -3.165   2.150   0.000  0.00  0.00     0.042 A 
ATOM      3  N   UNL d   1      -1.741   2.150   0.000  0.00  0.00    -0.217 NA
ATOM      4  N   UNL d   1      -2.455   0.910   0.000  0.00  0.00    -0.224 NA
ATOM      5  C   UNL d   1      -1.741   1.323   0.000  0.00  0.00     0.200 A 
ATOM      6  C   UNL d   1      -3.165   1.323   0.000  0.00  0.00     0.085 A 
ATOM      7  C   UNL d   1      -3.879   2.564   0.000  0.00  0.00     0.004 A 
ATOM      8  C   UNL d   1      -3.879   0.910   0.000  0.00  0.00     0.019 A 
ATOM      9  C   UNL d   1      -4.593   2.150   0.000  0.00  0.00     0.000 A 
ATOM     10  C   UNL d   1      -4.593   1.323   0.000  0.00  0.00     0.002 A 
ENDROOT
BRANCH   1  11
ATOM     11  S   UNL d   1      -2.455   3.390   0.000  0.00  0.00    -0.062 SA
BRANCH  11  12
ATOM     12  C   UNL d   1      -1.749   3.804   0.000  0.00  0.00     0.098 C 
BRANCH  12  13
ATOM     13  C   UNL d   1      -1.027   3.403   0.000  0.00  0.00     0.271 C 
ATOM     14  N   UNL d   1      -0.313   3.829   0.000  0.00  0.00    -0.272 N 
ATOM     15  C   UNL d   1      -0.238   4.639   0.000  0.00  0.00     0.083 A 
ATOM     16  C   UNL d   1       0.443   3.503   0.000  0.00  0.00     0.083 A 
ATOM     17  C   UNL d   1       0.568   4.827   0.000  0.00  0.00     0.021 A 
ATOM     18  C   UNL d   1       0.981   4.113   0.000  0.00  0.00     0.021 A 
ATOM     19  O   UNL d   1      -1.015   2.589   0.000  0.00  0.00    -0.266 OA
ENDBRANCH  12  13
ENDBRANCH  11  12
ENDBRANCH   1  11
TORSDOF 3
