REMARK  3 active torsions:
REMARK  status: ('A' for Active; 'I' for Inactive)
REMARK    1  A    between atoms: C_2  and  C_1 
REMARK    2  A    between atoms: C_3  and  C_2 
REMARK       I    between atoms: N_5  and  C_3 
REMARK    3  A    between atoms: C_10  and  N_8 
ROOT
ATOM      1  C   UNL d   1      -0.723   2.854   0.000  0.00  0.00     0.304 C 
ATOM      2  N   UNL d   1      -0.238   3.519   0.000  0.00  0.00    -0.266 N 
ATOM      3  N   UNL d   1       0.740   4.852   0.000  0.00  0.00    -0.301 N 
ATOM      4  O   UNL d   1      -0.389   2.102   0.000  0.00  0.00    -0.263 OA
ATOM      5  C   UNL d   1       0.581   3.431   0.000  0.00  0.00     0.102 A 
ATOM      6  C   UNL d   1      -0.577   4.267   0.000  0.00  0.00     0.102 A 
ATOM      7  C   UNL d   1      -0.088   4.931   0.000  0.00  0.00     0.100 A 
ATOM      8  C   UNL d   1       1.070   4.091   0.000  0.00  0.00     0.100 A 
ENDROOT
BRANCH   1   9
ATOM      9  C   UNL d   1      -1.550   2.942   0.000  0.00  0.00     0.253 C 
ATOM     10  O   UNL d   1      -1.881   3.699   0.000  0.00  0.00    -0.281 OA
BRANCH   9  11
ATOM     11  C   UNL d   1      -2.031   2.278   0.000  0.00  0.00     0.064 A 
ATOM     12  C   UNL d   1      -1.789   1.488   0.000  0.00  0.00     0.102 A 
ATOM     13  N   UNL d   1      -2.453   1.003   0.000  0.00  0.00    -0.244 NA
ATOM     14  C   UNL d   1      -3.118   1.492   0.000  0.00  0.00     0.082 A 
ATOM     15  C   UNL d   1      -2.858   2.278   0.000  0.00  0.00     0.022 A 
ATOM     16  C   UNL d   1      -3.924   1.325   0.000  0.00  0.00     0.019 A 
ATOM     17  C   UNL d   1      -3.406   2.892   0.000  0.00  0.00     0.002 A 
ATOM     18  C   UNL d   1      -4.221   2.721   0.000  0.00  0.00     0.000 A 
ATOM     19  C   UNL d   1      -4.472   1.939   0.000  0.00  0.00     0.002 A 
ENDBRANCH   9  11
ENDBRANCH   1   9
BRANCH   3  20
ATOM     20  C   UNL d   1       1.229   5.508   0.000  0.00  0.00     0.064 A 
ATOM     21  C   UNL d   1       2.048   5.420   0.000  0.00  0.00     0.020 A 
ATOM     22  C   UNL d   1       2.533   6.093   0.000  0.00  0.00     0.031 A 
ATOM     23  C   UNL d   1       2.198   6.850   0.000  0.00  0.00     0.140 A 
ATOM     24  C   UNL d   1       1.371   6.937   0.000  0.00  0.00     0.031 A 
ATOM     25  F   UNL d   1       2.687   7.514   0.000  0.00  0.00    -0.204 F 
ATOM     26  C   UNL d   1       0.894   6.269   0.000  0.00  0.00     0.020 A 
ENDBRANCH   3  20
TORSDOF 3
