REMARK  5 active torsions:
REMARK  status: ('A' for Active; 'I' for Inactive)
REMARK    1  A    between atoms: C_3  and  C_1 
REMARK    2  A    between atoms: C_2  and  C_3 
REMARK       I    between atoms: N_4  and  C_2 
REMARK    3  A    between atoms: C_10  and  C_8 
REMARK    4  A    between atoms: O_16  and  C_10 
REMARK    5  A    between atoms: C_21  and  O_16 
ROOT
ATOM      1  C   UNL d   1      -0.721   2.848   0.000  0.00  0.00     0.304 C 
ATOM      2  N   UNL d   1      -0.238   3.511   0.000  0.00  0.00    -0.269 N 
ATOM      3  C   UNL d   1       1.068   4.091   0.000  0.00  0.00     0.081 A 
ATOM      4  C   UNL d   1       0.580   3.424   0.000  0.00  0.00     0.088 A 
ATOM      5  O   UNL d   1      -0.388   2.098   0.000  0.00  0.00    -0.263 OA
ATOM      6  C   UNL d   1      -0.571   4.258   0.000  0.00  0.00     0.083 A 
ATOM      7  C   UNL d   1       0.738   4.846   0.000  0.00  0.00     0.008 A 
ATOM      8  C   UNL d   1      -0.083   4.934   0.000  0.00  0.00     0.019 A 
ENDROOT
BRANCH   1   9
ATOM      9  C   UNL d   1      -1.547   2.936   0.000  0.00  0.00     0.253 C 
ATOM     10  O   UNL d   1      -1.877   3.691   0.000  0.00  0.00    -0.281 OA
BRANCH   9  11
ATOM     11  C   UNL d   1      -2.027   2.273   0.000  0.00  0.00     0.064 A 
ATOM     12  C   UNL d   1      -1.785   1.485   0.000  0.00  0.00     0.102 A 
ATOM     13  N   UNL d   1      -2.448   1.001   0.000  0.00  0.00    -0.244 NA
ATOM     14  C   UNL d   1      -3.111   1.489   0.000  0.00  0.00     0.082 A 
ATOM     15  C   UNL d   1      -2.853   2.273   0.000  0.00  0.00     0.022 A 
ATOM     16  C   UNL d   1      -3.916   1.322   0.000  0.00  0.00     0.019 A 
ATOM     17  C   UNL d   1      -3.399   2.886   0.000  0.00  0.00     0.002 A 
ATOM     18  C   UNL d   1      -4.212   2.715   0.000  0.00  0.00     0.000 A 
ATOM     19  C   UNL d   1      -4.462   1.935   0.000  0.00  0.00     0.002 A 
ENDBRANCH   9  11
ENDBRANCH   1   9
BRANCH   3  20
ATOM     20  C   UNL d   1       1.889   4.008   0.000  0.00  0.00     0.302 C 
ATOM     21  O   UNL d   1       2.369   4.671   0.000  0.00  0.00    -0.259 OA
BRANCH  20  22
ATOM     22  O   UNL d   1       2.219   3.261   0.000  0.00  0.00    -0.271 OA
BRANCH  22  23
ATOM     23  C   UNL d   1       3.044   3.174   0.000  0.00  0.00     0.126 C 
ATOM     24  C   UNL d   1       3.370   2.410   0.000  0.00  0.00     0.029 C 
ENDBRANCH  22  23
ENDBRANCH  20  22
ENDBRANCH   3  20
TORSDOF 5
