REMARK  7 active torsions:
REMARK  status: ('A' for Active; 'I' for Inactive)
REMARK    1  A    between atoms: C_10  and  N_1 
REMARK    2  A    between atoms: S_8  and  C_6 
REMARK    3  A    between atoms: C_13  and  S_8 
REMARK    4  A    between atoms: C_11  and  C_13 
REMARK    5  A    between atoms: O_18  and  C_11 
REMARK    6  A    between atoms: C_22  and  C_13 
REMARK    7  A    between atoms: C_23  and  O_18 
ROOT
ATOM      1  N   UNL d   1       5.516 -10.528   0.000  0.00  0.00    -0.193 N 
ATOM      2  N   UNL d   1       5.045  -9.859   0.000  0.00  0.00    -0.058 NA
ATOM      3  C   UNL d   1       6.305 -10.280   0.000  0.00  0.00     0.188 A 
ATOM      4  C   UNL d   1       6.305  -9.455   0.000  0.00  0.00     0.164 A 
ATOM      5  N   UNL d   1       5.516  -9.207   0.000  0.00  0.00    -0.125 NA
ATOM      6  C   UNL d   1       7.015  -9.042   0.000  0.00  0.00     0.135 A 
ATOM      7  N   UNL d   1       7.015 -10.693   0.000  0.00  0.00    -0.203 NA
ATOM      8  N   UNL d   1       7.733  -9.455   0.000  0.00  0.00    -0.216 NA
ATOM      9  C   UNL d   1       7.733 -10.280   0.000  0.00  0.00     0.201 A 
ENDROOT
BRANCH   6  10
ATOM     10  S   UNL d   1       7.015  -8.216   0.000  0.00  0.00    -0.061 SA
BRANCH  10  11
ATOM     11  C   UNL d   1       6.305  -7.803   0.000  0.00  0.00     0.094 C 
BRANCH  11  12
ATOM     12  C   UNL d   1       6.309  -6.978   0.000  0.00  0.00     0.306 C 
ATOM     13  O   UNL d   1       7.023  -6.565   0.000  0.00  0.00    -0.258 OA
BRANCH  12  14
ATOM     14  O   UNL d   1       5.590  -6.565   0.000  0.00  0.00    -0.271 OA
BRANCH  14  15
ATOM     15  C   UNL d   1       5.590  -5.739   0.000  0.00  0.00     0.126 C 
ATOM     16  C   UNL d   1       4.884  -5.326   0.000  0.00  0.00     0.029 C 
ENDBRANCH  14  15
ENDBRANCH  12  14
ENDBRANCH  11  12
BRANCH  11  17
ATOM     17  C   UNL d   1       5.590  -8.216   0.000  0.00  0.00     0.012 C 
ATOM     18  C   UNL d   1       4.880  -7.808   0.000  0.00  0.00     0.001 C 
ENDBRANCH  11  17
ENDBRANCH  10  11
ENDBRANCH   6  10
BRANCH   1  19
ATOM     19  C   UNL d   1       5.219 -11.288   0.000  0.00  0.00     0.086 A 
ATOM     20  C   UNL d   1       4.401 -11.412   0.000  0.00  0.00     0.022 A 
ATOM     21  C   UNL d   1       4.100 -12.180   0.000  0.00  0.00     0.031 A 
ATOM     22  C   UNL d   1       4.599 -12.824   0.000  0.00  0.00     0.140 A 
ATOM     23  C   UNL d   1       5.429 -12.700   0.000  0.00  0.00     0.031 A 
ATOM     24  F   UNL d   1       4.273 -13.600   0.000  0.00  0.00    -0.204 F 
ATOM     25  C   UNL d   1       5.735 -11.940   0.000  0.00  0.00     0.022 A 
ENDBRANCH   1  19
TORSDOF 7
