REMARK  8 active torsions:
REMARK  status: ('A' for Active; 'I' for Inactive)
REMARK    1  A    between atoms: N_3  and  S_1 
REMARK    2  A    between atoms: C_5  and  S_1 
REMARK    3  A    between atoms: N_2  and  C_7 
REMARK    4  A    between atoms: C_6  and  N_3 
REMARK    5  A    between atoms: C_18  and  N_4 
REMARK    6  A    between atoms: C_7  and  C_6 
REMARK    7  A    between atoms: C_12  and  C_7 
REMARK    8  A    between atoms: O_23  and  C_17 
ROOT
ATOM      1  C   UNL d   1       6.023  -2.124   0.000  0.00  0.00     0.086 C 
ENDROOT
BRANCH   1   2
ATOM      2  N   UNL d   1       5.304  -2.544   0.000  0.00  0.00    -0.300 N 
ATOM      3  C   UNL d   1       4.593  -2.132   0.000  0.00  0.00     0.100 A 
ATOM      4  C   UNL d   1       3.878  -2.544   0.000  0.00  0.00     0.100 A 
ATOM      5  N   UNL d   1       3.878  -3.367   0.000  0.00  0.00    -0.301 N 
ATOM      6  C   UNL d   1       4.593  -3.779   0.000  0.00  0.00     0.100 A 
ATOM      7  C   UNL d   1       5.304  -3.367   0.000  0.00  0.00     0.100 A 
BRANCH   5   8
ATOM      8  C   UNL d   1       3.168  -3.779   0.000  0.00  0.00     0.064 A 
ATOM      9  C   UNL d   1       3.168  -4.606   0.000  0.00  0.00     0.018 A 
ATOM     10  C   UNL d   1       2.457  -5.018   0.000  0.00  0.00     0.002 A 
ATOM     11  C   UNL d   1       1.738  -4.606   0.000  0.00  0.00     0.000 A 
ATOM     12  C   UNL d   1       1.738  -3.779   0.000  0.00  0.00     0.002 A 
ATOM     13  C   UNL d   1       2.449  -3.367   0.000  0.00  0.00     0.018 A 
ENDBRANCH   5   8
ENDBRANCH   1   2
BRANCH   1  14
ATOM     14  C   UNL d   1       6.738  -2.536   0.000  0.00  0.00     0.130 C 
BRANCH  14  15
ATOM     15  N   UNL d   1       6.738  -3.367   0.000  0.00  0.00    -0.155 NA
BRANCH  15  16
ATOM     16  S   UNL d   1       7.449  -3.779   0.000  0.00  0.00     0.285 S 
ATOM     17  O   UNL d   1       7.911  -2.993   0.000  0.00  0.00    -0.198 OA
ATOM     18  O   UNL d   1       8.098  -4.178   0.000  0.00  0.00    -0.198 OA
BRANCH  16  19
ATOM     19  C   UNL d   1       7.034  -4.494   0.000  0.00  0.00     0.105 A 
ATOM     20  C   UNL d   1       7.445  -5.205   0.000  0.00  0.00     0.015 A 
ATOM     21  C   UNL d   1       7.034  -5.924   0.000  0.00  0.00     0.023 A 
ATOM     22  C   UNL d   1       7.449  -6.639   0.000  0.00  0.00     0.002 C 
ATOM     23  C   UNL d   1       6.202  -5.924   0.000  0.00  0.00     0.094 A 
ATOM     24  C   UNL d   1       5.791  -5.205   0.000  0.00  0.00     0.025 A 
ATOM     25  C   UNL d   1       6.202  -4.494   0.000  0.00  0.00     0.015 A 
BRANCH  23  26
ATOM     26  O   UNL d   1       5.787  -6.639   0.000  0.00  0.00    -0.328 OA
ATOM     27  C   UNL d   1       6.198  -7.362   0.000  0.00  0.00     0.181 C 
ENDBRANCH  23  26
ENDBRANCH  16  19
ENDBRANCH  15  16
ENDBRANCH  14  15
ENDBRANCH   1  14
BRANCH   1  28
ATOM     28  C   UNL d   1       6.023  -1.301   0.000  0.00  0.00     0.037 A 
ATOM     29  C   UNL d   1       6.738  -0.890   0.000  0.00  0.00     0.100 A 
ATOM     30  N   UNL d   1       6.738  -0.062   0.000  0.00  0.00    -0.242 NA
ATOM     31  C   UNL d   1       6.023   0.349   0.000  0.00  0.00     0.099 A 
ATOM     32  C   UNL d   1       5.313  -0.062   0.000  0.00  0.00     0.021 A 
ATOM     33  C   UNL d   1       5.313  -0.890   0.000  0.00  0.00     0.005 A 
ENDBRANCH   1  28
TORSDOF 8
