REMARK  5 active torsions:
REMARK  status: ('A' for Active; 'I' for Inactive)
REMARK    1  A    between atoms: C_10  and  C_4 
REMARK       I    between atoms: C_6  and  N_8 
REMARK    2  A    between atoms: C_9  and  C_6 
REMARK    3  A    between atoms: N_8  and  C_13 
REMARK    4  A    between atoms: C_11  and  C_9 
REMARK    5  A    between atoms: C_13  and  C_10 
ROOT
ATOM      1  C   UNL d   1       1.027   2.495   0.000  0.00  0.00     0.279 C 
ATOM      2  O   UNL d   1       0.378   1.984   0.000  0.00  0.00    -0.265 OA
ATOM      3  N   UNL d   1       1.786   2.191   0.000  0.00  0.00    -0.206 NA
ENDROOT
BRANCH   1   4
ATOM      4  C   UNL d   1       0.902   3.310   0.000  0.00  0.00     0.062 C 
BRANCH   4   5
ATOM      5  C   UNL d   1       1.547   3.834   0.000  0.00  0.00     0.005 A 
ATOM      6  C   UNL d   1       1.399   4.631   0.000  0.00  0.00     0.001 A 
ATOM      7  C   UNL d   1       2.035   5.156   0.000  0.00  0.00     0.011 A 
ATOM      8  C   UNL d   1       2.808   4.880   0.000  0.00  0.00     0.058 A 
ATOM      9  C   UNL d   1       2.955   4.069   0.000  0.00  0.00     0.011 A 
ATOM     10 CL   UNL d   1       3.443   5.418   0.000  0.00  0.00    -0.082 Cl
ATOM     11  C   UNL d   1       2.320   3.545   0.000  0.00  0.00     0.001 A 
ENDBRANCH   4   5
ENDBRANCH   1   4
BRANCH   3  12
ATOM     12  C   UNL d   1       2.444   2.716   0.000  0.00  0.00     0.104 C 
BRANCH  12  13
ATOM     13  C   UNL d   1       3.208   2.403   0.000  0.00  0.00     0.040 C 
BRANCH  13  14
ATOM     14  C   UNL d   1       3.858   2.923   0.000  0.00  0.00     0.090 A 
ATOM     15  N   UNL d   1       4.626   2.619   0.000  0.00  0.00    -0.238 NA
ATOM     16  C   UNL d   1       5.151   3.255   0.000  0.00  0.00     0.111 A 
ATOM     17  S   UNL d   1       4.714   3.945   0.000  0.00  0.00    -0.066 SA
ATOM     18  C   UNL d   1       5.980   3.213   0.000  0.00  0.00     0.028 C 
ATOM     19  C   UNL d   1       3.913   3.752   0.000  0.00  0.00     0.056 A 
ENDBRANCH  13  14
ENDBRANCH  12  13
ENDBRANCH   3  12
TORSDOF 5
