REMARK  4 active torsions:
REMARK  status: ('A' for Active; 'I' for Inactive)
REMARK       I    between atoms: C_4  and  N_10 
REMARK    1  A    between atoms: C_7  and  C_4 
REMARK    2  A    between atoms: C_11  and  C_5 
REMARK    3  A    between atoms: N_10  and  C_13 
REMARK    4  A    between atoms: C_13  and  C_11 
ROOT
ATOM      1  C   UNL d   1       0.018   3.102   0.000  0.00  0.00     0.279 C 
ATOM      2  O   UNL d   1      -0.202   3.897   0.000  0.00  0.00    -0.265 OA
ATOM      3  N   UNL d   1      -0.561   2.509   0.000  0.00  0.00    -0.206 NA
ENDROOT
BRANCH   1   4
ATOM      4  C   UNL d   1       0.832   2.890   0.000  0.00  0.00     0.058 A 
ATOM      5  C   UNL d   1       1.052   2.095   0.000  0.00  0.00     0.005 A 
ATOM      6  C   UNL d   1       1.838   1.884   0.000  0.00  0.00     0.000 A 
ATOM      7  C   UNL d   1       2.045   1.085   0.000  0.00  0.00     0.000 C 
ATOM      8  C   UNL d   1       2.417   2.468   0.000  0.00  0.00     0.000 A 
ATOM      9  C   UNL d   1       2.210   3.263   0.000  0.00  0.00     0.000 A 
ATOM     10  C   UNL d   1       1.420   3.483   0.000  0.00  0.00     0.005 A 
ENDBRANCH   1   4
BRANCH   3  11
ATOM     11  C   UNL d   1      -1.346   2.711   0.000  0.00  0.00     0.104 C 
BRANCH  11  12
ATOM     12  C   UNL d   1      -1.925   2.118   0.000  0.00  0.00     0.040 C 
BRANCH  12  13
ATOM     13  C   UNL d   1      -2.711   2.316   0.000  0.00  0.00     0.090 A 
ATOM     14  N   UNL d   1      -2.946   3.111   0.000  0.00  0.00    -0.238 NA
ATOM     15  C   UNL d   1      -3.764   3.139   0.000  0.00  0.00     0.111 A 
ATOM     16  S   UNL d   1      -4.048   2.371   0.000  0.00  0.00    -0.066 SA
ATOM     17  C   UNL d   1      -4.242   3.828   0.000  0.00  0.00     0.028 C 
ATOM     18  C   UNL d   1      -3.401   1.857   0.000  0.00  0.00     0.056 A 
ENDBRANCH  12  13
ENDBRANCH  11  12
ENDBRANCH   3  11
TORSDOF 4
