REMARK  7 active torsions:
REMARK  status: ('A' for Active; 'I' for Inactive)
REMARK    1  A    between atoms: C_7  and  S_1 
REMARK    2  A    between atoms: N_11  and  S_1 
REMARK    3  A    between atoms: C_5  and  C_2 
REMARK    4  A    between atoms: C_6  and  C_15 
REMARK    5  A    between atoms: C_18  and  N_11 
REMARK    6  A    between atoms: C_15  and  C_18 
REMARK    7  A    between atoms: O_21  and  C_17 
ROOT
ATOM      1  C   UNL d   1      -1.620   2.691   0.000  0.00  0.00     0.114 C 
ENDROOT
BRANCH   1   2
ATOM      2  C   UNL d   1      -2.229   2.137   0.000  0.00  0.00     0.041 C 
BRANCH   2   3
ATOM      3  C   UNL d   1      -3.022   2.380   0.000  0.00  0.00     0.090 A 
ATOM      4  N   UNL d   1      -3.283   3.169   0.000  0.00  0.00    -0.238 NA
ATOM      5  C   UNL d   1      -4.114   3.157   0.000  0.00  0.00     0.112 A 
ATOM      6  S   UNL d   1      -4.365   2.368   0.000  0.00  0.00    -0.066 SA
ATOM      7  C   UNL d   1      -3.686   1.885   0.000  0.00  0.00     0.056 A 
BRANCH   5   8
ATOM      8  C   UNL d   1      -4.617   3.824   0.000  0.00  0.00     0.043 A 
ATOM      9  C   UNL d   1      -5.436   3.723   0.000  0.00  0.00     0.101 A 
ATOM     10  N   UNL d   1      -5.927   4.374   0.000  0.00  0.00    -0.242 NA
ATOM     11  C   UNL d   1      -5.604   5.130   0.000  0.00  0.00     0.099 A 
ATOM     12  C   UNL d   1      -4.769   5.230   0.000  0.00  0.00     0.021 A 
ATOM     13  C   UNL d   1      -4.277   4.575   0.000  0.00  0.00     0.005 A 
ENDBRANCH   5   8
ENDBRANCH   2   3
ENDBRANCH   1   2
BRANCH   1  14
ATOM     14  N   UNL d   1      -0.819   2.430   0.000  0.00  0.00    -0.157 NA
BRANCH  14  15
ATOM     15  S   UNL d   1      -0.210   2.993   0.000  0.00  0.00     0.285 S 
ATOM     16  O   UNL d   1       0.353   2.376   0.000  0.00  0.00    -0.198 OA
ATOM     17  O   UNL d   1      -0.768   3.610   0.000  0.00  0.00    -0.198 OA
BRANCH  15  18
ATOM     18  C   UNL d   1       0.403   3.547   0.000  0.00  0.00     0.105 A 
ATOM     19  C   UNL d   1       0.218   4.349   0.000  0.00  0.00     0.015 A 
ATOM     20  C   UNL d   1       0.835   4.911   0.000  0.00  0.00     0.025 A 
ATOM     21  C   UNL d   1       1.616   4.664   0.000  0.00  0.00     0.094 A 
ATOM     22  C   UNL d   1       1.792   3.862   0.000  0.00  0.00     0.025 A 
ATOM     23  C   UNL d   1       1.196   3.295   0.000  0.00  0.00     0.015 A 
BRANCH  21  24
ATOM     24  O   UNL d   1       2.229   5.218   0.000  0.00  0.00    -0.328 OA
ATOM     25  C   UNL d   1       2.053   6.024   0.000  0.00  0.00     0.181 C 
ENDBRANCH  21  24
ENDBRANCH  15  18
ENDBRANCH  14  15
ENDBRANCH   1  14
TORSDOF 7
