REMARK  5 active torsions:
REMARK  status: ('A' for Active; 'I' for Inactive)
REMARK    1  A    between atoms: N_9  and  S_1 
REMARK    2  A    between atoms: C_11  and  S_1 
REMARK    3  A    between atoms: C_5  and  C_10 
REMARK    4  A    between atoms: C_12  and  N_9 
REMARK    5  A    between atoms: C_10  and  C_12 
ROOT
ATOM      1  C   UNL d   1      -2.219   2.127   0.000  0.00  0.00     0.041 C 
ENDROOT
BRANCH   1   2
ATOM      2  C   UNL d   1      -3.009   2.369   0.000  0.00  0.00     0.090 A 
ATOM      3  N   UNL d   1      -3.268   3.155   0.000  0.00  0.00    -0.238 NA
ATOM      4  C   UNL d   1      -4.095   3.142   0.000  0.00  0.00     0.111 A 
ATOM      5  C   UNL d   1      -4.596   3.807   0.000  0.00  0.00     0.028 C 
ATOM      6  S   UNL d   1      -4.346   2.357   0.000  0.00  0.00    -0.066 SA
ATOM      7  C   UNL d   1      -3.669   1.876   0.000  0.00  0.00     0.056 A 
ENDBRANCH   1   2
BRANCH   1   8
ATOM      8  C   UNL d   1      -1.613   2.678   0.000  0.00  0.00     0.114 C 
BRANCH   8   9
ATOM      9  N   UNL d   1      -0.815   2.419   0.000  0.00  0.00    -0.157 NA
BRANCH   9  10
ATOM     10  S   UNL d   1      -0.209   2.979   0.000  0.00  0.00     0.286 S 
ATOM     11  O   UNL d   1       0.351   2.365   0.000  0.00  0.00    -0.198 OA
ATOM     12  O   UNL d   1      -0.765   3.594   0.000  0.00  0.00    -0.198 OA
BRANCH  10  13
ATOM     13  C   UNL d   1       0.401   3.531   0.000  0.00  0.00     0.117 C 
ATOM     14  C   UNL d   1       0.226   4.329   0.000  0.00  0.00     0.014 C 
ENDBRANCH  10  13
ENDBRANCH   9  10
ENDBRANCH   8   9
ENDBRANCH   1   8
TORSDOF 5
