REMARK  6 active torsions:
REMARK  status: ('A' for Active; 'I' for Inactive)
REMARK    1  A    between atoms: C_7  and  S_1 
REMARK    2  A    between atoms: N_11  and  S_1 
REMARK    3  A    between atoms: C_5  and  C_2 
REMARK    4  A    between atoms: C_6  and  C_15 
REMARK    5  A    between atoms: C_18  and  N_11 
REMARK    6  A    between atoms: C_15  and  C_18 
ROOT
ATOM      1  C   UNL d   1      -2.228   2.135   0.000  0.00  0.00     0.041 C 
ENDROOT
BRANCH   1   2
ATOM      2  C   UNL d   1      -3.021   2.379   0.000  0.00  0.00     0.090 A 
ATOM      3  N   UNL d   1      -3.281   3.167   0.000  0.00  0.00    -0.238 NA
ATOM      4  C   UNL d   1      -4.111   3.155   0.000  0.00  0.00     0.112 A 
ATOM      5  S   UNL d   1      -4.363   2.366   0.000  0.00  0.00    -0.066 SA
ATOM      6  C   UNL d   1      -3.683   1.884   0.000  0.00  0.00     0.056 A 
BRANCH   4   7
ATOM      7  C   UNL d   1      -4.615   3.822   0.000  0.00  0.00     0.043 A 
ATOM      8  C   UNL d   1      -5.433   3.721   0.000  0.00  0.00     0.101 A 
ATOM      9  N   UNL d   1      -5.924   4.371   0.000  0.00  0.00    -0.242 NA
ATOM     10  C   UNL d   1      -5.601   5.127   0.000  0.00  0.00     0.099 A 
ATOM     11  C   UNL d   1      -4.766   5.227   0.000  0.00  0.00     0.021 A 
ATOM     12  C   UNL d   1      -4.275   4.573   0.000  0.00  0.00     0.005 A 
ENDBRANCH   4   7
ENDBRANCH   1   2
BRANCH   1  13
ATOM     13  C   UNL d   1      -1.619   2.689   0.000  0.00  0.00     0.114 C 
BRANCH  13  14
ATOM     14  N   UNL d   1      -0.818   2.429   0.000  0.00  0.00    -0.157 NA
BRANCH  14  15
ATOM     15  S   UNL d   1      -0.210   2.991   0.000  0.00  0.00     0.285 S 
ATOM     16  O   UNL d   1       0.352   2.374   0.000  0.00  0.00    -0.198 OA
ATOM     17  O   UNL d   1      -0.768   3.608   0.000  0.00  0.00    -0.198 OA
BRANCH  15  18
ATOM     18  C   UNL d   1       0.403   3.545   0.000  0.00  0.00     0.105 A 
ATOM     19  C   UNL d   1       0.218   4.346   0.000  0.00  0.00     0.015 A 
ATOM     20  C   UNL d   1       0.835   4.908   0.000  0.00  0.00     0.030 A 
ATOM     21  C   UNL d   1       1.615   4.661   0.000  0.00  0.00     0.140 A 
ATOM     22  C   UNL d   1       1.791   3.860   0.000  0.00  0.00     0.030 A 
ATOM     23  F   UNL d   1       2.228   5.215   0.000  0.00  0.00    -0.204 F 
ATOM     24  C   UNL d   1       1.196   3.293   0.000  0.00  0.00     0.015 A 
ENDBRANCH  15  18
ENDBRANCH  14  15
ENDBRANCH  13  14
ENDBRANCH   1  13
TORSDOF 6
