REMARK  5 active torsions:
REMARK  status: ('A' for Active; 'I' for Inactive)
REMARK    1  A    between atoms: C_4  and  S_1 
REMARK    2  A    between atoms: N_7  and  S_1 
REMARK    3  A    between atoms: C_8  and  C_2 
REMARK    4  A    between atoms: C_6  and  C_13 
REMARK    5  A    between atoms: C_13  and  N_7 
ROOT
ATOM      1  C   UNL d   1      -3.808   1.705   0.000  0.00  0.00     0.112 A 
ATOM      2  N   UNL d   1      -3.131   2.190   0.000  0.00  0.00    -0.237 NA
ATOM      3  S   UNL d   1      -3.549   0.924   0.000  0.00  0.00    -0.066 SA
ATOM      4  C   UNL d   1      -2.470   1.705   0.000  0.00  0.00     0.108 A 
ATOM      5  C   UNL d   1      -2.721   0.924   0.000  0.00  0.00     0.058 A 
ENDROOT
BRANCH   4   6
ATOM      6  C   UNL d   1      -1.680   1.964   0.000  0.00  0.00     0.132 C 
BRANCH   6   7
ATOM      7  N   UNL d   1      -1.505   2.767   0.000  0.00  0.00    -0.155 NA
BRANCH   7   8
ATOM      8  S   UNL d   1      -0.715   3.030   0.000  0.00  0.00     0.291 S 
ATOM      9  O   UNL d   1      -0.974   3.812   0.000  0.00  0.00    -0.198 OA
ATOM     10  O   UNL d   1      -0.460   2.232   0.000  0.00  0.00    -0.198 OA
BRANCH   8  11
ATOM     11  C   UNL d   1       0.067   3.281   0.000  0.00  0.00     0.135 A 
ATOM     12  S   UNL d   1       0.318   4.042   0.000  0.00  0.00    -0.073 SA
ATOM     13  C   UNL d   1       1.141   4.054   0.000  0.00  0.00     0.036 A 
ATOM     14  C   UNL d   1       1.396   3.268   0.000  0.00  0.00     0.008 A 
ATOM     15  C   UNL d   1       0.732   2.784   0.000  0.00  0.00     0.020 A 
ENDBRANCH   8  11
ENDBRANCH   7   8
ENDBRANCH   6   7
ENDBRANCH   4   6
BRANCH   1  16
ATOM     16  C   UNL d   1      -4.598   1.964   0.000  0.00  0.00     0.043 A 
ATOM     17  C   UNL d   1      -5.199   1.400   0.000  0.00  0.00     0.101 A 
ATOM     18  N   UNL d   1      -5.989   1.651   0.000  0.00  0.00    -0.242 NA
ATOM     19  C   UNL d   1      -6.148   2.453   0.000  0.00  0.00     0.099 A 
ATOM     20  C   UNL d   1      -5.538   3.018   0.000  0.00  0.00     0.021 A 
ATOM     21  C   UNL d   1      -4.761   2.767   0.000  0.00  0.00     0.005 A 
ENDBRANCH   1  16
TORSDOF 5
