REMARK  8 active torsions:
REMARK  status: ('A' for Active; 'I' for Inactive)
REMARK    1  A    between atoms: N_6  and  S_1 
REMARK    2  A    between atoms: C_18  and  S_1 
REMARK    3  A    between atoms: N_2  and  C_4 
REMARK    4  A    between atoms: C_7  and  N_3 
REMARK    5  A    between atoms: C_4  and  C_5 
REMARK    6  A    between atoms: C_10  and  C_4 
REMARK    7  A    between atoms: C_5  and  N_6 
REMARK    8  A    between atoms: O_23  and  C_19 
ROOT
ATOM      1  N   UNL d   1       7.449  -2.469   0.000  0.00  0.00    -0.300 N 
ATOM      2  N   UNL d   1       6.023  -3.292   0.000  0.00  0.00    -0.301 N 
ATOM      3  C   UNL d   1       6.738  -2.058   0.000  0.00  0.00     0.100 A 
ATOM      4  C   UNL d   1       7.449  -3.292   0.000  0.00  0.00     0.100 A 
ATOM      5  C   UNL d   1       6.738  -3.704   0.000  0.00  0.00     0.100 A 
ATOM      6  C   UNL d   1       6.023  -2.469   0.000  0.00  0.00     0.100 A 
ENDROOT
BRANCH   1   7
ATOM      7  C   UNL d   1       8.168  -2.049   0.000  0.00  0.00     0.086 C 
BRANCH   7   8
ATOM      8  C   UNL d   1       8.883  -2.461   0.000  0.00  0.00     0.130 C 
BRANCH   8   9
ATOM      9  N   UNL d   1       8.883  -3.292   0.000  0.00  0.00    -0.155 NA
BRANCH   9  10
ATOM     10  S   UNL d   1       9.594  -3.704   0.000  0.00  0.00     0.286 S 
ATOM     11  O   UNL d   1      10.006  -2.985   0.000  0.00  0.00    -0.198 OA
ATOM     12  O   UNL d   1       9.178  -4.419   0.000  0.00  0.00    -0.198 OA
BRANCH  10  13
ATOM     13  C   UNL d   1      10.305  -4.120   0.000  0.00  0.00     0.117 C 
ATOM     14  C   UNL d   1      11.028  -3.708   0.000  0.00  0.00     0.014 C 
ENDBRANCH  10  13
ENDBRANCH   9  10
ENDBRANCH   8   9
ENDBRANCH   7   8
BRANCH   7  15
ATOM     15  C   UNL d   1       8.168  -1.226   0.000  0.00  0.00     0.037 A 
ATOM     16  C   UNL d   1       8.883  -0.815   0.000  0.00  0.00     0.100 A 
ATOM     17  N   UNL d   1       8.883   0.013   0.000  0.00  0.00    -0.242 NA
ATOM     18  C   UNL d   1       8.168   0.424   0.000  0.00  0.00     0.099 A 
ATOM     19  C   UNL d   1       7.457   0.013   0.000  0.00  0.00     0.021 A 
ATOM     20  C   UNL d   1       7.457  -0.815   0.000  0.00  0.00     0.005 A 
ENDBRANCH   7  15
ENDBRANCH   1   7
BRANCH   2  21
ATOM     21  C   UNL d   1       5.313  -3.704   0.000  0.00  0.00     0.064 A 
ATOM     22  C   UNL d   1       5.313  -4.531   0.000  0.00  0.00     0.020 A 
ATOM     23  C   UNL d   1       4.602  -4.943   0.000  0.00  0.00     0.026 A 
ATOM     24  C   UNL d   1       3.883  -4.531   0.000  0.00  0.00     0.094 A 
ATOM     25  C   UNL d   1       3.883  -3.704   0.000  0.00  0.00     0.026 A 
ATOM     26  C   UNL d   1       4.593  -3.292   0.000  0.00  0.00     0.020 A 
BRANCH  24  27
ATOM     27  O   UNL d   1       3.159  -4.943   0.000  0.00  0.00    -0.328 OA
ATOM     28  C   UNL d   1       2.436  -4.531   0.000  0.00  0.00     0.181 C 
ENDBRANCH  24  27
ENDBRANCH   2  21
TORSDOF 8
