REMARK  3 active torsions:
REMARK  status: ('A' for Active; 'I' for Inactive)
REMARK    1  A    between atoms: C_8  and  C_3 
REMARK    2  A    between atoms: O_18  and  C_12 
REMARK    3  A    between atoms: O_19  and  C_13 
ROOT
ATOM      1  S   UNL d   1      -2.803   3.504   0.000  0.00  0.00     0.211 S 
ATOM      2  C   UNL d   1      -3.597   3.139   0.000  0.00  0.00     0.103 A 
ATOM      3  C   UNL d   1      -2.046   3.111   0.000  0.00  0.00     0.093 A 
ATOM      4  N   UNL d   1      -3.252   1.808   0.000  0.00  0.00    -0.321 N 
ATOM      5  C   UNL d   1      -2.411   1.803   0.000  0.00  0.00     0.258 A 
ATOM      6  C   UNL d   1      -3.752   2.336   0.000  0.00  0.00     0.070 A 
ATOM      7  C   UNL d   1      -1.915   2.308   0.000  0.00  0.00     0.072 A 
ATOM      8  O   UNL d   1      -2.518   4.261   0.000  0.00  0.00    -0.217 OA
ATOM      9  O   UNL d   1      -3.555   3.934   0.000  0.00  0.00    -0.217 OA
ATOM     10  O   UNL d   1      -2.056   0.953   0.000  0.00  0.00    -0.267 OA
ATOM     11  C   UNL d   1      -4.214   3.681   0.000  0.00  0.00     0.013 A 
ATOM     12  C   UNL d   1      -4.522   2.070   0.000  0.00  0.00     0.018 A 
ATOM     13  C   UNL d   1      -4.999   3.415   0.000  0.00  0.00     0.001 A 
ATOM     14  C   UNL d   1      -5.139   2.602   0.000  0.00  0.00     0.002 A 
ATOM     15  H   UNL d   1      -3.574   1.046   0.000  0.00  0.00     0.169 HD
ENDROOT
BRANCH   3  16
ATOM     16  C   UNL d   1      -1.373   3.597   0.000  0.00  0.00     0.013 A 
ATOM     17  C   UNL d   1      -0.617   3.261   0.000  0.00  0.00     0.027 A 
ATOM     18  C   UNL d   1       0.047   3.752   0.000  0.00  0.00     0.116 A 
ATOM     19  C   UNL d   1      -0.037   4.560   0.000  0.00  0.00     0.116 A 
ATOM     20  C   UNL d   1      -0.794   4.905   0.000  0.00  0.00     0.026 A 
ATOM     21  C   UNL d   1      -1.467   4.424   0.000  0.00  0.00     0.003 A 
BRANCH  18  22
ATOM     22  O   UNL d   1       0.804   3.415   0.000  0.00  0.00    -0.326 OA
ATOM     23  C   UNL d   1       1.476   3.892   0.000  0.00  0.00     0.181 C 
ENDBRANCH  18  22
BRANCH  19  24
ATOM     24  O   UNL d   1       0.635   5.050   0.000  0.00  0.00    -0.326 OA
ATOM     25  C   UNL d   1       0.551   5.863   0.000  0.00  0.00     0.181 C 
ENDBRANCH  19  24
ENDBRANCH   3  16
TORSDOF 3
