REMARK  6 active torsions:
REMARK  status: ('A' for Active; 'I' for Inactive)
REMARK    1  A    between atoms: C_3  and  S_1 
REMARK    2  A    between atoms: N_12  and  S_1 
REMARK    3  A    between atoms: C_6  and  C_16 
REMARK    4  A    between atoms: C_17  and  N_12 
REMARK    5  A    between atoms: O_18  and  C_13 
REMARK    6  A    between atoms: C_16  and  C_17 
ROOT
ATOM      1  S   UNL d   1      -0.209   2.981   0.000  0.00  0.00     0.285 S 
ATOM      2  O   UNL d   1       0.351   2.366   0.000  0.00  0.00    -0.198 OA
ATOM      3  O   UNL d   1      -0.765   3.595   0.000  0.00  0.00    -0.198 OA
ENDROOT
BRANCH   1   4
ATOM      4  C   UNL d   1       0.401   3.533   0.000  0.00  0.00     0.105 A 
ATOM      5  C   UNL d   1       1.183   3.282   0.000  0.00  0.00     0.015 A 
ATOM      6  C   UNL d   1       1.794   3.846   0.000  0.00  0.00     0.023 A 
ATOM      7  C   UNL d   1       2.584   3.595   0.000  0.00  0.00     0.002 C 
ATOM      8  C   UNL d   1       1.618   4.641   0.000  0.00  0.00     0.094 A 
ATOM      9  C   UNL d   1       0.832   4.891   0.000  0.00  0.00     0.025 A 
ATOM     10  C   UNL d   1       0.226   4.340   0.000  0.00  0.00     0.015 A 
BRANCH   8  11
ATOM     11  O   UNL d   1       2.224   5.197   0.000  0.00  0.00    -0.328 OA
ATOM     12  C   UNL d   1       2.049   5.999   0.000  0.00  0.00     0.181 C 
ENDBRANCH   8  11
ENDBRANCH   1   4
BRANCH   1  13
ATOM     13  N   UNL d   1      -0.815   2.421   0.000  0.00  0.00    -0.157 NA
BRANCH  13  14
ATOM     14  C   UNL d   1      -1.614   2.680   0.000  0.00  0.00     0.114 C 
BRANCH  14  15
ATOM     15  C   UNL d   1      -2.220   2.128   0.000  0.00  0.00     0.041 C 
BRANCH  15  16
ATOM     16  C   UNL d   1      -3.010   2.370   0.000  0.00  0.00     0.090 A 
ATOM     17  N   UNL d   1      -3.269   3.156   0.000  0.00  0.00    -0.238 NA
ATOM     18  C   UNL d   1      -4.097   3.144   0.000  0.00  0.00     0.111 A 
ATOM     19  C   UNL d   1      -4.599   3.809   0.000  0.00  0.00     0.028 C 
ATOM     20  S   UNL d   1      -4.348   2.358   0.000  0.00  0.00    -0.066 SA
ATOM     21  C   UNL d   1      -3.671   1.877   0.000  0.00  0.00     0.056 A 
ENDBRANCH  15  16
ENDBRANCH  14  15
ENDBRANCH  13  14
ENDBRANCH   1  13
TORSDOF 6
