REMARK  8 active torsions:
REMARK  status: ('A' for Active; 'I' for Inactive)
REMARK    1  A    between atoms: N_4  and  S_1 
REMARK    2  A    between atoms: C_10  and  S_1 
REMARK    3  A    between atoms: C_7  and  N_2 
REMARK    4  A    between atoms: N_3  and  C_6 
REMARK    5  A    between atoms: C_5  and  N_4 
REMARK    6  A    between atoms: C_6  and  C_5 
REMARK    7  A    between atoms: C_11  and  C_6 
REMARK    8  A    between atoms: O_19  and  C_17 
ROOT
ATOM      1  C   UNL d   1       7.437  -2.120   0.000  0.00  0.00     0.086 C 
ENDROOT
BRANCH   1   2
ATOM      2  N   UNL d   1       6.722  -2.536   0.000  0.00  0.00    -0.300 N 
ATOM      3  C   UNL d   1       6.003  -2.124   0.000  0.00  0.00     0.100 A 
ATOM      4  C   UNL d   1       5.292  -2.536   0.000  0.00  0.00     0.100 A 
ATOM      5  N   UNL d   1       5.292  -3.359   0.000  0.00  0.00    -0.300 N 
ATOM      6  C   UNL d   1       6.003  -3.770   0.000  0.00  0.00     0.100 A 
ATOM      7  C   UNL d   1       6.722  -3.359   0.000  0.00  0.00     0.100 A 
BRANCH   5   8
ATOM      8  C   UNL d   1       4.581  -3.770   0.000  0.00  0.00     0.086 A 
ATOM      9  C   UNL d   1       3.870  -3.359   0.000  0.00  0.00     0.110 A 
ATOM     10  C   UNL d   1       3.155  -3.770   0.000  0.00  0.00     0.026 A 
ATOM     11  C   UNL d   1       3.155  -4.602   0.000  0.00  0.00     0.002 A 
ATOM     12  C   UNL d   1       3.870  -5.013   0.000  0.00  0.00     0.002 A 
ATOM     13  C   UNL d   1       4.581  -4.602   0.000  0.00  0.00     0.019 A 
BRANCH   9  14
ATOM     14  O   UNL d   1       3.870  -2.536   0.000  0.00  0.00    -0.327 OA
ATOM     15  C   UNL d   1       3.159  -2.124   0.000  0.00  0.00     0.181 C 
ENDBRANCH   9  14
ENDBRANCH   5   8
ENDBRANCH   1   2
BRANCH   1  16
ATOM     16  C   UNL d   1       8.160  -2.532   0.000  0.00  0.00     0.130 C 
BRANCH  16  17
ATOM     17  N   UNL d   1       8.871  -2.112   0.000  0.00  0.00    -0.155 NA
BRANCH  17  18
ATOM     18  S   UNL d   1       9.590  -2.523   0.000  0.00  0.00     0.285 S 
ATOM     19  O   UNL d   1      10.305  -2.935   0.000  0.00  0.00    -0.198 OA
ATOM     20  O   UNL d   1       9.993  -1.800   0.000  0.00  0.00    -0.198 OA
BRANCH  18  21
ATOM     21  C   UNL d   1       9.178  -3.247   0.000  0.00  0.00     0.105 A 
ATOM     22  C   UNL d   1       8.355  -3.247   0.000  0.00  0.00     0.013 A 
ATOM     23  C   UNL d   1       7.944  -3.957   0.000  0.00  0.00     0.001 A 
ATOM     24  C   UNL d   1       8.360  -4.689   0.000  0.00  0.00     0.000 A 
ATOM     25  C   UNL d   1       9.191  -4.681   0.000  0.00  0.00     0.001 A 
ATOM     26  C   UNL d   1       9.594  -3.957   0.000  0.00  0.00     0.013 A 
ENDBRANCH  18  21
ENDBRANCH  17  18
ENDBRANCH  16  17
ENDBRANCH   1  16
BRANCH   1  27
ATOM     27  C   UNL d   1       7.437  -1.297   0.000  0.00  0.00     0.037 A 
ATOM     28  C   UNL d   1       8.148  -0.885   0.000  0.00  0.00     0.100 A 
ATOM     29  N   UNL d   1       8.148  -0.054   0.000  0.00  0.00    -0.242 NA
ATOM     30  C   UNL d   1       7.437   0.357   0.000  0.00  0.00     0.099 A 
ATOM     31  C   UNL d   1       6.726  -0.054   0.000  0.00  0.00     0.021 A 
ATOM     32  C   UNL d   1       6.726  -0.885   0.000  0.00  0.00     0.005 A 
ENDBRANCH   1  27
TORSDOF 8
