REMARK  6 active torsions:
REMARK  status: ('A' for Active; 'I' for Inactive)
REMARK    1  A    between atoms: C_10  and  N_1 
REMARK    2  A    between atoms: S_8  and  C_6 
REMARK    3  A    between atoms: C_13  and  S_8 
REMARK    4  A    between atoms: C_11  and  C_13 
REMARK    5  A    between atoms: O_18  and  C_11 
REMARK    6  A    between atoms: C_23  and  O_18 
ROOT
ATOM      1  N   UNL d   1      -7.094   2.145   0.000  0.00  0.00    -0.193 N 
ATOM      2  N   UNL d   1      -7.565   2.813   0.000  0.00  0.00    -0.058 NA
ATOM      3  C   UNL d   1      -6.311   2.392   0.000  0.00  0.00     0.188 A 
ATOM      4  C   UNL d   1      -6.311   3.217   0.000  0.00  0.00     0.164 A 
ATOM      5  N   UNL d   1      -7.094   3.465   0.000  0.00  0.00    -0.125 NA
ATOM      6  C   UNL d   1      -5.609   3.630   0.000  0.00  0.00     0.135 A 
ATOM      7  N   UNL d   1      -5.609   1.980   0.000  0.00  0.00    -0.203 NA
ATOM      8  N   UNL d   1      -4.892   3.217   0.000  0.00  0.00    -0.216 NA
ATOM      9  C   UNL d   1      -4.892   2.392   0.000  0.00  0.00     0.201 A 
ENDROOT
BRANCH   6  10
ATOM     10  S   UNL d   1      -5.609   4.455   0.000  0.00  0.00    -0.061 SA
BRANCH  10  11
ATOM     11  C   UNL d   1      -6.311   4.867   0.000  0.00  0.00     0.094 C 
ATOM     12  C   UNL d   1      -7.020   4.455   0.000  0.00  0.00     0.013 C 
BRANCH  11  13
ATOM     13  C   UNL d   1      -6.302   5.692   0.000  0.00  0.00     0.306 C 
ATOM     14  O   UNL d   1      -5.593   6.104   0.000  0.00  0.00    -0.258 OA
BRANCH  13  15
ATOM     15  O   UNL d   1      -7.020   6.104   0.000  0.00  0.00    -0.271 OA
BRANCH  15  16
ATOM     16  C   UNL d   1      -7.020   6.929   0.000  0.00  0.00     0.126 C 
ATOM     17  C   UNL d   1      -7.738   7.342   0.000  0.00  0.00     0.029 C 
ENDBRANCH  15  16
ENDBRANCH  13  15
ENDBRANCH  11  13
ENDBRANCH  10  11
ENDBRANCH   6  10
BRANCH   1  18
ATOM     18  C   UNL d   1      -7.391   1.386   0.000  0.00  0.00     0.086 A 
ATOM     19  C   UNL d   1      -8.208   1.262   0.000  0.00  0.00     0.022 A 
ATOM     20  C   UNL d   1      -8.513   0.495   0.000  0.00  0.00     0.031 A 
ATOM     21  C   UNL d   1      -8.010  -0.148   0.000  0.00  0.00     0.140 A 
ATOM     22  C   UNL d   1      -7.193  -0.025   0.000  0.00  0.00     0.031 A 
ATOM     23  F   UNL d   1      -8.357  -0.924   0.000  0.00  0.00    -0.204 F 
ATOM     24  C   UNL d   1      -6.880   0.734   0.000  0.00  0.00     0.022 A 
ENDBRANCH   1  18
TORSDOF 6
