REMARK  7 active torsions:
REMARK  status: ('A' for Active; 'I' for Inactive)
REMARK    1  A    between atoms: N_3  and  S_1 
REMARK    2  A    between atoms: C_6  and  S_1 
REMARK    3  A    between atoms: N_2  and  C_5 
REMARK    4  A    between atoms: C_4  and  N_3 
REMARK    5  A    between atoms: C_5  and  C_4 
REMARK    6  A    between atoms: C_10  and  C_5 
REMARK    7  A    between atoms: C_22  and  N_7 
ROOT
ATOM      1  C   UNL d   1       7.088  -2.270   0.000  0.00  0.00     0.086 C 
ENDROOT
BRANCH   1   2
ATOM      2  N   UNL d   1       6.373  -2.685   0.000  0.00  0.00    -0.300 N 
ATOM      3  C   UNL d   1       5.662  -2.274   0.000  0.00  0.00     0.100 A 
ATOM      4  C   UNL d   1       4.943  -2.685   0.000  0.00  0.00     0.100 A 
ATOM      5  N   UNL d   1       4.943  -3.509   0.000  0.00  0.00    -0.300 N 
ATOM      6  C   UNL d   1       5.662  -3.920   0.000  0.00  0.00     0.100 A 
ATOM      7  C   UNL d   1       6.373  -3.509   0.000  0.00  0.00     0.100 A 
BRANCH   5   8
ATOM      8  C   UNL d   1       4.228  -3.928   0.000  0.00  0.00     0.080 C 
ATOM      9  C   UNL d   1       3.509  -3.517   0.000  0.00  0.00     0.021 C 
ENDBRANCH   5   8
ENDBRANCH   1   2
BRANCH   1  10
ATOM     10  C   UNL d   1       7.807  -2.681   0.000  0.00  0.00     0.130 C 
BRANCH  10  11
ATOM     11  N   UNL d   1       7.807  -3.509   0.000  0.00  0.00    -0.155 NA
BRANCH  11  12
ATOM     12  S   UNL d   1       8.518  -3.920   0.000  0.00  0.00     0.285 S 
ATOM     13  O   UNL d   1       9.233  -4.332   0.000  0.00  0.00    -0.198 OA
ATOM     14  O   UNL d   1       8.933  -3.197   0.000  0.00  0.00    -0.198 OA
BRANCH  12  15
ATOM     15  C   UNL d   1       8.098  -4.639   0.000  0.00  0.00     0.105 A 
ATOM     16  C   UNL d   1       7.275  -4.639   0.000  0.00  0.00     0.013 A 
ATOM     17  C   UNL d   1       6.863  -5.350   0.000  0.00  0.00     0.001 A 
ATOM     18  C   UNL d   1       7.275  -6.065   0.000  0.00  0.00     0.000 A 
ATOM     19  C   UNL d   1       8.098  -6.065   0.000  0.00  0.00     0.001 A 
ATOM     20  C   UNL d   1       6.859  -6.788   0.000  0.00  0.00     0.000 C 
ATOM     21  C   UNL d   1       8.509  -5.354   0.000  0.00  0.00     0.013 A 
ENDBRANCH  12  15
ENDBRANCH  11  12
ENDBRANCH  10  11
ENDBRANCH   1  10
BRANCH   1  22
ATOM     22  C   UNL d   1       7.088  -1.438   0.000  0.00  0.00     0.037 A 
ATOM     23  C   UNL d   1       7.807  -1.027   0.000  0.00  0.00     0.100 A 
ATOM     24  N   UNL d   1       7.807  -0.204   0.000  0.00  0.00    -0.242 NA
ATOM     25  C   UNL d   1       7.088   0.208   0.000  0.00  0.00     0.099 A 
ATOM     26  C   UNL d   1       6.377  -0.204   0.000  0.00  0.00     0.021 A 
ATOM     27  C   UNL d   1       6.377  -1.027   0.000  0.00  0.00     0.005 A 
ENDBRANCH   1  22
TORSDOF 7
