REMARK  4 active torsions:
REMARK  status: ('A' for Active; 'I' for Inactive)
REMARK    1  A    between atoms: C_11  and  N_2 
REMARK    2  A    between atoms: C_10  and  C_6 
REMARK    3  A    between atoms: C_16  and  C_9 
REMARK    4  A    between atoms: C_21  and  C_16 
ROOT
ATOM      1  C   UNL d   1      -2.348   1.833   0.000  0.00  0.00     0.143 A 
ATOM      2  N   UNL d   1      -3.148   2.922   0.000  0.00  0.00    -0.242 N 
ATOM      3  C   UNL d   1      -2.357   2.662   0.000  0.00  0.00     0.172 A 
ATOM      4  C   UNL d   1      -3.629   2.244   0.000  0.00  0.00     0.355 A 
ATOM      5  N   UNL d   1      -3.135   1.578   0.000  0.00  0.00    -0.187 NA
ATOM      6  C   UNL d   1      -1.641   1.427   0.000  0.00  0.00     0.163 A 
ATOM      7  N   UNL d   1      -1.641   3.085   0.000  0.00  0.00    -0.208 NA
ATOM      8  N   UNL d   1      -0.925   1.833   0.000  0.00  0.00    -0.220 NA
ATOM      9  C   UNL d   1      -0.925   2.662   0.000  0.00  0.00     0.164 A 
ATOM     10  O   UNL d   1      -4.458   2.244   0.000  0.00  0.00    -0.244 OA
ENDROOT
BRANCH   2  11
ATOM     11  C   UNL d   1      -3.403   3.700   0.000  0.00  0.00     0.070 A 
ATOM     12  C   UNL d   1      -4.215   3.876   0.000  0.00  0.00     0.018 A 
ATOM     13  C   UNL d   1      -4.479   4.651   0.000  0.00  0.00     0.002 A 
ATOM     14  C   UNL d   1      -3.918   5.253   0.000  0.00  0.00     0.000 A 
ATOM     15  C   UNL d   1      -3.114   5.090   0.000  0.00  0.00     0.002 A 
ATOM     16  C   UNL d   1      -4.177   6.044   0.000  0.00  0.00     0.000 C 
ATOM     17  C   UNL d   1      -2.859   4.311   0.000  0.00  0.00     0.018 A 
ENDBRANCH   2  11
BRANCH   6  18
ATOM     18  C   UNL d   1      -1.633   0.599   0.000  0.00  0.00     0.316 C 
ATOM     19  O   UNL d   1      -0.917   0.184   0.000  0.00  0.00    -0.262 OA
ATOM     20  N   UNL d   1      -2.357   0.184   0.000  0.00  0.00    -0.101 N 
ENDBRANCH   6  18
BRANCH   9  21
ATOM     21  C   UNL d   1      -0.209   3.072   0.000  0.00  0.00     0.039 C 
BRANCH  21  22
ATOM     22  C   UNL d   1      -0.201   3.901   0.000  0.00  0.00     0.003 C 
ATOM     23  C   UNL d   1      -0.917   4.311   0.000  0.00  0.00     0.000 C 
ATOM     24  C   UNL d   1       0.515   4.299   0.000  0.00  0.00     0.000 C 
ENDBRANCH  21  22
ENDBRANCH   9  21
TORSDOF 4
