REMARK  4 active torsions:
REMARK  status: ('A' for Active; 'I' for Inactive)
REMARK    1  A    between atoms: C_14  and  C_4 
REMARK       I    between atoms: C_6  and  N_8 
REMARK    2  A    between atoms: C_9  and  C_6 
REMARK    3  A    between atoms: N_8  and  C_14 
REMARK    4  A    between atoms: O_16  and  C_15 
ROOT
ATOM      1  C   UNL d   1       0.029   2.418   0.000  0.00  0.00     0.279 C 
ATOM      2  N   UNL d   1      -0.794   2.414   0.000  0.00  0.00    -0.205 NA
ATOM      3  O   UNL d   1       0.436   3.137   0.000  0.00  0.00    -0.265 OA
ENDROOT
BRANCH   1   4
ATOM      4  C   UNL d   1       0.441   1.708   0.000  0.00  0.00     0.060 A 
ATOM      5  C   UNL d   1       0.029   0.993   0.000  0.00  0.00     0.029 A 
ATOM      6  C   UNL d   1       0.453   0.282   0.000  0.00  0.00     0.094 A 
ATOM      7  C   UNL d   1       1.284   0.282   0.000  0.00  0.00     0.024 A 
ATOM      8  C   UNL d   1       1.687   0.997   0.000  0.00  0.00     0.002 A 
ATOM      9  C   UNL d   1       1.276   1.716   0.000  0.00  0.00     0.005 A 
BRANCH   6  10
ATOM     10  O   UNL d   1       0.042  -0.428   0.000  0.00  0.00    -0.328 OA
ATOM     11  C   UNL d   1       0.461  -1.147   0.000  0.00  0.00     0.181 C 
ENDBRANCH   6  10
ENDBRANCH   1   4
BRANCH   2  12
ATOM     12  C   UNL d   1      -1.209   3.125   0.000  0.00  0.00     0.123 C 
BRANCH  12  13
ATOM     13  C   UNL d   1      -2.032   3.125   0.000  0.00  0.00     0.120 A 
ATOM     14  N   UNL d   1      -2.518   3.790   0.000  0.00  0.00    -0.219 NA
ATOM     15  C   UNL d   1      -3.304   3.536   0.000  0.00  0.00     0.180 A 
ATOM     16  N   UNL d   1      -3.304   2.701   0.000  0.00  0.00    -0.282 N 
ATOM     17  S   UNL d   1      -4.089   3.786   0.000  0.00  0.00    -0.048 SA
ATOM     18  C   UNL d   1      -2.514   2.452   0.000  0.00  0.00     0.103 A 
ATOM     19  C   UNL d   1      -4.085   2.452   0.000  0.00  0.00     0.089 A 
ATOM     20  C   UNL d   1      -4.571   3.112   0.000  0.00  0.00     0.057 A 
ENDBRANCH  12  13
ENDBRANCH   2  12
TORSDOF 4
