REMARK  7 active torsions:
REMARK  status: ('A' for Active; 'I' for Inactive)
REMARK    1  A    between atoms: N_3  and  S_1 
REMARK    2  A    between atoms: C_7  and  S_1 
REMARK    3  A    between atoms: N_2  and  C_6 
REMARK    4  A    between atoms: C_5  and  N_3 
REMARK    5  A    between atoms: C_10  and  N_4 
REMARK    6  A    between atoms: C_6  and  C_5 
REMARK    7  A    between atoms: C_11  and  C_6 
ROOT
ATOM      1  C   UNL d   1       7.829  -2.050   0.000  0.00  0.00     0.086 C 
ENDROOT
BRANCH   1   2
ATOM      2  N   UNL d   1       7.104  -2.475   0.000  0.00  0.00    -0.300 N 
ATOM      3  C   UNL d   1       7.104  -3.304   0.000  0.00  0.00     0.100 A 
ATOM      4  C   UNL d   1       6.392  -3.717   0.000  0.00  0.00     0.100 A 
ATOM      5  N   UNL d   1       5.679  -3.304   0.000  0.00  0.00    -0.301 N 
ATOM      6  C   UNL d   1       5.679  -2.475   0.000  0.00  0.00     0.100 A 
ATOM      7  C   UNL d   1       6.392  -2.062   0.000  0.00  0.00     0.100 A 
BRANCH   5   8
ATOM      8  C   UNL d   1       4.967  -3.717   0.000  0.00  0.00     0.064 A 
ATOM      9  C   UNL d   1       4.254  -3.304   0.000  0.00  0.00     0.020 A 
ATOM     10  C   UNL d   1       3.538  -3.717   0.000  0.00  0.00     0.031 A 
ATOM     11  C   UNL d   1       3.538  -4.542   0.000  0.00  0.00     0.140 A 
ATOM     12  C   UNL d   1       4.254  -4.954   0.000  0.00  0.00     0.031 A 
ATOM     13  F   UNL d   1       2.817  -4.967   0.000  0.00  0.00    -0.204 F 
ATOM     14  C   UNL d   1       4.967  -4.542   0.000  0.00  0.00     0.020 A 
ENDBRANCH   5   8
ENDBRANCH   1   2
BRANCH   1  15
ATOM     15  C   UNL d   1       8.554  -2.454   0.000  0.00  0.00     0.130 C 
BRANCH  15  16
ATOM     16  N   UNL d   1       8.567  -3.288   0.000  0.00  0.00    -0.155 NA
BRANCH  16  17
ATOM     17  S   UNL d   1       9.279  -3.692   0.000  0.00  0.00     0.285 S 
ATOM     18  O   UNL d   1      10.004  -4.104   0.000  0.00  0.00    -0.198 OA
ATOM     19  O   UNL d   1       9.692  -2.975   0.000  0.00  0.00    -0.198 OA
BRANCH  17  20
ATOM     20  C   UNL d   1       8.867  -4.417   0.000  0.00  0.00     0.105 A 
ATOM     21  C   UNL d   1       8.042  -4.417   0.000  0.00  0.00     0.015 A 
ATOM     22  C   UNL d   1       7.629  -5.129   0.000  0.00  0.00     0.030 A 
ATOM     23  C   UNL d   1       8.050  -5.854   0.000  0.00  0.00     0.140 A 
ATOM     24  C   UNL d   1       8.879  -5.850   0.000  0.00  0.00     0.030 A 
ATOM     25  F   UNL d   1       7.642  -6.592   0.000  0.00  0.00    -0.204 F 
ATOM     26  C   UNL d   1       9.287  -5.129   0.000  0.00  0.00     0.015 A 
ENDBRANCH  17  20
ENDBRANCH  16  17
ENDBRANCH  15  16
ENDBRANCH   1  15
BRANCH   1  27
ATOM     27  C   UNL d   1       7.817  -1.217   0.000  0.00  0.00     0.037 A 
ATOM     28  C   UNL d   1       8.529  -0.804   0.000  0.00  0.00     0.100 A 
ATOM     29  N   UNL d   1       8.525   0.021   0.000  0.00  0.00    -0.242 NA
ATOM     30  C   UNL d   1       7.804   0.425   0.000  0.00  0.00     0.099 A 
ATOM     31  C   UNL d   1       7.092   0.013   0.000  0.00  0.00     0.021 A 
ATOM     32  C   UNL d   1       7.100  -0.812   0.000  0.00  0.00     0.005 A 
ENDBRANCH   1  27
TORSDOF 7
