REMARK  4 active torsions:
REMARK  status: ('A' for Active; 'I' for Inactive)
REMARK    1  A    between atoms: C_4  and  S_1 
REMARK    2  A    between atoms: N_5  and  S_1 
REMARK    3  A    between atoms: C_3  and  C_12 
REMARK    4  A    between atoms: C_12  and  N_5 
ROOT
ATOM      1  S   UNL d   1      -0.716   3.036   0.000  0.00  0.00     0.285 S 
ATOM      2  O   UNL d   1      -0.976   3.819   0.000  0.00  0.00    -0.198 OA
ATOM      3  O   UNL d   1      -0.461   2.236   0.000  0.00  0.00    -0.198 OA
ENDROOT
BRANCH   1   4
ATOM      4  C   UNL d   1       0.067   3.287   0.000  0.00  0.00     0.105 A 
ATOM      5  C   UNL d   1       0.683   2.722   0.000  0.00  0.00     0.013 A 
ATOM      6  C   UNL d   1       1.462   2.998   0.000  0.00  0.00     0.001 A 
ATOM      7  C   UNL d   1       2.073   2.433   0.000  0.00  0.00     0.000 A 
ATOM      8  C   UNL d   1       1.633   3.802   0.000  0.00  0.00     0.000 A 
ATOM      9  C   UNL d   1       2.856   2.697   0.000  0.00  0.00     0.000 A 
ATOM     10  C   UNL d   1       3.032   3.501   0.000  0.00  0.00     0.000 A 
ATOM     11  C   UNL d   1       2.412   4.049   0.000  0.00  0.00     0.000 A 
ATOM     12  C   UNL d   1       1.022   4.338   0.000  0.00  0.00     0.001 A 
ATOM     13  C   UNL d   1       0.239   4.087   0.000  0.00  0.00     0.013 A 
ENDBRANCH   1   4
BRANCH   1  14
ATOM     14  N   UNL d   1      -1.508   2.772   0.000  0.00  0.00    -0.155 NA
BRANCH  14  15
ATOM     15  C   UNL d   1      -1.683   1.968   0.000  0.00  0.00     0.132 C 
BRANCH  15  16
ATOM     16  C   UNL d   1      -2.475   1.708   0.000  0.00  0.00     0.108 A 
ATOM     17  N   UNL d   1      -3.136   2.194   0.000  0.00  0.00    -0.237 NA
ATOM     18  C   UNL d   1      -3.815   1.708   0.000  0.00  0.00     0.111 A 
ATOM     19  C   UNL d   1      -4.606   1.968   0.000  0.00  0.00     0.028 C 
ATOM     20  S   UNL d   1      -3.555   0.925   0.000  0.00  0.00    -0.066 SA
ATOM     21  C   UNL d   1      -2.726   0.925   0.000  0.00  0.00     0.058 A 
ENDBRANCH  15  16
ENDBRANCH  14  15
ENDBRANCH   1  14
TORSDOF 4
