REMARK  6 active torsions:
REMARK  status: ('A' for Active; 'I' for Inactive)
REMARK    1  A    between atoms: C_9  and  N_1 
REMARK    2  A    between atoms: S_10  and  C_6 
REMARK    3  A    between atoms: C_16  and  C_9 
REMARK    4  A    between atoms: C_15  and  S_10 
REMARK    5  A    between atoms: C_12  and  C_15 
REMARK       I    between atoms: N_13  and  C_12 
REMARK    6  A    between atoms: C_19  and  N_13 
ROOT
ATOM      1  N   UNL d   1      -7.121   2.153   0.000  0.00  0.00    -0.192 N 
ATOM      2  N   UNL d   1      -7.593   2.824   0.000  0.00  0.00    -0.058 NA
ATOM      3  C   UNL d   1      -6.335   2.401   0.000  0.00  0.00     0.189 A 
ATOM      4  C   UNL d   1      -6.335   3.229   0.000  0.00  0.00     0.164 A 
ATOM      5  N   UNL d   1      -7.121   3.478   0.000  0.00  0.00    -0.125 NA
ATOM      6  C   UNL d   1      -5.631   3.643   0.000  0.00  0.00     0.135 A 
ATOM      7  N   UNL d   1      -5.631   1.987   0.000  0.00  0.00    -0.203 NA
ATOM      8  N   UNL d   1      -4.910   3.229   0.000  0.00  0.00    -0.216 NA
ATOM      9  C   UNL d   1      -4.910   2.401   0.000  0.00  0.00     0.201 A 
ENDROOT
BRANCH   6  10
ATOM     10  S   UNL d   1      -5.631   4.471   0.000  0.00  0.00    -0.061 SA
BRANCH  10  11
ATOM     11  C   UNL d   1      -6.335   4.885   0.000  0.00  0.00     0.099 C 
BRANCH  11  12
ATOM     12  C   UNL d   1      -6.326   5.713   0.000  0.00  0.00     0.286 C 
ATOM     13  N   UNL d   1      -7.047   6.128   0.000  0.00  0.00    -0.208 NA
ATOM     14  O   UNL d   1      -5.614   6.128   0.000  0.00  0.00    -0.265 OA
BRANCH  13  15
ATOM     15  C   UNL d   1      -7.047   6.956   0.000  0.00  0.00     0.085 A 
ATOM     16  C   UNL d   1      -7.668   7.519   0.000  0.00  0.00     0.019 A 
ATOM     17  C   UNL d   1      -7.320   8.256   0.000  0.00  0.00     0.002 A 
ATOM     18  C   UNL d   1      -6.525   8.156   0.000  0.00  0.00     0.002 A 
ATOM     19  C   UNL d   1      -6.335   7.370   0.000  0.00  0.00     0.019 A 
ENDBRANCH  13  15
ENDBRANCH  11  12
ENDBRANCH  10  11
ENDBRANCH   6  10
BRANCH   1  20
ATOM     20  C   UNL d   1      -7.394   1.358   0.000  0.00  0.00     0.104 C 
BRANCH  20  21
ATOM     21  C   UNL d   1      -8.214   1.192   0.000  0.00  0.00     0.019 A 
ATOM     22  C   UNL d   1      -8.761   1.813   0.000  0.00  0.00     0.004 A 
ATOM     23  C   UNL d   1      -9.564   1.656   0.000  0.00  0.00     0.030 A 
ATOM     24  C   UNL d   1      -9.829   0.870   0.000  0.00  0.00     0.140 A 
ATOM     25  C   UNL d   1      -9.282   0.240   0.000  0.00  0.00     0.030 A 
ATOM     26  F   UNL d   1     -10.657   0.720   0.000  0.00  0.00    -0.204 F 
ATOM     27  C   UNL d   1      -8.487   0.414   0.000  0.00  0.00     0.004 A 
ENDBRANCH  20  21
ENDBRANCH   1  20
TORSDOF 6
