REMARK  8 active torsions:
REMARK  status: ('A' for Active; 'I' for Inactive)
REMARK    1  A    between atoms: C_9  and  C_2 
REMARK    2  A    between atoms: S_7  and  C_4 
REMARK    3  A    between atoms: C_6  and  C_13 
REMARK       I    between atoms: N_10  and  C_6 
REMARK    4  A    between atoms: C_13  and  S_7 
REMARK    5  A    between atoms: C_8  and  C_14 
REMARK    6  A    between atoms: O_15  and  C_8 
REMARK    7  A    between atoms: C_14  and  N_10 
REMARK    8  A    between atoms: C_18  and  O_15 
ROOT
ATOM      1  N   UNL d   1      -3.133   3.800   0.000  0.00  0.00    -0.212 NA
ATOM      2  C   UNL d   1      -3.796   3.321   0.000  0.00  0.00     0.171 A 
ATOM      3  N   UNL d   1      -3.546   2.533   0.000  0.00  0.00    -0.188 NA
ATOM      4  C   UNL d   1      -2.462   3.321   0.000  0.00  0.00     0.160 A 
ATOM      5  S   UNL d   1      -2.721   2.533   0.000  0.00  0.00     0.041 SA
ENDROOT
BRANCH   4   6
ATOM      6  S   UNL d   1      -1.675   3.571   0.000  0.00  0.00    -0.054 SA
BRANCH   6   7
ATOM      7  C   UNL d   1      -1.071   3.021   0.000  0.00  0.00     0.100 C 
BRANCH   7   8
ATOM      8  C   UNL d   1      -1.238   2.208   0.000  0.00  0.00     0.286 C 
ATOM      9  N   UNL d   1      -0.621   1.663   0.000  0.00  0.00    -0.200 NA
ATOM     10  O   UNL d   1      -2.021   1.958   0.000  0.00  0.00    -0.265 OA
BRANCH   9  11
ATOM     11  C   UNL d   1      -0.796   0.858   0.000  0.00  0.00     0.171 C 
BRANCH  11  12
ATOM     12  C   UNL d   1      -0.171   0.308   0.000  0.00  0.00     0.320 C 
ATOM     13  O   UNL d   1       0.613   0.571   0.000  0.00  0.00    -0.257 OA
BRANCH  12  14
ATOM     14  O   UNL d   1      -0.346  -0.504   0.000  0.00  0.00    -0.270 OA
BRANCH  14  15
ATOM     15  C   UNL d   1       0.279  -1.054   0.000  0.00  0.00     0.126 C 
ATOM     16  C   UNL d   1       0.113  -1.854   0.000  0.00  0.00     0.029 C 
ENDBRANCH  14  15
ENDBRANCH  12  14
ENDBRANCH  11  12
ENDBRANCH   9  11
ENDBRANCH   7   8
ENDBRANCH   6   7
ENDBRANCH   4   6
BRANCH   2  17
ATOM     17  C   UNL d   1      -4.583   3.571   0.000  0.00  0.00     0.036 A 
ATOM     18  C   UNL d   1      -5.208   3.021   0.000  0.00  0.00     0.003 A 
ATOM     19  C   UNL d   1      -5.983   3.271   0.000  0.00  0.00     0.000 A 
ATOM     20  C   UNL d   1      -6.150   4.075   0.000  0.00  0.00     0.000 A 
ATOM     21  C   UNL d   1      -5.533   4.629   0.000  0.00  0.00     0.000 A 
ATOM     22  C   UNL d   1      -4.758   4.367   0.000  0.00  0.00     0.003 A 
ENDBRANCH   2  17
TORSDOF 8
