REMARK  7 active torsions:
REMARK  status: ('A' for Active; 'I' for Inactive)
REMARK    1  A    between atoms: C_6  and  C_2 
REMARK    2  A    between atoms: S_7  and  C_4 
REMARK    3  A    between atoms: C_12  and  S_7 
REMARK    4  A    between atoms: C_8  and  C_12 
REMARK    5  A    between atoms: O_16  and  C_8 
REMARK    6  A    between atoms: O_17  and  C_13 
REMARK    7  A    between atoms: C_18  and  O_16 
ROOT
ATOM      1  N   UNL d   1      -3.138   3.806   0.000  0.00  0.00    -0.212 NA
ATOM      2  C   UNL d   1      -3.801   3.326   0.000  0.00  0.00     0.171 A 
ATOM      3  N   UNL d   1      -3.551   2.537   0.000  0.00  0.00    -0.188 NA
ATOM      4  C   UNL d   1      -2.466   3.326   0.000  0.00  0.00     0.160 A 
ATOM      5  S   UNL d   1      -2.725   2.537   0.000  0.00  0.00     0.041 SA
ENDROOT
BRANCH   2   6
ATOM      6  C   UNL d   1      -4.590   3.576   0.000  0.00  0.00     0.037 A 
ATOM      7  C   UNL d   1      -5.216   3.025   0.000  0.00  0.00     0.005 A 
ATOM      8  C   UNL d   1      -5.992   3.276   0.000  0.00  0.00     0.024 A 
ATOM      9  C   UNL d   1      -6.159   4.081   0.000  0.00  0.00     0.094 A 
ATOM     10  C   UNL d   1      -5.541   4.636   0.000  0.00  0.00     0.024 A 
ATOM     11  C   UNL d   1      -4.765   4.373   0.000  0.00  0.00     0.005 A 
BRANCH   9  12
ATOM     12  O   UNL d   1      -6.939   4.344   0.000  0.00  0.00    -0.328 OA
ATOM     13  C   UNL d   1      -7.553   3.801   0.000  0.00  0.00     0.181 C 
ENDBRANCH   9  12
ENDBRANCH   2   6
BRANCH   4  14
ATOM     14  S   UNL d   1      -1.677   3.576   0.000  0.00  0.00    -0.054 SA
BRANCH  14  15
ATOM     15  C   UNL d   1      -1.072   3.025   0.000  0.00  0.00     0.106 C 
BRANCH  15  16
ATOM     16  C   UNL d   1      -1.239   2.216   0.000  0.00  0.00     0.307 C 
ATOM     17  O   UNL d   1      -2.028   1.961   0.000  0.00  0.00    -0.258 OA
BRANCH  16  18
ATOM     18  O   UNL d   1      -0.626   1.661   0.000  0.00  0.00    -0.271 OA
BRANCH  18  19
ATOM     19  C   UNL d   1      -0.797   0.847   0.000  0.00  0.00     0.126 C 
ATOM     20  C   UNL d   1      -0.184   0.296   0.000  0.00  0.00     0.029 C 
ENDBRANCH  18  19
ENDBRANCH  16  18
ENDBRANCH  15  16
ENDBRANCH  14  15
ENDBRANCH   4  14
TORSDOF 7
