REMARK  4 active torsions:
REMARK  status: ('A' for Active; 'I' for Inactive)
REMARK    1  A    between atoms: C_5  and  S_1 
REMARK    2  A    between atoms: N_8  and  S_1 
REMARK    3  A    between atoms: C_6  and  C_14 
REMARK    4  A    between atoms: C_14  and  N_8 
ROOT
ATOM      1  N   UNL d   1      -0.791   2.406   0.000  0.00  0.00    -0.155 NA
ENDROOT
BRANCH   1   2
ATOM      2  S   UNL d   1       0.029   2.410   0.000  0.00  0.00     0.291 S 
ATOM      3  O   UNL d   1      -0.008   3.238   0.000  0.00  0.00    -0.198 OA
ATOM      4  O   UNL d   1       0.054   1.586   0.000  0.00  0.00    -0.198 OA
BRANCH   2   5
ATOM      5  C   UNL d   1       0.870   2.418   0.000  0.00  0.00     0.135 A 
ATOM      6  S   UNL d   1       1.346   3.093   0.000  0.00  0.00    -0.073 SA
ATOM      7  C   UNL d   1       2.153   2.845   0.000  0.00  0.00     0.036 A 
ATOM      8  C   UNL d   1       2.161   2.008   0.000  0.00  0.00     0.008 A 
ATOM      9  C   UNL d   1       1.366   1.735   0.000  0.00  0.00     0.020 A 
ENDBRANCH   2   5
ENDBRANCH   1   2
BRANCH   1  10
ATOM     10  C   UNL d   1      -1.205   3.114   0.000  0.00  0.00     0.133 C 
BRANCH  10  11
ATOM     11  C   UNL d   1      -2.025   3.114   0.000  0.00  0.00     0.121 A 
ATOM     12  N   UNL d   1      -2.509   3.776   0.000  0.00  0.00    -0.219 NA
ATOM     13  C   UNL d   1      -3.292   3.524   0.000  0.00  0.00     0.180 A 
ATOM     14  S   UNL d   1      -4.074   3.772   0.000  0.00  0.00    -0.048 SA
ATOM     15  N   UNL d   1      -3.292   2.691   0.000  0.00  0.00    -0.282 N 
ATOM     16  C   UNL d   1      -4.555   3.101   0.000  0.00  0.00     0.057 A 
ATOM     17  C   UNL d   1      -4.070   2.443   0.000  0.00  0.00     0.089 A 
ATOM     18  C   UNL d   1      -2.505   2.443   0.000  0.00  0.00     0.103 A 
ENDBRANCH  10  11
ENDBRANCH   1  10
TORSDOF 4
