REMARK  4 active torsions:
REMARK  status: ('A' for Active; 'I' for Inactive)
REMARK    1  A    between atoms: C_2  and  S_1 
REMARK    2  A    between atoms: N_7  and  S_1 
REMARK    3  A    between atoms: C_3  and  C_12 
REMARK    4  A    between atoms: C_15  and  N_7 
ROOT
ATOM      1  C   UNL d   1      -3.150   6.688   0.000  0.00  0.00     0.024 A 
ATOM      2  C   UNL d   1      -3.158   5.029   0.000  0.00  0.00     0.094 A 
ATOM      3  C   UNL d   1      -3.858   6.267   0.000  0.00  0.00     0.004 A 
ATOM      4  C   UNL d   1      -2.433   6.275   0.000  0.00  0.00     0.004 A 
ATOM      5  C   UNL d   1      -3.862   5.450   0.000  0.00  0.00     0.020 A 
ATOM      6  C   UNL d   1      -2.433   5.454   0.000  0.00  0.00     0.020 A 
ENDROOT
BRANCH   2   7
ATOM      7  N   UNL d   1      -3.158   4.213   0.000  0.00  0.00    -0.158 NA
BRANCH   7   8
ATOM      8  S   UNL d   1      -2.438   3.800   0.000  0.00  0.00     0.287 S 
ATOM      9  O   UNL d   1      -2.025   4.513   0.000  0.00  0.00    -0.198 OA
ATOM     10  O   UNL d   1      -2.850   3.087   0.000  0.00  0.00    -0.198 OA
BRANCH   8  11
ATOM     11  C   UNL d   1      -1.721   3.396   0.000  0.00  0.00     0.135 A 
ATOM     12  C   UNL d   1      -1.008   3.800   0.000  0.00  0.00     0.045 A 
ATOM     13  C   UNL d   1      -0.296   3.396   0.000  0.00  0.00     0.141 A 
ATOM     14  F   UNL d   1       0.417   3.808   0.000  0.00  0.00    -0.204 F 
ATOM     15  C   UNL d   1      -0.296   2.571   0.000  0.00  0.00     0.032 A 
ATOM     16  C   UNL d   1      -1.008   2.150   0.000  0.00  0.00     0.033 A 
ATOM     17  C   UNL d   1      -1.721   2.571   0.000  0.00  0.00     0.152 A 
ATOM     18  F   UNL d   1      -2.438   2.150   0.000  0.00  0.00    -0.203 F 
ENDBRANCH   8  11
ENDBRANCH   7   8
ENDBRANCH   2   7
BRANCH   1  19
ATOM     19  C   UNL d   1      -3.146   7.513   0.000  0.00  0.00     0.112 A 
ATOM     20  S   UNL d   1      -3.812   7.992   0.000  0.00  0.00    -0.047 SA
ATOM     21  C   UNL d   1      -3.558   8.792   0.000  0.00  0.00     0.130 A 
ATOM     22  N   UNL d   1      -3.971   9.504   0.000  0.00  0.00    -0.236 NA
ATOM     23  C   UNL d   1      -2.725   8.787   0.000  0.00  0.00     0.106 A 
ATOM     24  C   UNL d   1      -3.550  10.217   0.000  0.00  0.00     0.100 A 
ATOM     25  C   UNL d   1      -2.721  10.217   0.000  0.00  0.00     0.022 A 
ATOM     26  C   UNL d   1      -2.312   9.504   0.000  0.00  0.00     0.023 A 
ATOM     27  N   UNL d   1      -2.471   7.992   0.000  0.00  0.00    -0.237 NA
ENDBRANCH   1  19
TORSDOF 4
