REMARK  4 active torsions:
REMARK  status: ('A' for Active; 'I' for Inactive)
REMARK    1  A    between atoms: N_5  and  S_1 
REMARK    2  A    between atoms: C_8  and  S_1 
REMARK    3  A    between atoms: C_2  and  C_7 
REMARK    4  A    between atoms: C_11  and  N_5 
ROOT
ATOM      1  C   UNL d   1      -3.858   6.275   0.000  0.00  0.00     0.025 A 
ATOM      2  C   UNL d   1      -3.862   5.450   0.000  0.00  0.00     0.020 A 
ATOM      3  C   UNL d   1      -3.158   5.029   0.000  0.00  0.00     0.094 A 
ATOM      4  C   UNL d   1      -3.146   6.688   0.000  0.00  0.00     0.002 A 
ATOM      5  C   UNL d   1      -2.438   5.450   0.000  0.00  0.00     0.020 A 
ATOM      6  C   UNL d   1      -4.583   5.042   0.000  0.00  0.00     0.002 C 
ATOM      7  C   UNL d   1      -2.438   6.279   0.000  0.00  0.00     0.002 A 
ENDROOT
BRANCH   3   8
ATOM      8  N   UNL d   1      -3.158   4.213   0.000  0.00  0.00    -0.158 NA
BRANCH   8   9
ATOM      9  S   UNL d   1      -3.871   3.800   0.000  0.00  0.00     0.285 S 
ATOM     10  O   UNL d   1      -3.446   3.087   0.000  0.00  0.00    -0.198 OA
ATOM     11  O   UNL d   1      -4.287   4.517   0.000  0.00  0.00    -0.198 OA
BRANCH   9  12
ATOM     12  C   UNL d   1      -4.583   3.383   0.000  0.00  0.00     0.107 A 
ATOM     13  C   UNL d   1      -5.300   3.800   0.000  0.00  0.00     0.040 A 
ATOM     14  C   UNL d   1      -6.004   3.371   0.000  0.00  0.00     0.123 A 
ATOM     15  O   UNL d   1      -6.717   3.771   0.000  0.00  0.00    -0.301 OA
ATOM     16  C   UNL d   1      -6.000   2.546   0.000  0.00  0.00     0.123 A 
ATOM     17  C   UNL d   1      -7.429   3.358   0.000  0.00  0.00     0.149 A 
ATOM     18  C   UNL d   1      -7.417   2.533   0.000  0.00  0.00     0.149 A 
ATOM     19  O   UNL d   1      -6.704   2.133   0.000  0.00  0.00    -0.301 OA
ATOM     20  C   UNL d   1      -5.283   2.146   0.000  0.00  0.00     0.028 A 
ATOM     21  C   UNL d   1      -4.571   2.562   0.000  0.00  0.00     0.015 A 
ENDBRANCH   9  12
ENDBRANCH   8   9
ENDBRANCH   3   8
BRANCH   1  22
ATOM     22  C   UNL d   1      -4.583   6.692   0.000  0.00  0.00     0.112 A 
ATOM     23  S   UNL d   1      -5.333   6.354   0.000  0.00  0.00    -0.047 SA
ATOM     24  C   UNL d   1      -5.896   6.967   0.000  0.00  0.00     0.130 A 
ATOM     25  N   UNL d   1      -6.713   6.979   0.000  0.00  0.00    -0.236 NA
ATOM     26  C   UNL d   1      -5.471   7.688   0.000  0.00  0.00     0.106 A 
ATOM     27  C   UNL d   1      -7.117   7.692   0.000  0.00  0.00     0.100 A 
ATOM     28  C   UNL d   1      -6.704   8.404   0.000  0.00  0.00     0.022 A 
ATOM     29  C   UNL d   1      -5.883   8.404   0.000  0.00  0.00     0.023 A 
ATOM     30  N   UNL d   1      -4.658   7.517   0.000  0.00  0.00    -0.237 NA
ENDBRANCH   1  22
TORSDOF 4
