REMARK  4 active torsions:
REMARK  status: ('A' for Active; 'I' for Inactive)
REMARK    1  A    between atoms: C_9  and  C_2 
REMARK    2  A    between atoms: S_8  and  C_4 
REMARK       I    between atoms: N_6  and  C_7 
REMARK    3  A    between atoms: C_7  and  C_10 
REMARK    4  A    between atoms: C_10  and  S_8 
ROOT
ATOM      1  N   UNL d   1      -3.129   3.794   0.000  0.00  0.00    -0.212 NA
ATOM      2  C   UNL d   1      -3.790   3.316   0.000  0.00  0.00     0.171 A 
ATOM      3  N   UNL d   1      -3.541   2.530   0.000  0.00  0.00    -0.188 NA
ATOM      4  C   UNL d   1      -2.459   3.316   0.000  0.00  0.00     0.160 A 
ATOM      5  S   UNL d   1      -2.717   2.530   0.000  0.00  0.00     0.041 SA
ENDROOT
BRANCH   4   6
ATOM      6  S   UNL d   1      -1.673   3.566   0.000  0.00  0.00    -0.054 SA
BRANCH   6   7
ATOM      7  C   UNL d   1      -1.069   3.016   0.000  0.00  0.00     0.098 C 
BRANCH   7   8
ATOM      8  C   UNL d   1      -1.236   2.205   0.000  0.00  0.00     0.272 C 
ATOM      9  N   UNL d   1      -0.632   1.643   0.000  0.00  0.00    -0.267 N 
ATOM     10  C   UNL d   1      -0.820   0.845   0.000  0.00  0.00     0.110 A 
ATOM     11  C   UNL d   1       0.154   1.893   0.000  0.00  0.00     0.110 A 
ATOM     12  C   UNL d   1      -0.208   0.283   0.000  0.00  0.00     0.142 A 
ATOM     13  O   UNL d   1       0.578   0.520   0.000  0.00  0.00    -0.300 OA
ATOM     14  C   UNL d   1       0.766   1.331   0.000  0.00  0.00     0.142 A 
ATOM     15  O   UNL d   1      -2.030   1.955   0.000  0.00  0.00    -0.266 OA
ENDBRANCH   7   8
ENDBRANCH   6   7
ENDBRANCH   4   6
BRANCH   2  16
ATOM     16  C   UNL d   1      -4.577   3.566   0.000  0.00  0.00     0.036 A 
ATOM     17  C   UNL d   1      -4.751   4.360   0.000  0.00  0.00     0.003 A 
ATOM     18  C   UNL d   1      -5.525   4.622   0.000  0.00  0.00     0.000 A 
ATOM     19  C   UNL d   1      -6.141   4.069   0.000  0.00  0.00     0.000 A 
ATOM     20  C   UNL d   1      -5.974   3.266   0.000  0.00  0.00     0.000 A 
ATOM     21  C   UNL d   1      -5.200   3.016   0.000  0.00  0.00     0.003 A 
ENDBRANCH   2  16
TORSDOF 4
