REMARK  2 active torsions:
REMARK  status: ('A' for Active; 'I' for Inactive)
REMARK    1  A    between atoms: C_10  and  C_4 
REMARK       I    between atoms: N_12  and  C_10 
REMARK       I    between atoms: C_11  and  N_13 
REMARK    2  A    between atoms: C_14  and  C_11 
ROOT
ATOM      1  C   UNL d   1      -1.617   1.630   0.000  0.00  0.00     0.154 A 
ATOM      2  C   UNL d   1      -1.617   2.453   0.000  0.00  0.00     0.093 A 
ATOM      3  N   UNL d   1      -2.340   1.216   0.000  0.00  0.00    -0.211 NA
ATOM      4  C   UNL d   1      -0.347   2.039   0.000  0.00  0.00     0.122 A 
ATOM      5  N   UNL d   1      -0.836   1.375   0.000  0.00  0.00    -0.285 N 
ATOM      6  C   UNL d   1      -2.332   2.871   0.000  0.00  0.00     0.269 A 
ATOM      7  N   UNL d   1      -3.047   2.466   0.000  0.00  0.00    -0.259 N 
ATOM      8  C   UNL d   1      -3.055   1.630   0.000  0.00  0.00     0.140 A 
ATOM      9  C   UNL d   1      -0.836   2.704   0.000  0.00  0.00     0.030 A 
ATOM     10  C   UNL d   1      -3.761   2.879   0.000  0.00  0.00     0.084 A 
ATOM     11  O   UNL d   1      -2.328   3.699   0.000  0.00  0.00    -0.266 OA
ATOM     12  C   UNL d   1      -3.761   1.224   0.000  0.00  0.00     0.064 A 
ATOM     13  C   UNL d   1      -4.472   2.466   0.000  0.00  0.00     0.018 A 
ATOM     14  C   UNL d   1      -4.472   1.630   0.000  0.00  0.00    -0.008 A 
ATOM     15  C   UNL d   1      -0.585   0.585   0.000  0.00  0.00     0.101 C 
ENDROOT
BRANCH   4  16
ATOM     16  C   UNL d   1       0.481   2.039   0.000  0.00  0.00     0.281 C 
ATOM     17  N   UNL d   1       0.890   2.754   0.000  0.00  0.00    -0.268 N 
ATOM     18  C   UNL d   1       1.718   2.754   0.000  0.00  0.00     0.102 A 
ATOM     19  C   UNL d   1       0.481   3.469   0.000  0.00  0.00     0.102 A 
ATOM     20  C   UNL d   1       2.136   3.469   0.000  0.00  0.00     0.102 A 
ATOM     21  N   UNL d   1       1.722   4.179   0.000  0.00  0.00    -0.267 N 
ATOM     22  C   UNL d   1       2.136   4.894   0.000  0.00  0.00     0.288 C 
ATOM     23  C   UNL d   1       0.894   4.167   0.000  0.00  0.00     0.102 A 
ATOM     24  O   UNL d   1       1.722   5.604   0.000  0.00  0.00    -0.264 OA
ATOM     25  O   UNL d   1       0.890   1.325   0.000  0.00  0.00    -0.265 OA
BRANCH  22  26
ATOM     26  C   UNL d   1       2.963   4.881   0.000  0.00  0.00     0.156 A 
ATOM     27  O   UNL d   1       3.452   5.546   0.000  0.00  0.00    -0.300 OA
ATOM     28  C   UNL d   1       4.229   5.295   0.000  0.00  0.00     0.123 A 
ATOM     29  C   UNL d   1       4.238   4.468   0.000  0.00  0.00     0.029 A 
ATOM     30  C   UNL d   1       3.452   4.217   0.000  0.00  0.00     0.032 A 
ENDBRANCH  22  26
ENDBRANCH   4  16
TORSDOF 2
