REMARK  4 active torsions:
REMARK  status: ('A' for Active; 'I' for Inactive)
REMARK    1  A    between atoms: C_10  and  N_4 
REMARK    2  A    between atoms: C_11  and  C_10 
REMARK       I    between atoms: N_15  and  C_11 
REMARK    3  A    between atoms: C_12  and  C_20 
REMARK    4  A    between atoms: C_20  and  N_15 
ROOT
ATOM      1  C   UNL d   1      -1.887   2.407   0.000  0.00  0.00     0.174 A 
ATOM      2  C   UNL d   1      -2.145   3.186   0.000  0.00  0.00     0.112 A 
ATOM      3  C   UNL d   1      -1.083   2.232   0.000  0.00  0.00     0.290 A 
ATOM      4  N   UNL d   1      -0.533   2.845   0.000  0.00  0.00    -0.249 N 
ATOM      5  O   UNL d   1      -2.557   1.920   0.000  0.00  0.00    -0.301 OA
ATOM      6  N   UNL d   1      -1.595   3.799   0.000  0.00  0.00    -0.223 NA
ATOM      7  C   UNL d   1      -2.970   3.186   0.000  0.00  0.00     0.043 A 
ATOM      8  C   UNL d   1      -0.787   3.632   0.000  0.00  0.00     0.185 A 
ATOM      9  C   UNL d   1      -3.224   2.399   0.000  0.00  0.00     0.102 A 
ATOM     10  O   UNL d   1      -0.825   1.450   0.000  0.00  0.00    -0.264 OA
ATOM     11  C   UNL d   1      -3.519   3.799   0.000  0.00  0.00     0.004 A 
ATOM     12  C   UNL d   1      -4.032   2.232   0.000  0.00  0.00     0.025 A 
ATOM     13  C   UNL d   1      -4.332   3.632   0.000  0.00  0.00     0.000 A 
ATOM     14  C   UNL d   1      -4.582   2.845   0.000  0.00  0.00     0.002 A 
ENDROOT
BRANCH   4  15
ATOM     15  C   UNL d   1       0.279   2.682   0.000  0.00  0.00     0.147 C 
BRANCH  15  16
ATOM     16  C   UNL d   1       0.829   3.295   0.000  0.00  0.00     0.297 C 
ATOM     17  N   UNL d   1       0.562   4.065   0.000  0.00  0.00    -0.203 NA
ATOM     18  O   UNL d   1       1.637   3.132   0.000  0.00  0.00    -0.264 OA
BRANCH  17  19
ATOM     19  C   UNL d   1       1.104   4.686   0.000  0.00  0.00     0.127 C 
BRANCH  19  20
ATOM     20  C   UNL d   1       0.829   5.465   0.000  0.00  0.00     0.119 A 
ATOM     21  O   UNL d   1       0.042   5.715   0.000  0.00  0.00    -0.304 OA
ATOM     22  C   UNL d   1       0.029   6.548   0.000  0.00  0.00     0.123 A 
ATOM     23  C   UNL d   1       0.816   6.814   0.000  0.00  0.00     0.029 A 
ATOM     24  C   UNL d   1       1.312   6.152   0.000  0.00  0.00     0.028 A 
ENDBRANCH  19  20
ENDBRANCH  17  19
ENDBRANCH  15  16
ENDBRANCH   4  15
TORSDOF 4
