REMARK  3 active torsions:
REMARK  status: ('A' for Active; 'I' for Inactive)
REMARK    1  A    between atoms: C_8  and  C_1 
REMARK       I    between atoms: C_5  and  N_7 
REMARK    2  A    between atoms: C_10  and  C_5 
REMARK    3  A    between atoms: N_7  and  C_15 
ROOT
ATOM      1  C   UNL d   1      -3.166   6.700   0.000  0.00  0.00     0.024 A 
ATOM      2  C   UNL d   1      -2.458   6.294   0.000  0.00  0.00     0.004 A 
ATOM      3  C   UNL d   1      -3.882   6.294   0.000  0.00  0.00     0.004 A 
ATOM      4  C   UNL d   1      -3.174   5.055   0.000  0.00  0.00     0.085 A 
ATOM      5  C   UNL d   1      -3.890   5.469   0.000  0.00  0.00     0.019 A 
ATOM      6  C   UNL d   1      -2.458   5.469   0.000  0.00  0.00     0.019 A 
ENDROOT
BRANCH   1   7
ATOM      7  C   UNL d   1      -3.162   7.530   0.000  0.00  0.00     0.112 A 
ATOM      8  S   UNL d   1      -3.840   8.020   0.000  0.00  0.00    -0.047 SA
ATOM      9  C   UNL d   1      -3.580   8.811   0.000  0.00  0.00     0.130 A 
ATOM     10  N   UNL d   1      -3.991   9.527   0.000  0.00  0.00    -0.236 NA
ATOM     11  C   UNL d   1      -2.747   8.811   0.000  0.00  0.00     0.106 A 
ATOM     12  C   UNL d   1      -3.576  10.243   0.000  0.00  0.00     0.100 A 
ATOM     13  C   UNL d   1      -2.739  10.239   0.000  0.00  0.00     0.022 A 
ATOM     14  C   UNL d   1      -2.333   9.523   0.000  0.00  0.00     0.023 A 
ATOM     15  N   UNL d   1      -2.496   8.007   0.000  0.00  0.00    -0.237 NA
ENDBRANCH   1   7
BRANCH   4  16
ATOM     16  N   UNL d   1      -3.174   4.226   0.000  0.00  0.00    -0.206 NA
ATOM     17  C   UNL d   1      -3.890   3.819   0.000  0.00  0.00     0.302 C 
ATOM     18  O   UNL d   1      -4.606   4.226   0.000  0.00  0.00    -0.263 OA
BRANCH  17  19
ATOM     19  C   UNL d   1      -3.890   2.998   0.000  0.00  0.00     0.158 A 
ATOM     20  O   UNL d   1      -4.556   2.508   0.000  0.00  0.00    -0.300 OA
ATOM     21  C   UNL d   1      -4.292   1.730   0.000  0.00  0.00     0.123 A 
ATOM     22  C   UNL d   1      -3.463   1.730   0.000  0.00  0.00     0.029 A 
ATOM     23  C   UNL d   1      -3.212   2.513   0.000  0.00  0.00     0.032 A 
ENDBRANCH  17  19
ENDBRANCH   4  16
TORSDOF 3
