REMARK  4 active torsions:
REMARK  status: ('A' for Active; 'I' for Inactive)
REMARK    1  A    between atoms: C_8  and  S_1 
REMARK    2  A    between atoms: C_2  and  C_10 
REMARK    3  A    between atoms: C_6  and  C_14 
REMARK       I    between atoms: N_9  and  C_6 
REMARK    4  A    between atoms: C_23  and  N_9 
ROOT
ATOM      1  C   UNL d   1      -3.165   6.698   0.000  0.00  0.00     0.024 A 
ATOM      2  C   UNL d   1      -2.457   6.292   0.000  0.00  0.00     0.004 A 
ATOM      3  C   UNL d   1      -3.880   6.292   0.000  0.00  0.00     0.004 A 
ATOM      4  C   UNL d   1      -3.173   5.053   0.000  0.00  0.00     0.085 A 
ATOM      5  C   UNL d   1      -3.889   5.467   0.000  0.00  0.00     0.019 A 
ATOM      6  C   UNL d   1      -2.457   5.467   0.000  0.00  0.00     0.019 A 
ENDROOT
BRANCH   4   7
ATOM      7  N   UNL d   1      -3.173   4.224   0.000  0.00  0.00    -0.208 NA
ATOM      8  C   UNL d   1      -3.889   3.818   0.000  0.00  0.00     0.279 C 
ATOM      9  O   UNL d   1      -4.604   4.224   0.000  0.00  0.00    -0.265 OA
BRANCH   8  10
ATOM     10  C   UNL d   1      -3.889   2.997   0.000  0.00  0.00     0.058 A 
ATOM     11  C   UNL d   1      -4.604   2.583   0.000  0.00  0.00     0.005 A 
ATOM     12  C   UNL d   1      -4.604   1.766   0.000  0.00  0.00     0.013 A 
ATOM     13  C   UNL d   1      -3.880   1.344   0.000  0.00  0.00     0.107 A 
ATOM     14  C   UNL d   1      -3.165   1.754   0.000  0.00  0.00     0.013 A 
ATOM     15  C   UNL d   1      -3.165   2.583   0.000  0.00  0.00     0.005 A 
BRANCH  13  16
ATOM     16  S   UNL d   1      -3.880   0.515   0.000  0.00  0.00     0.302 S 
ATOM     17  O   UNL d   1      -3.060   0.515   0.000  0.00  0.00    -0.197 OA
ATOM     18  O   UNL d   1      -4.705   0.527   0.000  0.00  0.00    -0.197 OA
ATOM     19  N   UNL d   1      -3.889  -0.306   0.000  0.00  0.00    -0.043 N 
ENDBRANCH  13  16
ENDBRANCH   8  10
ENDBRANCH   4   7
BRANCH   1  20
ATOM     20  C   UNL d   1      -3.160   7.526   0.000  0.00  0.00     0.112 A 
ATOM     21  S   UNL d   1      -3.838   8.016   0.000  0.00  0.00    -0.047 SA
ATOM     22  C   UNL d   1      -3.579   8.807   0.000  0.00  0.00     0.130 A 
ATOM     23  N   UNL d   1      -3.989   9.523   0.000  0.00  0.00    -0.236 NA
ATOM     24  C   UNL d   1      -2.746   8.807   0.000  0.00  0.00     0.106 A 
ATOM     25  C   UNL d   1      -3.575  10.239   0.000  0.00  0.00     0.100 A 
ATOM     26  C   UNL d   1      -2.738  10.235   0.000  0.00  0.00     0.022 A 
ATOM     27  C   UNL d   1      -2.332   9.519   0.000  0.00  0.00     0.023 A 
ATOM     28  N   UNL d   1      -2.495   8.004   0.000  0.00  0.00    -0.237 NA
ENDBRANCH   1  20
TORSDOF 4
