REMARK  4 active torsions:
REMARK  status: ('A' for Active; 'I' for Inactive)
REMARK    1  A    between atoms: C_8  and  C_1 
REMARK    2  A    between atoms: S_4  and  N_7 
REMARK    3  A    between atoms: C_14  and  S_4 
REMARK    4  A    between atoms: N_7  and  C_13 
ROOT
ATOM      1  C   UNL d   1      -3.866   6.280   0.000  0.00  0.00     0.025 A 
ATOM      2  C   UNL d   1      -3.870   5.461   0.000  0.00  0.00     0.022 A 
ATOM      3  C   UNL d   1      -3.165   5.040   0.000  0.00  0.00     0.094 A 
ATOM      4  C   UNL d   1      -3.152   6.701   0.000  0.00  0.00     0.002 A 
ATOM      5  C   UNL d   1      -2.443   6.292   0.000  0.00  0.00     0.002 A 
ATOM      6  C   UNL d   1      -2.451   5.453   0.000  0.00  0.00     0.020 A 
ENDROOT
BRANCH   1   7
ATOM      7  C   UNL d   1      -4.580   6.701   0.000  0.00  0.00     0.112 A 
ATOM      8  S   UNL d   1      -5.344   6.367   0.000  0.00  0.00    -0.047 SA
ATOM      9  C   UNL d   1      -5.908   6.981   0.000  0.00  0.00     0.130 A 
ATOM     10  N   UNL d   1      -6.726   6.994   0.000  0.00  0.00    -0.236 NA
ATOM     11  C   UNL d   1      -5.482   7.703   0.000  0.00  0.00     0.106 A 
ATOM     12  C   UNL d   1      -7.131   7.708   0.000  0.00  0.00     0.100 A 
ATOM     13  C   UNL d   1      -6.718   8.422   0.000  0.00  0.00     0.022 A 
ATOM     14  C   UNL d   1      -5.896   8.422   0.000  0.00  0.00     0.023 A 
ATOM     15  N   UNL d   1      -4.668   7.532   0.000  0.00  0.00    -0.237 NA
ENDBRANCH   1   7
BRANCH   3  16
ATOM     16  N   UNL d   1      -3.165   4.221   0.000  0.00  0.00    -0.158 NA
BRANCH  16  17
ATOM     17  S   UNL d   1      -3.879   3.808   0.000  0.00  0.00     0.286 S 
ATOM     18  O   UNL d   1      -3.466   3.090   0.000  0.00  0.00    -0.198 OA
ATOM     19  O   UNL d   1      -4.292   4.522   0.000  0.00  0.00    -0.198 OA
BRANCH  17  20
ATOM     20  C   UNL d   1      -4.593   3.403   0.000  0.00  0.00     0.117 C 
ATOM     21  C   UNL d   1      -5.307   3.820   0.000  0.00  0.00     0.014 C 
ENDBRANCH  17  20
ENDBRANCH  16  17
ENDBRANCH   3  16
TORSDOF 4
