REMARK  5 active torsions:
REMARK  status: ('A' for Active; 'I' for Inactive)
REMARK    1  A    between atoms: C_2  and  S_1 
REMARK    2  A    between atoms: N_8  and  S_1 
REMARK    3  A    between atoms: C_3  and  C_14 
REMARK    4  A    between atoms: C_17  and  N_8 
REMARK    5  A    between atoms: C_23  and  C_11 
ROOT
ATOM      1  C   UNL d   1      -3.150   6.688   0.000  0.00  0.00     0.024 A 
ATOM      2  C   UNL d   1      -3.158   5.029   0.000  0.00  0.00     0.094 A 
ATOM      3  C   UNL d   1      -2.433   6.275   0.000  0.00  0.00     0.004 A 
ATOM      4  C   UNL d   1      -3.858   6.267   0.000  0.00  0.00     0.004 A 
ATOM      5  C   UNL d   1      -3.862   5.450   0.000  0.00  0.00     0.020 A 
ATOM      6  C   UNL d   1      -2.433   5.454   0.000  0.00  0.00     0.020 A 
ENDROOT
BRANCH   2   7
ATOM      7  N   UNL d   1      -3.158   4.213   0.000  0.00  0.00    -0.158 NA
BRANCH   7   8
ATOM      8  S   UNL d   1      -3.871   3.800   0.000  0.00  0.00     0.291 S 
ATOM      9  O   UNL d   1      -3.458   3.096   0.000  0.00  0.00    -0.198 OA
ATOM     10  O   UNL d   1      -4.283   4.504   0.000  0.00  0.00    -0.198 OA
BRANCH   8  11
ATOM     11  C   UNL d   1      -4.583   3.396   0.000  0.00  0.00     0.135 A 
ATOM     12  S   UNL d   1      -5.346   3.721   0.000  0.00  0.00    -0.074 SA
ATOM     13  C   UNL d   1      -5.896   3.108   0.000  0.00  0.00     0.030 A 
ATOM     14  C   UNL d   1      -5.471   2.396   0.000  0.00  0.00     0.008 A 
ATOM     15  C   UNL d   1      -4.671   2.562   0.000  0.00  0.00     0.020 A 
BRANCH  13  16
ATOM     16  C   UNL d   1      -6.704   3.188   0.000  0.00  0.00     0.006 C 
ATOM     17  C   UNL d   1      -7.042   3.946   0.000  0.00  0.00     0.001 C 
ENDBRANCH  13  16
ENDBRANCH   8  11
ENDBRANCH   7   8
ENDBRANCH   2   7
BRANCH   1  18
ATOM     18  C   UNL d   1      -3.146   7.513   0.000  0.00  0.00     0.112 A 
ATOM     19  S   UNL d   1      -3.812   7.992   0.000  0.00  0.00    -0.047 SA
ATOM     20  C   UNL d   1      -3.558   8.792   0.000  0.00  0.00     0.130 A 
ATOM     21  N   UNL d   1      -3.971   9.504   0.000  0.00  0.00    -0.236 NA
ATOM     22  C   UNL d   1      -2.725   8.787   0.000  0.00  0.00     0.106 A 
ATOM     23  C   UNL d   1      -3.550  10.217   0.000  0.00  0.00     0.100 A 
ATOM     24  C   UNL d   1      -2.721  10.217   0.000  0.00  0.00     0.022 A 
ATOM     25  C   UNL d   1      -2.312   9.504   0.000  0.00  0.00     0.023 A 
ATOM     26  N   UNL d   1      -2.471   7.992   0.000  0.00  0.00    -0.237 NA
ENDBRANCH   1  18
TORSDOF 5
