REMARK  6 active torsions:
REMARK  status: ('A' for Active; 'I' for Inactive)
REMARK    1  A    between atoms: N_5  and  C_1 
REMARK    2  A    between atoms: N_7  and  C_2 
REMARK    3  A    between atoms: C_8  and  N_3 
REMARK    4  A    between atoms: C_18  and  C_8 
REMARK    5  A    between atoms: C_14  and  N_9 
REMARK    6  A    between atoms: C_19  and  C_14 
ROOT
ATOM      1  C   UNL d   1       0.242  -2.916   0.000  0.00  0.00     0.242 A 
ATOM      2  C   UNL d   1       0.229  -2.091   0.000  0.00  0.00     0.175 A 
ATOM      3  N   UNL d   1      -0.571  -1.850   0.000  0.00  0.00    -0.274 N 
ATOM      4  N   UNL d   1      -0.546  -3.191   0.000  0.00  0.00    -0.203 NA
ATOM      5  C   UNL d   1      -1.037  -2.525   0.000  0.00  0.00     0.151 A 
ATOM      6  C   UNL d   1      -1.862  -2.537   0.000  0.00  0.00     0.041 C 
ENDROOT
BRANCH   2   7
ATOM      7  N   UNL d   1       0.967  -1.729   0.000  0.00  0.00    -0.285 N 
ATOM      8  C   UNL d   1       1.029  -0.904   0.000  0.00  0.00     0.101 A 
ATOM      9  C   UNL d   1       1.779  -0.550   0.000  0.00  0.00     0.100 A 
ATOM     10  N   UNL d   1       2.454  -1.012   0.000  0.00  0.00    -0.300 N 
ATOM     11  C   UNL d   1       2.391  -1.837   0.000  0.00  0.00     0.100 A 
ATOM     12  C   UNL d   1       1.654  -2.191   0.000  0.00  0.00     0.101 A 
BRANCH  10  13
ATOM     13  C   UNL d   1       3.204  -0.654   0.000  0.00  0.00     0.080 C 
BRANCH  13  14
ATOM     14  C   UNL d   1       3.879  -1.117   0.000  0.00  0.00     0.018 A 
ATOM     15  C   UNL d   1       3.816  -1.942   0.000  0.00  0.00     0.002 A 
ATOM     16  C   UNL d   1       4.491  -2.412   0.000  0.00  0.00     0.000 A 
ATOM     17  C   UNL d   1       5.241  -2.054   0.000  0.00  0.00     0.000 A 
ATOM     18  C   UNL d   1       5.304  -1.229   0.000  0.00  0.00     0.000 A 
ATOM     19  C   UNL d   1       4.616  -0.762   0.000  0.00  0.00     0.002 A 
ENDBRANCH  13  14
ENDBRANCH  10  13
ENDBRANCH   2   7
BRANCH   1  20
ATOM     20  N   UNL d   1       0.917  -3.400   0.000  0.00  0.00    -0.092 N 
ATOM     21  O   UNL d   1       0.842  -4.216   0.000  0.00  0.00    -0.530 OA
ATOM     22  O   UNL d   1       1.667  -3.050   0.000  0.00  0.00    -0.530 OA
ENDBRANCH   1  20
BRANCH   3  23
ATOM     23  C   UNL d   1      -0.833  -1.067   0.000  0.00  0.00     0.083 C 
BRANCH  23  24
ATOM     24  C   UNL d   1      -0.296  -0.442   0.000  0.00  0.00     0.018 A 
ATOM     25  C   UNL d   1       0.517  -0.604   0.000  0.00  0.00     0.002 A 
ATOM     26  C   UNL d   1       1.062   0.021   0.000  0.00  0.00     0.000 A 
ATOM     27  C   UNL d   1       0.792   0.796   0.000  0.00  0.00     0.000 A 
ATOM     28  C   UNL d   1      -0.013   0.958   0.000  0.00  0.00     0.000 A 
ATOM     29  C   UNL d   1      -0.558   0.333   0.000  0.00  0.00     0.002 A 
ENDBRANCH  23  24
ENDBRANCH   3  23
TORSDOF 6
