REMARK  3 active torsions:
REMARK  status: ('A' for Active; 'I' for Inactive)
REMARK    1  A    between atoms: C_6  and  C_1 
REMARK    2  A    between atoms: C_4  and  C_8 
REMARK       I    between atoms: N_11  and  C_6 
REMARK       I    between atoms: C_8  and  N_12 
REMARK    3  A    between atoms: N_12  and  N_11 
ROOT
ATOM      1  C   UNL d   1       3.111  -0.878   0.000  0.00  0.00     0.302 C 
ATOM      2  N   UNL d   1       3.111  -0.054   0.000  0.00  0.00    -0.102 NA
ATOM      3  O   UNL d   1       3.823  -1.298   0.000  0.00  0.00    -0.263 OA
ENDROOT
BRANCH   1   4
ATOM      4  C   UNL d   1       2.396  -1.298   0.000  0.00  0.00     0.123 A 
ATOM      5  C   UNL d   1       2.400  -2.113   0.000  0.00  0.00     0.305 A 
ATOM      6  O   UNL d   1       1.676  -2.525   0.000  0.00  0.00    -0.273 OA
ATOM      7  O   UNL d   1       3.111  -2.525   0.000  0.00  0.00    -0.259 OA
ATOM      8  C   UNL d   1       0.965  -2.113   0.000  0.00  0.00     0.103 A 
ATOM      9  C   UNL d   1       0.965  -1.285   0.000  0.00  0.00     0.024 A 
ATOM     10  C   UNL d   1       0.254  -2.525   0.000  0.00  0.00     0.025 A 
ATOM     11  C   UNL d   1       1.685  -0.878   0.000  0.00  0.00     0.012 A 
ATOM     12  C   UNL d   1       0.254  -0.874   0.000  0.00  0.00     0.009 A 
ATOM     13  C   UNL d   1      -0.462  -1.277   0.000  0.00  0.00     0.035 A 
ATOM     14  C   UNL d   1      -0.462  -2.109   0.000  0.00  0.00     0.009 A 
ATOM     15 BR   UNL d   1      -1.173  -0.865   0.000  0.00  0.00    -0.049 Br
ENDBRANCH   1   4
BRANCH   2  16
ATOM     16  N   UNL d   1       3.831   0.349   0.000  0.00  0.00    -0.102 NA
ATOM     17  C   UNL d   1       3.831   1.173   0.000  0.00  0.00     0.300 C 
ATOM     18  O   UNL d   1       3.120   1.593   0.000  0.00  0.00    -0.264 OA
BRANCH  17  19
ATOM     19  C   UNL d   1       4.546   1.585   0.000  0.00  0.00     0.098 A 
ATOM     20  C   UNL d   1       5.258   1.169   0.000  0.00  0.00     0.203 A 
ATOM     21  C   UNL d   1       5.969   1.572   0.000  0.00  0.00     0.084 A 
ATOM     22  O   UNL d   1       5.254   0.345   0.000  0.00  0.00    -0.286 OA
ATOM     23  C   UNL d   1       5.977   2.396   0.000  0.00  0.00     0.199 A 
ATOM     24  C   UNL d   1       5.266   2.816   0.000  0.00  0.00     0.042 A 
ATOM     25  O   UNL d   1       6.693   2.804   0.000  0.00  0.00    -0.286 OA
ATOM     26  C   UNL d   1       4.546   2.404   0.000  0.00  0.00     0.011 A 
ENDBRANCH  17  19
ENDBRANCH   2  16
TORSDOF 3
