REMARK  5 active torsions:
REMARK  status: ('A' for Active; 'I' for Inactive)
REMARK    1  A    between atoms: N_6  and  S_1 
REMARK    2  A    between atoms: C_8  and  S_1 
REMARK    3  A    between atoms: C_12  and  C_3 
REMARK    4  A    between atoms: C_4  and  C_11 
REMARK    5  A    between atoms: C_15  and  N_6 
ROOT
ATOM      1  C   UNL d   1      -1.143  -3.406   0.000  0.00  0.00     0.018 A 
ATOM      2  C   UNL d   1      -2.316  -2.250   0.000  0.00  0.00     0.094 A 
ATOM      3  C   UNL d   1      -1.942  -3.622   0.000  0.00  0.00     0.003 A 
ATOM      4  C   UNL d   1      -0.936  -2.607   0.000  0.00  0.00     0.003 A 
ATOM      5  C   UNL d   1      -2.528  -3.044   0.000  0.00  0.00     0.020 A 
ATOM      6  C   UNL d   1      -1.518  -2.033   0.000  0.00  0.00     0.020 A 
ENDROOT
BRANCH   1   7
ATOM      7  C   UNL d   1      -0.557  -3.984   0.000  0.00  0.00     0.088 A 
ATOM      8  N   UNL d   1       0.853  -3.971   0.000  0.00  0.00    -0.239 NA
ATOM      9  C   UNL d   1       0.861  -4.790   0.000  0.00  0.00     0.111 A 
ATOM     10  S   UNL d   1       0.162  -5.206   0.000  0.00  0.00    -0.066 SA
ATOM     11  C   UNL d   1      -0.557  -4.803   0.000  0.00  0.00     0.056 A 
BRANCH   9  12
ATOM     12  C   UNL d   1       1.576  -5.194   0.000  0.00  0.00     0.024 A 
ATOM     13  C   UNL d   1       1.576  -6.017   0.000  0.00  0.00     0.002 A 
ATOM     14  C   UNL d   1       2.295  -6.416   0.000  0.00  0.00     0.000 A 
ATOM     15  C   UNL d   1       3.006  -6.005   0.000  0.00  0.00     0.000 A 
ATOM     16  C   UNL d   1       2.998  -5.177   0.000  0.00  0.00     0.000 A 
ATOM     17  C   UNL d   1       2.275  -4.769   0.000  0.00  0.00     0.002 A 
ENDBRANCH   9  12
ENDBRANCH   1   7
BRANCH   2  18
ATOM     18  N   UNL d   1      -2.902  -1.663   0.000  0.00  0.00    -0.158 NA
BRANCH  18  19
ATOM     19  S   UNL d   1      -2.690  -0.873   0.000  0.00  0.00     0.285 S 
ATOM     20  O   UNL d   1      -3.277  -0.291   0.000  0.00  0.00    -0.198 OA
ATOM     21  O   UNL d   1      -1.892  -0.653   0.000  0.00  0.00    -0.198 OA
BRANCH  19  22
ATOM     22  C   UNL d   1      -2.478  -0.075   0.000  0.00  0.00     0.105 A 
ATOM     23  C   UNL d   1      -1.680   0.145   0.000  0.00  0.00     0.013 A 
ATOM     24  C   UNL d   1      -1.460   0.936   0.000  0.00  0.00     0.001 A 
ATOM     25  C   UNL d   1      -2.054   1.522   0.000  0.00  0.00     0.000 A 
ATOM     26  C   UNL d   1      -2.853   1.310   0.000  0.00  0.00     0.001 A 
ATOM     27  C   UNL d   1      -1.842   2.329   0.000  0.00  0.00     0.000 C 
ATOM     28  C   UNL d   1      -3.065   0.507   0.000  0.00  0.00     0.013 A 
ENDBRANCH  19  22
ENDBRANCH  18  19
ENDBRANCH   2  18
TORSDOF 5
