REMARK  3 active torsions:
REMARK  status: ('A' for Active; 'I' for Inactive)
REMARK    1  A    between atoms: C_2  and  C_1 
REMARK       I    between atoms: N_7  and  C_2 
REMARK    2  A    between atoms: C_9  and  N_7 
REMARK    3  A    between atoms: O_16  and  C_10 
ROOT
ATOM      1  C   UNL d   1       3.697   0.283   0.000  0.00  0.00     0.280 C 
ATOM      2  N   UNL d   1       4.067  -0.453   0.000  0.00  0.00    -0.208 NA
ATOM      3  O   UNL d   1       4.159   0.973   0.000  0.00  0.00    -0.265 OA
ENDROOT
BRANCH   1   4
ATOM      4  C   UNL d   1       2.874   0.337   0.000  0.00  0.00     0.065 A 
ATOM      5  C   UNL d   1       2.433   1.031   0.000  0.00  0.00     0.011 A 
ATOM      6  C   UNL d   1       1.639   0.819   0.000  0.00  0.00     0.030 A 
ATOM      7  C   UNL d   1       2.649   1.830   0.000  0.00  0.00     0.001 A 
ATOM      8  C   UNL d   1       1.052   1.406   0.000  0.00  0.00     0.006 A 
ATOM      9  S   UNL d   1       1.589   0.000   0.000  0.00  0.00    -0.086 SA
ATOM     10  C   UNL d   1       1.264   2.192   0.000  0.00  0.00     0.001 A 
ATOM     11  C   UNL d   1       2.063   2.408   0.000  0.00  0.00     0.000 A 
ATOM     12  C   UNL d   1       2.362  -0.291   0.000  0.00  0.00     0.040 A 
ENDBRANCH   1   4
BRANCH   2  13
ATOM     13  C   UNL d   1       3.606  -1.140   0.000  0.00  0.00     0.085 A 
ATOM     14  C   UNL d   1       3.972  -1.876   0.000  0.00  0.00     0.021 A 
ATOM     15  C   UNL d   1       3.510  -2.570   0.000  0.00  0.00     0.026 A 
ATOM     16  C   UNL d   1       2.687  -2.520   0.000  0.00  0.00     0.094 A 
ATOM     17  C   UNL d   1       2.325  -1.776   0.000  0.00  0.00     0.026 A 
ATOM     18  C   UNL d   1       2.782  -1.090   0.000  0.00  0.00     0.021 A 
BRANCH  16  19
ATOM     19  O   UNL d   1       2.238  -3.223   0.000  0.00  0.00    -0.328 OA
ATOM     20  C   UNL d   1       2.612  -3.959   0.000  0.00  0.00     0.181 C 
ENDBRANCH  16  19
ENDBRANCH   2  13
TORSDOF 3
