REMARK  5 active torsions:
REMARK  status: ('A' for Active; 'I' for Inactive)
REMARK    1  A    between atoms: C_7  and  N_1 
REMARK    2  A    between atoms: C_2  and  C_6 
REMARK    3  A    between atoms: C_5  and  C_3 
REMARK    4  A    between atoms: N_8  and  C_5 
REMARK    5  A    between atoms: C_19  and  N_9 
ROOT
ATOM      1  C   UNL d   1      -1.835   2.002   0.000  0.00  0.00     0.102 A 
ATOM      2  C   UNL d   1      -0.524   1.719   0.000  0.00  0.00     0.126 A 
ATOM      3  O   UNL d   1      -1.279   1.386   0.000  0.00  0.00    -0.305 OA
ATOM      4  C   UNL d   1      -1.413   2.720   0.000  0.00  0.00     0.027 A 
ATOM      5  C   UNL d   1      -0.612   2.540   0.000  0.00  0.00     0.029 A 
ENDROOT
BRANCH   2   6
ATOM      6  C   UNL d   1       0.227   1.293   0.000  0.00  0.00     0.143 C 
ATOM      7  S   UNL d   1       0.227   0.468   0.000  0.00  0.00    -0.057 SA
BRANCH   6   8
ATOM      8  N   UNL d   1       0.946   1.738   0.000  0.00  0.00    -0.291 N 
ATOM      9  C   UNL d   1       0.946   2.558   0.000  0.00  0.00     0.100 A 
ATOM     10  C   UNL d   1       1.655   2.962   0.000  0.00  0.00     0.100 A 
ATOM     11  N   UNL d   1       2.368   2.581   0.000  0.00  0.00    -0.301 N 
ATOM     12  C   UNL d   1       2.392   1.738   0.000  0.00  0.00     0.100 A 
ATOM     13  C   UNL d   1       1.673   1.316   0.000  0.00  0.00     0.100 A 
BRANCH  11  14
ATOM     14  C   UNL d   1       3.077   3.013   0.000  0.00  0.00     0.064 A 
ATOM     15  C   UNL d   1       3.077   3.833   0.000  0.00  0.00     0.018 A 
ATOM     16  C   UNL d   1       3.787   4.250   0.000  0.00  0.00     0.002 A 
ATOM     17  C   UNL d   1       4.505   3.833   0.000  0.00  0.00     0.000 A 
ATOM     18  C   UNL d   1       4.505   3.013   0.000  0.00  0.00     0.002 A 
ATOM     19  C   UNL d   1       3.787   2.609   0.000  0.00  0.00     0.018 A 
ENDBRANCH  11  14
ENDBRANCH   6   8
ENDBRANCH   2   6
BRANCH   1  20
ATOM     20  C   UNL d   1      -2.665   2.002   0.000  0.00  0.00     0.045 A 
ATOM     21  C   UNL d   1      -3.082   2.720   0.000  0.00  0.00     0.129 A 
ATOM     22  C   UNL d   1      -3.907   2.720   0.000  0.00  0.00     0.024 A 
ATOM     23  C   UNL d   1      -4.333   2.002   0.000  0.00  0.00     0.002 A 
ATOM     24  C   UNL d   1      -3.907   1.293   0.000  0.00  0.00     0.000 A 
ATOM     25  C   UNL d   1      -3.082   1.293   0.000  0.00  0.00     0.004 A 
BRANCH  21  26
ATOM     26  N   UNL d   1      -2.683   3.430   0.000  0.00  0.00    -0.114 N 
ATOM     27  O   UNL d   1      -1.849   3.504   0.000  0.00  0.00    -0.532 OA
ATOM     28  O   UNL d   1      -3.054   4.167   0.000  0.00  0.00    -0.532 OA
ENDBRANCH  21  26
ENDBRANCH   1  20
TORSDOF 5
