REMARK  2 active torsions:
REMARK  status: ('A' for Active; 'I' for Inactive)
REMARK    1  A    between atoms: C_2  and  C_1 
REMARK       I    between atoms: N_7  and  C_2 
REMARK    2  A    between atoms: C_9  and  N_7 
ROOT
ATOM      1  C   UNL d   1       3.695   0.370   0.000  0.00  0.00     0.280 C 
ATOM      2  N   UNL d   1       4.065  -0.366   0.000  0.00  0.00    -0.208 NA
ATOM      3  O   UNL d   1       4.156   1.056   0.000  0.00  0.00    -0.265 OA
ENDROOT
BRANCH   1   4
ATOM      4  C   UNL d   1       2.872   0.420   0.000  0.00  0.00     0.065 A 
ATOM      5  C   UNL d   1       2.431   1.118   0.000  0.00  0.00     0.011 A 
ATOM      6  C   UNL d   1       1.638   0.906   0.000  0.00  0.00     0.030 A 
ATOM      7  C   UNL d   1       2.648   1.908   0.000  0.00  0.00     0.001 A 
ATOM      8  C   UNL d   1       1.052   1.492   0.000  0.00  0.00     0.006 A 
ATOM      9  S   UNL d   1       1.588   0.083   0.000  0.00  0.00    -0.086 SA
ATOM     10  C   UNL d   1       1.264   2.269   0.000  0.00  0.00     0.001 A 
ATOM     11  C   UNL d   1       2.062   2.490   0.000  0.00  0.00     0.000 A 
ATOM     12  C   UNL d   1       2.361  -0.212   0.000  0.00  0.00     0.040 A 
ENDBRANCH   1   4
BRANCH   2  13
ATOM     13  C   UNL d   1       3.603  -1.060   0.000  0.00  0.00     0.085 A 
ATOM     14  C   UNL d   1       3.969  -1.796   0.000  0.00  0.00     0.019 A 
ATOM     15  C   UNL d   1       3.508  -2.486   0.000  0.00  0.00     0.002 A 
ATOM     16  C   UNL d   1       2.685  -2.436   0.000  0.00  0.00     0.000 A 
ATOM     17  C   UNL d   1       2.323  -1.688   0.000  0.00  0.00     0.002 A 
ATOM     18  C   UNL d   1       2.236  -3.134   0.000  0.00  0.00     0.000 C 
ATOM     19  C   UNL d   1       2.781  -1.002   0.000  0.00  0.00     0.019 A 
ENDBRANCH   2  13
TORSDOF 2
