REMARK  3 active torsions:
REMARK  status: ('A' for Active; 'I' for Inactive)
REMARK    1  A    between atoms: N_3  and  S_1 
REMARK    2  A    between atoms: C_11  and  S_1 
REMARK    3  A    between atoms: C_2  and  N_3 
ROOT
ATOM      1  C   UNL d   1      -0.096  -0.659   0.000  0.00  0.00     0.095 A 
ATOM      2  C   UNL d   1       0.723  -0.815   0.000  0.00  0.00     0.032 A 
ATOM      3  C   UNL d   1       1.246  -0.196   0.000  0.00  0.00     0.098 A 
ATOM      4  C   UNL d   1       0.975   0.587   0.000  0.00  0.00     0.206 A 
ATOM      5  C   UNL d   1       0.172   0.739   0.000  0.00  0.00     0.041 A 
ATOM      6  C   UNL d   1      -0.367   0.128   0.000  0.00  0.00     0.023 A 
ATOM      7 CL   UNL d   1       2.065  -0.352   0.000  0.00  0.00    -0.079 Cl
ATOM      8  O   UNL d   1       1.534   1.198   0.000  0.00  0.00    -0.286 OA
ATOM      9  C   UNL d   1       1.011  -1.582   0.000  0.00  0.00     0.003 C 
ATOM     10  C   UNL d   1      -0.096   1.530   0.000  0.00  0.00     0.003 C 
ENDROOT
BRANCH   1  11
ATOM     11  N   UNL d   1      -0.635  -1.274   0.000  0.00  0.00    -0.158 NA
BRANCH  11  12
ATOM     12  S   UNL d   1      -1.438  -1.119   0.000  0.00  0.00     0.285 S 
ATOM     13  O   UNL d   1      -1.614  -1.922   0.000  0.00  0.00    -0.198 OA
ATOM     14  O   UNL d   1      -1.290  -0.292   0.000  0.00  0.00    -0.198 OA
BRANCH  12  15
ATOM     15  C   UNL d   1      -2.265  -0.947   0.000  0.00  0.00     0.105 A 
ATOM     16  C   UNL d   1      -2.824  -1.538   0.000  0.00  0.00     0.013 A 
ATOM     17  C   UNL d   1      -3.627  -1.370   0.000  0.00  0.00     0.001 A 
ATOM     18  C   UNL d   1      -3.879  -0.579   0.000  0.00  0.00     0.000 A 
ATOM     19  C   UNL d   1      -3.320   0.012   0.000  0.00  0.00     0.001 A 
ATOM     20  C   UNL d   1      -2.513  -0.160   0.000  0.00  0.00     0.013 A 
ENDBRANCH  12  15
ENDBRANCH  11  12
ENDBRANCH   1  11
TORSDOF 3
