REMARK  4 active torsions:
REMARK  status: ('A' for Active; 'I' for Inactive)
REMARK    1  A    between atoms: C_2  and  C_1 
REMARK       I    between atoms: N_7  and  C_2 
REMARK    2  A    between atoms: C_9  and  N_7 
REMARK    3  A    between atoms: O_16  and  C_10 
REMARK    4  A    between atoms: C_18  and  O_16 
ROOT
ATOM      1  C   UNL d   1       3.695   0.719   0.000  0.00  0.00     0.280 C 
ATOM      2  N   UNL d   1       4.065  -0.017   0.000  0.00  0.00    -0.208 NA
ATOM      3  O   UNL d   1       4.156   1.405   0.000  0.00  0.00    -0.265 OA
ENDROOT
BRANCH   1   4
ATOM      4  C   UNL d   1       2.872   0.769   0.000  0.00  0.00     0.065 A 
ATOM      5  C   UNL d   1       2.431   1.467   0.000  0.00  0.00     0.011 A 
ATOM      6  C   UNL d   1       1.638   1.255   0.000  0.00  0.00     0.030 A 
ATOM      7  C   UNL d   1       2.648   2.265   0.000  0.00  0.00     0.001 A 
ATOM      8  C   UNL d   1       1.052   1.841   0.000  0.00  0.00     0.006 A 
ATOM      9  S   UNL d   1       1.588   0.432   0.000  0.00  0.00    -0.086 SA
ATOM     10  C   UNL d   1       1.264   2.619   0.000  0.00  0.00     0.001 A 
ATOM     11  C   UNL d   1       2.062   2.839   0.000  0.00  0.00     0.000 A 
ATOM     12  C   UNL d   1       2.361   0.137   0.000  0.00  0.00     0.040 A 
ENDBRANCH   1   4
BRANCH   2  13
ATOM     13  C   UNL d   1       3.603  -0.711   0.000  0.00  0.00     0.085 A 
ATOM     14  C   UNL d   1       2.781  -0.653   0.000  0.00  0.00     0.021 A 
ATOM     15  C   UNL d   1       2.323  -1.338   0.000  0.00  0.00     0.026 A 
ATOM     16  C   UNL d   1       2.685  -2.087   0.000  0.00  0.00     0.100 A 
ATOM     17  C   UNL d   1       3.508  -2.136   0.000  0.00  0.00     0.026 A 
ATOM     18  C   UNL d   1       3.969  -1.446   0.000  0.00  0.00     0.021 A 
BRANCH  16  19
ATOM     19  O   UNL d   1       2.236  -2.785   0.000  0.00  0.00    -0.305 OA
BRANCH  19  20
ATOM     20  C   UNL d   1       2.610  -3.520   0.000  0.00  0.00     0.123 C 
ATOM     21  C   UNL d   1       2.161  -4.215   0.000  0.00  0.00     0.029 C 
ENDBRANCH  19  20
ENDBRANCH  16  19
ENDBRANCH   2  13
TORSDOF 4
