REMARK  5 active torsions:
REMARK  status: ('A' for Active; 'I' for Inactive)
REMARK    1  A    between atoms: N_7  and  C_1 
REMARK    2  A    between atoms: S_6  and  C_2 
REMARK    3  A    between atoms: C_3  and  S_6 
REMARK    4  A    between atoms: C_13  and  N_5 
REMARK    5  A    between atoms: C_18  and  C_13 
ROOT
ATOM      1  C   UNL d   1       0.613  -0.754   0.000  0.00  0.00     0.232 A 
ATOM      2  C   UNL d   1       0.942  -0.004   0.000  0.00  0.00     0.139 A 
ATOM      3  N   UNL d   1       1.225  -1.312   0.000  0.00  0.00    -0.204 NA
ATOM      4  N   UNL d   1       1.762  -0.087   0.000  0.00  0.00    -0.282 N 
ATOM      5  C   UNL d   1       1.942  -0.892   0.000  0.00  0.00     0.150 A 
ATOM      6  C   UNL d   1       2.692  -1.225   0.000  0.00  0.00     0.041 C 
ENDROOT
BRANCH   2   7
ATOM      7  S   UNL d   1       0.529   0.708   0.000  0.00  0.00    -0.029 SA
BRANCH   7   8
ATOM      8  C   UNL d   1      -0.296   0.708   0.000  0.00  0.00     0.181 A 
ATOM      9  N   UNL d   1      -0.783   0.037   0.000  0.00  0.00    -0.221 NA
ATOM     10  C   UNL d   1      -1.562   0.287   0.000  0.00  0.00     0.100 A 
ATOM     11  C   UNL d   1      -2.283  -0.117   0.000  0.00  0.00     0.021 A 
ATOM     12  C   UNL d   1      -1.571   1.113   0.000  0.00  0.00     0.084 A 
ATOM     13  C   UNL d   1      -2.987   0.287   0.000  0.00  0.00     0.002 A 
ATOM     14  C   UNL d   1      -2.987   1.113   0.000  0.00  0.00     0.002 A 
ATOM     15  C   UNL d   1      -2.283   1.533   0.000  0.00  0.00     0.019 A 
ATOM     16  N   UNL d   1      -0.783   1.371   0.000  0.00  0.00    -0.282 N 
ATOM     17  C   UNL d   1      -0.533   2.158   0.000  0.00  0.00     0.101 C 
ENDBRANCH   7   8
ENDBRANCH   2   7
BRANCH   1  18
ATOM     18  N   UNL d   1       0.167  -1.454   0.000  0.00  0.00    -0.093 N 
ATOM     19  O   UNL d   1      -0.658  -1.417   0.000  0.00  0.00    -0.530 OA
ATOM     20  O   UNL d   1       0.542  -2.188   0.000  0.00  0.00    -0.530 OA
ENDBRANCH   1  18
BRANCH   4  21
ATOM     21  C   UNL d   1       2.312   0.533   0.000  0.00  0.00     0.082 C 
BRANCH  21  22
ATOM     22  C   UNL d   1       3.117   0.358   0.000  0.00  0.00     0.018 A 
ATOM     23  C   UNL d   1       3.379  -0.429   0.000  0.00  0.00     0.002 A 
ATOM     24  C   UNL d   1       4.179  -0.600   0.000  0.00  0.00     0.000 A 
ATOM     25  C   UNL d   1       4.729   0.021   0.000  0.00  0.00     0.000 A 
ATOM     26  C   UNL d   1       4.475   0.800   0.000  0.00  0.00     0.000 A 
ATOM     27  C   UNL d   1       3.667   0.971   0.000  0.00  0.00     0.002 A 
ENDBRANCH  21  22
ENDBRANCH   4  21
TORSDOF 5
