REMARK  4 active torsions:
REMARK  status: ('A' for Active; 'I' for Inactive)
REMARK    1  A    between atoms: C_3  and  C_1 
REMARK    2  A    between atoms: N_2  and  C_9 
REMARK    3  A    between atoms: N_6  and  C_3 
REMARK    4  A    between atoms: C_10  and  C_5 
ROOT
ATOM      1  C   UNL d   1      -0.064   2.036   0.000  0.00  0.00     0.126 A 
ATOM      2  O   UNL d   1      -0.725   1.532   0.000  0.00  0.00    -0.305 OA
ATOM      3  C   UNL d   1      -1.392   2.013   0.000  0.00  0.00     0.100 A 
ATOM      4  C   UNL d   1      -0.342   2.785   0.000  0.00  0.00     0.029 A 
ATOM      5  C   UNL d   1      -1.143   2.785   0.000  0.00  0.00     0.027 A 
ENDROOT
BRANCH   3   6
ATOM      6  C   UNL d   1      -2.204   1.839   0.000  0.00  0.00     0.024 A 
ATOM      7  C   UNL d   1      -2.454   1.038   0.000  0.00  0.00     0.025 A 
ATOM      8  C   UNL d   1      -3.266   0.864   0.000  0.00  0.00     0.127 A 
ATOM      9  C   UNL d   1      -3.823   1.479   0.000  0.00  0.00     0.024 A 
ATOM     10  C   UNL d   1      -3.568   2.257   0.000  0.00  0.00     0.002 A 
ATOM     11  C   UNL d   1      -2.761   2.431   0.000  0.00  0.00     0.002 A 
BRANCH   8  12
ATOM     12  N   UNL d   1      -3.510   0.087   0.000  0.00  0.00    -0.114 N 
ATOM     13  O   UNL d   1      -4.310  -0.145   0.000  0.00  0.00    -0.532 OA
ATOM     14  O   UNL d   1      -3.011  -0.557   0.000  0.00  0.00    -0.532 OA
ENDBRANCH   8  12
ENDBRANCH   3   6
BRANCH   1  15
ATOM     15  C   UNL d   1       0.748   1.839   0.000  0.00  0.00     0.143 C 
ATOM     16  S   UNL d   1       0.998   1.062   0.000  0.00  0.00    -0.057 SA
BRANCH  15  17
ATOM     17  N   UNL d   1       1.329   2.431   0.000  0.00  0.00    -0.290 N 
ATOM     18  C   UNL d   1       1.085   3.202   0.000  0.00  0.00     0.108 A 
ATOM     19  C   UNL d   1       1.671   3.788   0.000  0.00  0.00     0.142 A 
ATOM     20  O   UNL d   1       2.442   3.597   0.000  0.00  0.00    -0.300 OA
ATOM     21  C   UNL d   1       2.698   2.848   0.000  0.00  0.00     0.142 A 
ATOM     22  C   UNL d   1       2.112   2.228   0.000  0.00  0.00     0.108 A 
ENDBRANCH  15  17
ENDBRANCH   1  15
TORSDOF 4
