REMARK  3 active torsions:
REMARK  status: ('A' for Active; 'I' for Inactive)
REMARK    1  A    between atoms: N_8  and  C_1 
REMARK    2  A    between atoms: N_7  and  C_2 
REMARK    3  A    between atoms: C_11  and  N_8 
ROOT
ATOM      1  C   UNL d   1      -1.955   0.911   0.000  0.00  0.00     0.139 A 
ATOM      2  C   UNL d   1      -1.955   0.090   0.000  0.00  0.00     0.124 A 
ATOM      3  C   UNL d   1      -2.670  -0.344   0.000  0.00  0.00     0.213 A 
ATOM      4  C   UNL d   1      -2.670   1.325   0.000  0.00  0.00     0.215 A 
ATOM      5  C   UNL d   1      -3.378   0.090   0.000  0.00  0.00     0.044 A 
ATOM      6  C   UNL d   1      -3.378   0.911   0.000  0.00  0.00     0.044 A 
ATOM      7  O   UNL d   1      -2.670  -1.173   0.000  0.00  0.00    -0.285 OA
ATOM      8  O   UNL d   1      -2.670   2.154   0.000  0.00  0.00    -0.285 OA
ATOM      9  C   UNL d   1      -4.094  -0.344   0.000  0.00  0.00     0.003 A 
ATOM     10  C   UNL d   1      -4.094   1.325   0.000  0.00  0.00     0.003 A 
ATOM     11  C   UNL d   1      -4.805   0.090   0.000  0.00  0.00     0.000 A 
ATOM     12  C   UNL d   1      -4.805   0.911   0.000  0.00  0.00     0.000 A 
ENDROOT
BRANCH   1  13
ATOM     13  N   UNL d   1      -1.220   1.325   0.000  0.00  0.00    -0.241 NA
BRANCH  13  14
ATOM     14  C   UNL d   1      -1.220   2.154   0.000  0.00  0.00     0.082 A 
ATOM     15  C   UNL d   1      -1.935   2.565   0.000  0.00  0.00     0.019 A 
ATOM     16  C   UNL d   1      -1.935   3.390   0.000  0.00  0.00     0.002 A 
ATOM     17  C   UNL d   1      -1.220   3.792   0.000  0.00  0.00     0.000 A 
ATOM     18  C   UNL d   1      -0.512   3.390   0.000  0.00  0.00     0.002 A 
ATOM     19  C   UNL d   1      -0.512   2.565   0.000  0.00  0.00     0.019 A 
ENDBRANCH  13  14
ENDBRANCH   1  13
BRANCH   2  20
ATOM     20  N   UNL d   1      -1.239  -0.344   0.000  0.00  0.00    -0.300 N 
ATOM     21  C   UNL d   1      -1.239  -1.173   0.000  0.00  0.00     0.080 A 
ATOM     22  C   UNL d   1      -0.528  -1.583   0.000  0.00  0.00     0.019 A 
ATOM     23  C   UNL d   1       0.203  -1.173   0.000  0.00  0.00     0.003 A 
ATOM     24  C   UNL d   1       0.203  -0.344   0.000  0.00  0.00     0.019 A 
ATOM     25  C   UNL d   1      -0.528   0.090   0.000  0.00  0.00     0.080 A 
ENDBRANCH   2  20
TORSDOF 3
