REMARK  3 active torsions:
REMARK  status: ('A' for Active; 'I' for Inactive)
REMARK    1  A    between atoms: N_2  and  S_1 
REMARK    2  A    between atoms: C_4  and  S_1 
REMARK    3  A    between atoms: C_3  and  N_2 
ROOT
ATOM      1  S   UNL d   1      -1.101   0.012   0.000  0.00  0.00     0.285 S 
ATOM      2  O   UNL d   1      -1.322   0.810   0.000  0.00  0.00    -0.198 OA
ATOM      3  O   UNL d   1      -0.880  -0.791   0.000  0.00  0.00    -0.198 OA
ENDROOT
BRANCH   1   4
ATOM      4  N   UNL d   1      -0.298   0.233   0.000  0.00  0.00    -0.158 NA
BRANCH   4   5
ATOM      5  C   UNL d   1      -0.093   1.035   0.000  0.00  0.00     0.094 A 
ATOM      6  C   UNL d   1      -0.671   1.628   0.000  0.00  0.00     0.023 A 
ATOM      7  C   UNL d   1      -0.465   2.415   0.000  0.00  0.00     0.041 A 
ATOM      8  C   UNL d   1      -1.066   2.974   0.000  0.00  0.00     0.003 C 
ATOM      9  C   UNL d   1       0.353   2.636   0.000  0.00  0.00     0.196 A 
ATOM     10  C   UNL d   1       0.930   2.043   0.000  0.00  0.00     0.044 A 
ATOM     11  O   UNL d   1       0.558   3.439   0.000  0.00  0.00    -0.287 OA
ATOM     12  C   UNL d   1       0.702   1.256   0.000  0.00  0.00     0.022 A 
ATOM     13  C   UNL d   1       1.283   0.682   0.000  0.00  0.00     0.002 C 
ENDBRANCH   4   5
ENDBRANCH   1   4
BRANCH   1  14
ATOM     14  C   UNL d   1      -1.904  -0.213   0.000  0.00  0.00     0.105 A 
ATOM     15  C   UNL d   1      -2.478   0.368   0.000  0.00  0.00     0.013 A 
ATOM     16  C   UNL d   1      -3.257   0.159   0.000  0.00  0.00     0.001 A 
ATOM     17  C   UNL d   1      -3.486  -0.655   0.000  0.00  0.00     0.000 A 
ATOM     18  C   UNL d   1      -2.904  -1.237   0.000  0.00  0.00     0.001 A 
ATOM     19  C   UNL d   1      -4.300  -0.899   0.000  0.00  0.00     0.000 C 
ATOM     20  C   UNL d   1      -2.105  -1.012   0.000  0.00  0.00     0.013 A 
ENDBRANCH   1  14
TORSDOF 3
