REMARK  7 active torsions:
REMARK  status: ('A' for Active; 'I' for Inactive)
REMARK    1  A    between atoms: C_2  and  P_1 
REMARK    2  A    between atoms: O_3  and  P_1 
REMARK    3  A    between atoms: C_4  and  P_1 
REMARK    4  A    between atoms: C_12  and  C_2 
REMARK    5  A    between atoms: C_13  and  O_3 
REMARK    6  A    between atoms: N_7  and  C_6 
REMARK    7  A    between atoms: C_15  and  C_13 
ROOT
ATOM      1  P   UNL d   1      -2.128   1.813   0.000  0.00  0.00     0.307 P 
ATOM      2  O   UNL d   1      -1.390   2.259   0.000  0.00  0.00    -0.277 OA
ENDROOT
BRANCH   1   3
ATOM      3  C   UNL d   1      -1.693   1.075   0.000  0.00  0.00     0.253 C 
ATOM      4  O   UNL d   1      -2.105   0.360   0.000  0.00  0.00    -0.281 OA
BRANCH   3   5
ATOM      5  C   UNL d   1      -0.869   1.075   0.000  0.00  0.00     0.044 C 
ATOM      6  C   UNL d   1      -0.458   0.360   0.000  0.00  0.00     0.004 C 
ATOM      7  C   UNL d   1      -0.458   1.784   0.000  0.00  0.00     0.004 C 
ENDBRANCH   3   5
ENDBRANCH   1   3
BRANCH   1   8
ATOM      8  O   UNL d   1      -2.539   2.557   0.000  0.00  0.00    -0.279 OA
BRANCH   8   9
ATOM      9  C   UNL d   1      -3.392   2.585   0.000  0.00  0.00     0.124 C 
BRANCH   9  10
ATOM     10  C   UNL d   1      -3.803   3.294   0.000  0.00  0.00     0.025 A 
ATOM     11  C   UNL d   1      -3.392   4.009   0.000  0.00  0.00     0.002 A 
ATOM     12  C   UNL d   1      -3.803   4.730   0.000  0.00  0.00     0.000 A 
ATOM     13  C   UNL d   1      -4.627   4.730   0.000  0.00  0.00     0.000 A 
ATOM     14  C   UNL d   1      -5.039   4.009   0.000  0.00  0.00     0.000 A 
ATOM     15  C   UNL d   1      -4.627   3.294   0.000  0.00  0.00     0.002 A 
ENDBRANCH   9  10
ENDBRANCH   8   9
ENDBRANCH   1   8
BRANCH   1  16
ATOM     16  C   UNL d   1      -2.877   1.401   0.000  0.00  0.00     0.061 A 
ATOM     17  C   UNL d   1      -2.877   0.578   0.000  0.00  0.00     0.007 A 
ATOM     18  C   UNL d   1      -3.586   0.166   0.000  0.00  0.00     0.018 A 
ATOM     19  C   UNL d   1      -4.301   0.578   0.000  0.00  0.00     0.064 A 
ATOM     20  C   UNL d   1      -4.301   1.401   0.000  0.00  0.00     0.018 A 
ATOM     21  C   UNL d   1      -3.586   1.813   0.000  0.00  0.00     0.007 A 
BRANCH  19  22
ATOM     22  N   UNL d   1      -5.039   0.137   0.000  0.00  0.00    -0.301 N 
ATOM     23  C   UNL d   1      -5.759   0.549   0.000  0.00  0.00     0.100 C 
ATOM     24  C   UNL d   1      -5.039  -0.692   0.000  0.00  0.00     0.100 C 
ENDBRANCH  19  22
ENDBRANCH   1  16
TORSDOF 7
