REMARK  3 active torsions:
REMARK  status: ('A' for Active; 'I' for Inactive)
REMARK    1  A    between atoms: C_4  and  C_1 
REMARK       I    between atoms: N_7  and  C_4 
REMARK    2  A    between atoms: C_14  and  N_7 
REMARK    3  A    between atoms: C_9  and  C_10 
ROOT
ATOM      1  C   UNL d   1      -0.633  -0.254   0.000  0.00  0.00     0.281 C 
ATOM      2  N   UNL d   1      -1.067  -0.943   0.000  0.00  0.00    -0.208 NA
ATOM      3  O   UNL d   1      -1.012   0.480   0.000  0.00  0.00    -0.265 OA
ENDROOT
BRANCH   2   4
ATOM      4  C   UNL d   1      -1.885  -0.906   0.000  0.00  0.00     0.085 A 
ATOM      5  C   UNL d   1      -2.324  -1.626   0.000  0.00  0.00     0.019 A 
ATOM      6  C   UNL d   1      -3.142  -1.608   0.000  0.00  0.00     0.005 A 
ATOM      7  C   UNL d   1      -3.544  -0.892   0.000  0.00  0.00     0.039 A 
ATOM      8  C   UNL d   1      -3.105  -0.185   0.000  0.00  0.00     0.005 A 
ATOM      9  C   UNL d   1      -2.287  -0.199   0.000  0.00  0.00     0.019 A 
BRANCH   7  10
ATOM     10  C   UNL d   1      -4.389  -0.873   0.000  0.00  0.00     0.196 C 
ATOM     11  O   UNL d   1      -4.791  -0.171   0.000  0.00  0.00    -0.287 OA
ATOM     12  C   UNL d   1      -4.824  -1.594   0.000  0.00  0.00     0.045 C 
ENDBRANCH   7  10
ENDBRANCH   2   4
BRANCH   1  13
ATOM     13  C   UNL d   1       0.199  -0.263   0.000  0.00  0.00     0.076 A 
ATOM     14  C   UNL d   1       0.698   0.370   0.000  0.00  0.00     0.092 A 
ATOM     15  S   UNL d   1       1.497   0.111   0.000  0.00  0.00    -0.064 SA
ATOM     16 CL   UNL d   1       0.448   1.187   0.000  0.00  0.00    -0.075 Cl
ATOM     17  C   UNL d   1       1.483  -0.670   0.000  0.00  0.00     0.088 A 
ATOM     18  C   UNL d   1       0.684  -0.929   0.000  0.00  0.00     0.024 A 
ATOM     19 CL   UNL d   1       2.167  -1.169   0.000  0.00  0.00    -0.075 Cl
ENDBRANCH   1  13
TORSDOF 3
