REMARK  7 active torsions:
REMARK  status: ('A' for Active; 'I' for Inactive)
REMARK    1  A    between atoms: C_2  and  N_1 
REMARK    2  A    between atoms: C_4  and  C_2 
REMARK    3  A    between atoms: O_3  and  C_9 
REMARK    4  A    between atoms: C_7  and  O_3 
REMARK    5  A    between atoms: C_9  and  C_4 
REMARK    6  A    between atoms: C_10  and  C_12 
REMARK    7  A    between atoms: C_17  and  C_10 
ROOT
ATOM      1  N   UNL d   1       1.753   0.100   0.000  0.00  0.00    -0.300 N 
ATOM      2  C   UNL d   1       2.446  -0.288   0.000  0.00  0.00     0.080 A 
ATOM      3  C   UNL d   1       1.732   0.947   0.000  0.00  0.00     0.080 A 
ATOM      4  C   UNL d   1       3.159   0.947   0.000  0.00  0.00     0.003 A 
ATOM      5  C   UNL d   1       3.159   0.134   0.000  0.00  0.00     0.019 A 
ATOM      6  C   UNL d   1       2.446   1.361   0.000  0.00  0.00     0.019 A 
ENDROOT
BRANCH   1   7
ATOM      7  C   UNL d   1       1.043  -0.367   0.000  0.00  0.00     0.125 C 
BRANCH   7   8
ATOM      8  C   UNL d   1       1.081  -1.219   0.000  0.00  0.00     0.238 C 
ATOM      9  O   UNL d   1       0.392  -1.669   0.000  0.00  0.00    -0.283 OA
BRANCH   8  10
ATOM     10  C   UNL d   1       1.820  -1.582   0.000  0.00  0.00     0.166 C 
BRANCH  10  11
ATOM     11  O   UNL d   1       2.508  -1.131   0.000  0.00  0.00    -0.302 OA
BRANCH  11  12
ATOM     12  C   UNL d   1       3.255  -1.519   0.000  0.00  0.00     0.100 A 
ATOM     13  C   UNL d   1       3.973  -1.064   0.000  0.00  0.00     0.026 A 
ATOM     14  C   UNL d   1       4.708  -1.440   0.000  0.00  0.00     0.013 A 
ATOM     15  C   UNL d   1       4.750  -2.258   0.000  0.00  0.00     0.058 A 
ATOM     16  C   UNL d   1       4.057  -2.717   0.000  0.00  0.00     0.013 A 
ATOM     17 CL   UNL d   1       5.509  -2.646   0.000  0.00  0.00    -0.082 Cl
ATOM     18  C   UNL d   1       3.322  -2.346   0.000  0.00  0.00     0.026 A 
ENDBRANCH  11  12
ENDBRANCH  10  11
ENDBRANCH   8  10
ENDBRANCH   7   8
ENDBRANCH   1   7
BRANCH   4  19
ATOM     19  C   UNL d   1       3.923   1.377   0.000  0.00  0.00     0.000 C 
BRANCH  19  20
ATOM     20  C   UNL d   1       4.637   0.947   0.000  0.00  0.00     0.000 A 
ATOM     21  C   UNL d   1       4.637   0.134   0.000  0.00  0.00     0.000 A 
ATOM     22  C   UNL d   1       5.359  -0.288   0.000  0.00  0.00     0.000 A 
ATOM     23  C   UNL d   1       6.064   0.134   0.000  0.00  0.00     0.000 A 
ATOM     24  C   UNL d   1       6.064   0.947   0.000  0.00  0.00     0.000 A 
ATOM     25  C   UNL d   1       5.359   1.361   0.000  0.00  0.00     0.000 A 
ENDBRANCH  19  20
ENDBRANCH   4  19
TORSDOF 7
