REMARK  3 active torsions:
REMARK  status: ('A' for Active; 'I' for Inactive)
REMARK    1  A    between atoms: C_14  and  C_1 
REMARK    2  A    between atoms: C_3  and  C_8 
REMARK       I    between atoms: C_8  and  N_13 
REMARK    3  A    between atoms: N_13  and  C_15 
ROOT
ATOM      1  C   UNL d   1      -1.737  -0.340   0.000  0.00  0.00     0.025 A 
ATOM      2  C   UNL d   1      -0.531  -1.117   0.000  0.00  0.00     0.085 A 
ATOM      3  C   UNL d   1      -1.355  -1.075   0.000  0.00  0.00     0.021 A 
ATOM      4  C   UNL d   1      -1.337   0.334   0.000  0.00  0.00     0.002 A 
ATOM      5  C   UNL d   1      -0.531   0.316   0.000  0.00  0.00     0.002 A 
ATOM      6  C   UNL d   1      -0.090  -0.400   0.000  0.00  0.00     0.019 A 
ENDROOT
BRANCH   2   7
ATOM      7  N   UNL d   1      -0.137  -1.833   0.000  0.00  0.00    -0.206 NA
ATOM      8  C   UNL d   1       0.699  -1.833   0.000  0.00  0.00     0.302 C 
ATOM      9  O   UNL d   1       1.099  -2.585   0.000  0.00  0.00    -0.263 OA
BRANCH   8  10
ATOM     10  C   UNL d   1       1.099  -1.146   0.000  0.00  0.00     0.161 A 
ATOM     11  C   UNL d   1       0.645  -0.472   0.000  0.00  0.00     0.072 A 
ATOM     12  C   UNL d   1       1.045   0.245   0.000  0.00  0.00     0.200 A 
ATOM     13  O   UNL d   1       0.615   0.925   0.000  0.00  0.00    -0.286 OA
ATOM     14  C   UNL d   1       1.869   0.281   0.000  0.00  0.00     0.062 A 
ATOM     15  C   UNL d   1       2.317  -0.412   0.000  0.00  0.00     0.103 A 
ATOM     16  C   UNL d   1       2.275   0.997   0.000  0.00  0.00     0.005 A 
ATOM     17  O   UNL d   1       1.940  -1.146   0.000  0.00  0.00    -0.302 OA
ATOM     18  C   UNL d   1       3.159  -0.364   0.000  0.00  0.00     0.025 A 
ATOM     19  C   UNL d   1       3.553   0.334   0.000  0.00  0.00     0.002 A 
ATOM     20  C   UNL d   1       3.105   1.003   0.000  0.00  0.00     0.000 A 
ENDBRANCH   8  10
ENDBRANCH   2   7
BRANCH   1  21
ATOM     21  C   UNL d   1      -2.579  -0.340   0.000  0.00  0.00     0.111 A 
ATOM     22  N   UNL d   1      -3.128  -0.955   0.000  0.00  0.00    -0.239 NA
ATOM     23  C   UNL d   1      -3.887  -0.627   0.000  0.00  0.00     0.088 A 
ATOM     24  C   UNL d   1      -4.657  -0.937   0.000  0.00  0.00     0.020 A 
ATOM     25  C   UNL d   1      -3.791   0.191   0.000  0.00  0.00     0.049 A 
ATOM     26  C   UNL d   1      -5.350  -0.454   0.000  0.00  0.00     0.002 A 
ATOM     27  C   UNL d   1      -5.248   0.388   0.000  0.00  0.00     0.001 A 
ATOM     28  C   UNL d   1      -4.460   0.693   0.000  0.00  0.00     0.008 A 
ATOM     29  S   UNL d   1      -2.967   0.358   0.000  0.00  0.00    -0.066 SA
ENDBRANCH   1  21
TORSDOF 3
