REMARK  7 active torsions:
REMARK  status: ('A' for Active; 'I' for Inactive)
REMARK    1  A    between atoms: S_10  and  C_9 
REMARK    2  A    between atoms: C_15  and  S_10 
REMARK    3  A    between atoms: C_11  and  C_15 
REMARK       I    between atoms: N_16  and  C_11 
REMARK    4  A    between atoms: C_24  and  N_16 
REMARK    5  A    between atoms: C_21  and  C_24 
REMARK    6  A    between atoms: C_25  and  C_21 
REMARK    7  A    between atoms: O_23  and  C_25 
ROOT
ATOM      1  C   UNL d   1      -1.094  -0.155   0.000  0.00  0.00     0.004 A 
ATOM      2  C   UNL d   1      -1.793   0.267   0.000  0.00  0.00     0.000 A 
ATOM      3  C   UNL d   1      -1.094  -0.983   0.000  0.00  0.00     0.039 A 
ATOM      4  C   UNL d   1      -1.793  -1.405   0.000  0.00  0.00     0.196 A 
ATOM      5  C   UNL d   1      -2.509  -0.155   0.000  0.00  0.00     0.003 A 
ATOM      6  C   UNL d   1      -2.509  -1.005   0.000  0.00  0.00     0.039 A 
ATOM      7  C   UNL d   1      -0.377   0.267   0.000  0.00  0.00     0.006 A 
ATOM      8  C   UNL d   1      -1.793   1.094   0.000  0.00  0.00     0.001 A 
ATOM      9  C   UNL d   1      -0.377   1.094   0.000  0.00  0.00     0.030 A 
ATOM     10  O   UNL d   1      -1.793  -2.237   0.000  0.00  0.00    -0.287 OA
ATOM     11  C   UNL d   1      -1.094   1.493   0.000  0.00  0.00     0.006 A 
ATOM     12  C   UNL d   1      -0.377  -1.405   0.000  0.00  0.00     0.003 A 
ATOM     13  C   UNL d   1      -3.225   0.267   0.000  0.00  0.00     0.000 A 
ATOM     14  C   UNL d   1      -3.225  -1.405   0.000  0.00  0.00     0.003 A 
ATOM     15  C   UNL d   1       0.339  -0.155   0.000  0.00  0.00     0.001 A 
ATOM     16  C   UNL d   1       0.372  -0.955   0.000  0.00  0.00     0.000 A 
ATOM     17  C   UNL d   1      -3.947  -1.005   0.000  0.00  0.00     0.000 A 
ATOM     18  C   UNL d   1      -3.947  -0.122   0.000  0.00  0.00     0.000 A 
ENDROOT
BRANCH   9  19
ATOM     19  S   UNL d   1       0.339   1.527   0.000  0.00  0.00    -0.081 SA
BRANCH  19  20
ATOM     20  C   UNL d   1       1.066   1.127   0.000  0.00  0.00     0.098 C 
BRANCH  20  21
ATOM     21  C   UNL d   1       1.754   1.527   0.000  0.00  0.00     0.286 C 
ATOM     22  O   UNL d   1       1.754   2.348   0.000  0.00  0.00    -0.265 OA
ATOM     23  N   UNL d   1       2.470   1.127   0.000  0.00  0.00    -0.206 NA
BRANCH  23  24
ATOM     24  C   UNL d   1       3.197   1.527   0.000  0.00  0.00     0.104 C 
BRANCH  24  25
ATOM     25  C   UNL d   1       3.886   1.094   0.000  0.00  0.00     0.047 C 
BRANCH  25  26
ATOM     26  C   UNL d   1       4.602   1.493   0.000  0.00  0.00     0.118 C 
BRANCH  26  27
ATOM     27  O   UNL d   1       5.301   1.094   0.000  0.00  0.00    -0.326 OA
ATOM     28  C   UNL d   1       6.018   1.493   0.000  0.00  0.00     0.181 C 
ENDBRANCH  26  27
ENDBRANCH  25  26
ENDBRANCH  24  25
ENDBRANCH  23  24
ENDBRANCH  20  21
ENDBRANCH  19  20
ENDBRANCH   9  19
TORSDOF 7
