REMARK  2 active torsions:
REMARK  status: ('A' for Active; 'I' for Inactive)
REMARK    1  A    between atoms: C_6  and  C_1 
REMARK       I    between atoms: C_7  and  N_8 
REMARK    2  A    between atoms: N_8  and  C_10 
ROOT
ATOM      1  C   UNL d   1      -3.754  -0.825   0.000  0.00  0.00     0.025 A 
ATOM      2  C   UNL d   1      -3.294  -1.503   0.000  0.00  0.00     0.021 A 
ATOM      3  C   UNL d   1      -2.456  -1.439   0.000  0.00  0.00     0.085 A 
ATOM      4  C   UNL d   1      -3.377  -0.083   0.000  0.00  0.00     0.002 A 
ATOM      5  C   UNL d   1      -2.584  -0.026   0.000  0.00  0.00     0.002 A 
ATOM      6  C   UNL d   1      -2.091  -0.697   0.000  0.00  0.00     0.019 A 
ENDROOT
BRANCH   1   7
ATOM      7  C   UNL d   1      -4.547  -0.889   0.000  0.00  0.00     0.111 A 
ATOM      8  N   UNL d   1      -5.008  -1.560   0.000  0.00  0.00    -0.239 NA
ATOM      9  C   UNL d   1      -5.807  -1.311   0.000  0.00  0.00     0.088 A 
ATOM     10  C   UNL d   1      -6.517  -1.746   0.000  0.00  0.00     0.020 A 
ATOM     11  C   UNL d   1      -5.807  -0.486   0.000  0.00  0.00     0.049 A 
ATOM     12  C   UNL d   1      -7.227  -1.349   0.000  0.00  0.00     0.002 A 
ATOM     13  C   UNL d   1      -7.227  -0.486   0.000  0.00  0.00     0.001 A 
ATOM     14  C   UNL d   1      -6.517  -0.083   0.000  0.00  0.00     0.008 A 
ATOM     15  S   UNL d   1      -5.008  -0.237   0.000  0.00  0.00    -0.066 SA
ENDBRANCH   1   7
BRANCH   3  16
ATOM     16  N   UNL d   1      -1.995  -2.149   0.000  0.00  0.00    -0.208 NA
ATOM     17  C   UNL d   1      -1.170  -2.079   0.000  0.00  0.00     0.279 C 
ATOM     18  O   UNL d   1      -0.742  -2.763   0.000  0.00  0.00    -0.265 OA
ATOM     19  C   UNL d   1      -0.799  -1.349   0.000  0.00  0.00     0.068 C 
ENDBRANCH   3  16
TORSDOF 2
