REMARK  0 active torsions:
REMARK  status: ('A' for Active; 'I' for Inactive)
ROOT
ATOM      1  N   UNL d   1      -0.449  -0.404   0.000  0.00  0.00    -0.273 N 
ATOM      2  C   UNL d   1      -0.449   0.408   0.000  0.00  0.00     0.068 A 
ATOM      3  C   UNL d   1      -1.169  -0.818   0.000  0.00  0.00     0.265 A 
ATOM      4  C   UNL d   1       0.268   0.814   0.000  0.00  0.00     0.035 A 
ATOM      5  C   UNL d   1       0.268  -0.818   0.000  0.00  0.00     0.085 A 
ATOM      6  C   UNL d   1      -1.169   0.814   0.000  0.00  0.00     0.018 A 
ATOM      7  N   UNL d   1       1.791   0.772   0.000  0.00  0.00    -0.242 NA
ATOM      8  C   UNL d   1       0.987   0.408   0.000  0.00  0.00     0.006 A 
ATOM      9  C   UNL d   1       0.987  -0.404   0.000  0.00  0.00     0.037 A 
ATOM     10  C   UNL d   1      -1.890   0.408   0.000  0.00  0.00     0.006 A 
ATOM     11  C   UNL d   1      -1.890  -0.404   0.000  0.00  0.00     0.061 A 
ATOM     12  O   UNL d   1      -1.165  -1.633   0.000  0.00  0.00    -0.267 OA
ATOM     13  C   UNL d   1       0.993   1.204   0.000  0.00  0.00     0.100 A 
ATOM     14  C   UNL d   1       1.728  -0.049   0.000  0.00  0.00     0.100 A 
ENDROOT
TORSDOF 0
