REMARK  8 active torsions:
REMARK  status: ('A' for Active; 'I' for Inactive)
REMARK    1  A    between atoms: C_8  and  C_5 
REMARK    2  A    between atoms: S_22  and  C_6 
REMARK    3  A    between atoms: C_9  and  C_7 
REMARK    4  A    between atoms: C_12  and  C_9 
REMARK    5  A    between atoms: C_25  and  S_22 
REMARK    6  A    between atoms: O_24  and  C_26 
REMARK    7  A    between atoms: C_27  and  O_24 
REMARK    8  A    between atoms: C_26  and  C_25 
ROOT
ATOM      1  C   UNL d   1      -3.886  -0.399   0.000  0.00  0.00     0.082 A 
ATOM      2  N   UNL d   1      -3.043  -0.399   0.000  0.00  0.00    -0.238 NA
ATOM      3  C   UNL d   1      -3.062   1.055   0.000  0.00  0.00     0.092 A 
ATOM      4  C   UNL d   1      -4.292   0.319   0.000  0.00  0.00     0.019 A 
ATOM      5  C   UNL d   1      -3.886   1.040   0.000  0.00  0.00     0.019 A 
ATOM      6  C   UNL d   1      -2.637   0.319   0.000  0.00  0.00     0.120 A 
ATOM      7  C   UNL d   1      -4.435  -1.014   0.000  0.00  0.00     0.018 A 
ATOM      8  C   UNL d   1      -2.655   1.798   0.000  0.00  0.00     0.103 C 
ATOM      9  N   UNL d   1      -2.252   2.534   0.000  0.00  0.00    -0.191 NA
ATOM     10  C   UNL d   1      -5.098   0.143   0.000  0.00  0.00     0.002 A 
ATOM     11  C   UNL d   1      -5.193  -0.685   0.000  0.00  0.00     0.002 A 
ENDROOT
BRANCH   5  12
ATOM     12  C   UNL d   1      -4.314   1.758   0.000  0.00  0.00     0.030 A 
ATOM     13  S   UNL d   1      -3.908   2.461   0.000  0.00  0.00    -0.086 SA
ATOM     14  C   UNL d   1      -4.450   3.076   0.000  0.00  0.00     0.035 A 
ATOM     15  C   UNL d   1      -5.193   2.732   0.000  0.00  0.00     0.007 A 
ATOM     16  C   UNL d   1      -5.098   1.919   0.000  0.00  0.00     0.007 A 
ENDBRANCH   5  12
BRANCH   6  17
ATOM     17  S   UNL d   1      -1.813   0.319   0.000  0.00  0.00    -0.065 SA
BRANCH  17  18
ATOM     18  C   UNL d   1      -1.392  -0.399   0.000  0.00  0.00     0.064 C 
BRANCH  18  19
ATOM     19  C   UNL d   1      -0.546  -0.399   0.000  0.00  0.00     0.130 C 
BRANCH  19  20
ATOM     20  O   UNL d   1      -0.143  -1.124   0.000  0.00  0.00    -0.303 OA
BRANCH  20  21
ATOM     21  C   UNL d   1       0.703  -1.124   0.000  0.00  0.00     0.123 C 
ATOM     22  C   UNL d   1       1.102  -1.828   0.000  0.00  0.00     0.029 C 
ENDBRANCH  20  21
ENDBRANCH  19  20
ENDBRANCH  18  19
ENDBRANCH  17  18
ENDBRANCH   6  17
BRANCH   7  23
ATOM     23  C   UNL d   1      -4.274  -1.846   0.000  0.00  0.00     0.008 C 
BRANCH  23  24
ATOM     24  C   UNL d   1      -3.483  -2.110   0.000  0.00  0.00     0.029 A 
ATOM     25  S   UNL d   1      -3.164  -2.860   0.000  0.00  0.00    -0.086 SA
ATOM     26  C   UNL d   1      -2.340  -2.772   0.000  0.00  0.00     0.035 A 
ATOM     27  C   UNL d   1      -2.183  -1.981   0.000  0.00  0.00     0.007 A 
ATOM     28  C   UNL d   1      -2.868  -1.564   0.000  0.00  0.00     0.007 A 
ENDBRANCH  23  24
ENDBRANCH   7  23
TORSDOF 8
