REMARK  3 active torsions:
REMARK  status: ('A' for Active; 'I' for Inactive)
REMARK    1  A    between atoms: C_2  and  C_1 
REMARK    2  A    between atoms: C_4  and  C_1 
REMARK    3  A    between atoms: C_3  and  C_2 
ROOT
ATOM      1  C   UNL d   1      -0.993   0.412   0.000  0.00  0.00     0.000 A 
ATOM      2  C   UNL d   1      -1.715   0.000   0.000  0.00  0.00     0.000 A 
ATOM      3  C   UNL d   1      -1.715  -0.806   0.000  0.00  0.00     0.000 A 
ATOM      4  C   UNL d   1      -0.275  -0.825   0.000  0.00  0.00     0.000 A 
ATOM      5  C   UNL d   1      -0.275   0.000   0.000  0.00  0.00     0.000 A 
ATOM      6  C   UNL d   1      -2.414   0.412   0.000  0.00  0.00     0.000 A 
ATOM      7  C   UNL d   1      -0.993  -1.238   0.000  0.00  0.00     0.000 A 
ATOM      8  C   UNL d   1      -2.414  -1.238   0.000  0.00  0.00     0.000 A 
ATOM      9  C   UNL d   1      -3.128   0.000   0.000  0.00  0.00     0.000 A 
ATOM     10  C   UNL d   1      -3.128  -0.825   0.000  0.00  0.00     0.000 A 
ENDROOT
BRANCH   1  11
ATOM     11  C   UNL d   1      -0.993   1.238   0.000  0.00  0.00     0.006 C 
BRANCH  11  12
ATOM     12  C   UNL d   1      -0.294   1.650   0.000  0.00  0.00     0.070 C 
BRANCH  12  13
ATOM     13  C   UNL d   1      -0.294   2.486   0.000  0.00  0.00     0.211 C 
ATOM     14  O   UNL d   1      -0.993   2.907   0.000  0.00  0.00    -0.644 OA
ATOM     15  O   UNL d   1       0.416   2.907   0.000  0.00  0.00    -0.644 OA
ENDBRANCH  12  13
ENDBRANCH  11  12
ENDBRANCH   1  11
TORSDOF 3
