REMARK  3 active torsions:
REMARK  status: ('A' for Active; 'I' for Inactive)
REMARK    1  A    between atoms: S_8  and  C_1 
REMARK    2  A    between atoms: C_7  and  C_12 
REMARK    3  A    between atoms: C_12  and  S_8 
ROOT
ATOM      1  C   UNL d   1      -1.613   0.827   0.000  0.00  0.00     0.141 A 
ATOM      2  N   UNL d   1      -2.083   0.160   0.000  0.00  0.00    -0.232 NA
ATOM      3  S   UNL d   1      -2.083   1.486   0.000  0.00  0.00    -0.060 SA
ATOM      4  C   UNL d   1      -2.852   0.422   0.000  0.00  0.00     0.088 A 
ATOM      5  C   UNL d   1      -2.852   1.242   0.000  0.00  0.00     0.049 A 
ATOM      6  C   UNL d   1      -3.569   0.000   0.000  0.00  0.00     0.020 A 
ATOM      7  C   UNL d   1      -3.569   1.646   0.000  0.00  0.00     0.008 A 
ATOM      8  C   UNL d   1      -4.290   0.422   0.000  0.00  0.00     0.002 A 
ATOM      9  C   UNL d   1      -4.290   1.242   0.000  0.00  0.00     0.001 A 
ENDROOT
BRANCH   1  10
ATOM     10  S   UNL d   1      -0.787   0.827   0.000  0.00  0.00    -0.060 SA
BRANCH  10  11
ATOM     11  C   UNL d   1      -0.368   0.127   0.000  0.00  0.00     0.044 C 
BRANCH  11  12
ATOM     12  C   UNL d   1       0.470   0.127   0.000  0.00  0.00     0.036 A 
ATOM     13  S   UNL d   1       0.874  -0.594   0.000  0.00  0.00    -0.086 SA
ATOM     14  C   UNL d   1       1.675  -0.419   0.000  0.00  0.00     0.035 A 
ATOM     15  C   UNL d   1       1.763   0.404   0.000  0.00  0.00     0.007 A 
ATOM     16  C   UNL d   1       1.009   0.739   0.000  0.00  0.00     0.007 A 
ENDBRANCH  11  12
ENDBRANCH  10  11
ENDBRANCH   1  10
TORSDOF 3
