REMARK  1 active torsions:
REMARK  status: ('A' for Active; 'I' for Inactive)
REMARK    1  A    between atoms: C_6  and  C_1 
ROOT
ATOM      1  C   UNL d   1      -1.639  -0.137   0.000  0.00  0.00     0.162 A 
ATOM      2  N   UNL d   1      -2.118  -0.770   0.000  0.00  0.00    -0.225 NA
ATOM      3  N   UNL d   1      -2.118   0.540   0.000  0.00  0.00    -0.225 NA
ATOM      4  C   UNL d   1      -2.900  -0.528   0.000  0.00  0.00     0.101 A 
ATOM      5  C   UNL d   1      -2.900   0.298   0.000  0.00  0.00     0.101 A 
ATOM      6  C   UNL d   1      -3.577  -0.950   0.000  0.00  0.00     0.021 A 
ATOM      7  C   UNL d   1      -3.577   0.689   0.000  0.00  0.00     0.021 A 
ATOM      8  C   UNL d   1      -4.297  -0.528   0.000  0.00  0.00     0.002 A 
ATOM      9  C   UNL d   1      -4.297   0.298   0.000  0.00  0.00     0.002 A 
ENDROOT
BRANCH   1  10
ATOM     10  C   UNL d   1      -0.869  -0.081   0.000  0.00  0.00     0.036 A 
ATOM     11  C   UNL d   1      -0.515   0.664   0.000  0.00  0.00     0.005 A 
ATOM     12  C   UNL d   1       0.323   0.720   0.000  0.00  0.00     0.021 A 
ATOM     13  C   UNL d   1       0.770   0.000   0.000  0.00  0.00     0.103 A 
ATOM     14  C   UNL d   1       0.416  -0.714   0.000  0.00  0.00     0.021 A 
ATOM     15  N   UNL d   1       1.608   0.000   0.000  0.00  0.00    -0.148 N 
ATOM     16  C   UNL d   1      -0.422  -0.770   0.000  0.00  0.00     0.005 A 
ENDBRANCH   1  10
TORSDOF 1
