REMARK  3 active torsions:
REMARK  status: ('A' for Active; 'I' for Inactive)
REMARK    1  A    between atoms: C_3  and  N_1 
REMARK    2  A    between atoms: N_2  and  C_4 
REMARK    3  A    between atoms: C_7  and  C_8 
ROOT
ATOM      1  C   UNL d   1       0.048   2.280   0.000  0.00  0.00     0.146 A 
ATOM      2  C   UNL d   1      -0.670   1.863   0.000  0.00  0.00     0.025 A 
ATOM      3  C   UNL d   1      -0.670   1.029   0.000  0.00  0.00     0.002 A 
ATOM      4  C   UNL d   1       0.772   1.863   0.000  0.00  0.00     0.125 A 
ATOM      5  C   UNL d   1       0.048   0.615   0.000  0.00  0.00     0.002 A 
ATOM      6  C   UNL d   1       0.772   1.029   0.000  0.00  0.00     0.023 A 
ATOM      7  N   UNL d   1       1.475   2.270   0.000  0.00  0.00    -0.146 N 
ENDROOT
BRANCH   3   8
ATOM      8  C   UNL d   1      -1.380   0.615   0.000  0.00  0.00     0.002 A 
ATOM      9  C   UNL d   1      -1.380  -0.209   0.000  0.00  0.00     0.025 A 
ATOM     10  C   UNL d   1      -2.094  -0.619   0.000  0.00  0.00     0.146 A 
ATOM     11  C   UNL d   1      -2.808  -0.209   0.000  0.00  0.00     0.125 A 
ATOM     12  C   UNL d   1      -2.808   0.615   0.000  0.00  0.00     0.023 A 
ATOM     13  N   UNL d   1      -3.514  -0.619   0.000  0.00  0.00    -0.146 N 
ATOM     14  C   UNL d   1      -2.094   1.029   0.000  0.00  0.00     0.002 A 
BRANCH  10  15
ATOM     15  N   UNL d   1      -2.094  -1.439   0.000  0.00  0.00    -0.112 N 
ATOM     16  O   UNL d   1      -2.767  -1.915   0.000  0.00  0.00    -0.532 OA
ATOM     17  O   UNL d   1      -1.417  -1.893   0.000  0.00  0.00    -0.532 OA
ENDBRANCH  10  15
ENDBRANCH   3   8
BRANCH   1  18
ATOM     18  N   UNL d   1       0.048   3.093   0.000  0.00  0.00    -0.112 N 
ATOM     19  O   UNL d   1       0.729   3.562   0.000  0.00  0.00    -0.532 OA
ATOM     20  O   UNL d   1      -0.626   3.540   0.000  0.00  0.00    -0.532 OA
ENDBRANCH   1  18
TORSDOF 3
