REMARK  3 active torsions:
REMARK  status: ('A' for Active; 'I' for Inactive)
REMARK    1  A    between atoms: C_9  and  C_1 
REMARK       I    between atoms: C_4  and  N_8 
REMARK    2  A    between atoms: C_5  and  C_4 
REMARK    3  A    between atoms: N_8  and  C_17 
ROOT
ATOM      1  C   UNL d   1      -3.274   0.598   0.000  0.00  0.00     0.036 A 
ATOM      2  C   UNL d   1      -2.808  -0.069   0.000  0.00  0.00     0.005 A 
ATOM      3  C   UNL d   1      -2.946   1.341   0.000  0.00  0.00     0.005 A 
ATOM      4  C   UNL d   1      -1.651   0.759   0.000  0.00  0.00     0.085 A 
ATOM      5  C   UNL d   1      -1.979   0.017   0.000  0.00  0.00     0.019 A 
ATOM      6  C   UNL d   1      -2.140   1.450   0.000  0.00  0.00     0.019 A 
ENDROOT
BRANCH   1   7
ATOM      7  C   UNL d   1      -4.102   0.512   0.000  0.00  0.00     0.162 A 
ATOM      8  N   UNL d   1      -4.574  -0.178   0.000  0.00  0.00    -0.225 NA
ATOM      9  C   UNL d   1      -5.345   0.069   0.000  0.00  0.00     0.101 A 
ATOM     10  C   UNL d   1      -6.070  -0.345   0.000  0.00  0.00     0.021 A 
ATOM     11  C   UNL d   1      -5.345   0.897   0.000  0.00  0.00     0.101 A 
ATOM     12  C   UNL d   1      -6.783   0.069   0.000  0.00  0.00     0.002 A 
ATOM     13  C   UNL d   1      -6.783   0.897   0.000  0.00  0.00     0.002 A 
ATOM     14  C   UNL d   1      -6.070   1.312   0.000  0.00  0.00     0.021 A 
ATOM     15  N   UNL d   1      -4.574   1.151   0.000  0.00  0.00    -0.225 NA
ENDBRANCH   1   7
BRANCH   4  16
ATOM     16  N   UNL d   1      -0.823   0.846   0.000  0.00  0.00    -0.206 NA
ATOM     17  C   UNL d   1      -0.322   0.184   0.000  0.00  0.00     0.302 C 
ATOM     18  O   UNL d   1      -0.650  -0.558   0.000  0.00  0.00    -0.263 OA
BRANCH  17  19
ATOM     19  C   UNL d   1       0.489   0.253   0.000  0.00  0.00     0.158 A 
ATOM     20  O   UNL d   1       1.036  -0.351   0.000  0.00  0.00    -0.300 OA
ATOM     21  C   UNL d   1       1.801  -0.006   0.000  0.00  0.00     0.123 A 
ATOM     22  C   UNL d   1       1.726   0.777   0.000  0.00  0.00     0.029 A 
ATOM     23  C   UNL d   1       0.938   0.967   0.000  0.00  0.00     0.032 A 
ENDBRANCH  17  19
ENDBRANCH   4  16
TORSDOF 3
