REMARK  4 active torsions:
REMARK  status: ('A' for Active; 'I' for Inactive)
REMARK    1  A    between atoms: N_4  and  S_1 
REMARK    2  A    between atoms: C_5  and  S_1 
REMARK    3  A    between atoms: S_2  and  N_3 
REMARK    4  A    between atoms: C_6  and  S_2 
ROOT
ATOM      1  N   UNL d   1      -3.589   0.116   0.000  0.00  0.00    -0.226 N 
ATOM      2  N   UNL d   1      -2.163   0.945   0.000  0.00  0.00    -0.226 N 
ATOM      3  C   UNL d   1      -3.589   0.961   0.000  0.00  0.00     0.111 A 
ATOM      4  C   UNL d   1      -2.880   1.366   0.000  0.00  0.00     0.111 A 
ATOM      5  C   UNL d   1      -2.163   0.116   0.000  0.00  0.00     0.111 A 
ATOM      6  C   UNL d   1      -2.880  -0.304   0.000  0.00  0.00     0.111 A 
ENDROOT
BRANCH   1   7
ATOM      7  S   UNL d   1      -4.322  -0.341   0.000  0.00  0.00     0.277 S 
ATOM      8  O   UNL d   1      -3.894  -1.058   0.000  0.00  0.00    -0.199 OA
ATOM      9  O   UNL d   1      -5.047  -0.769   0.000  0.00  0.00    -0.199 OA
BRANCH   7  10
ATOM     10  C   UNL d   1      -4.767   0.385   0.000  0.00  0.00     0.133 A 
ATOM     11  S   UNL d   1      -5.548   0.541   0.000  0.00  0.00    -0.074 SA
ATOM     12  C   UNL d   1      -5.644   1.346   0.000  0.00  0.00     0.036 A 
ATOM     13  C   UNL d   1      -4.915   1.714   0.000  0.00  0.00     0.008 A 
ATOM     14  C   UNL d   1      -4.358   1.118   0.000  0.00  0.00     0.020 A 
ENDBRANCH   7  10
ENDBRANCH   1   7
BRANCH   2  15
ATOM     15  S   UNL d   1      -1.438   1.366   0.000  0.00  0.00     0.277 S 
ATOM     16  O   UNL d   1      -1.859   2.079   0.000  0.00  0.00    -0.199 OA
ATOM     17  O   UNL d   1      -1.030   0.637   0.000  0.00  0.00    -0.199 OA
BRANCH  15  18
ATOM     18  C   UNL d   1      -0.721   1.775   0.000  0.00  0.00     0.133 A 
ATOM     19  S   UNL d   1       0.064   1.522   0.000  0.00  0.00    -0.074 SA
ATOM     20  C   UNL d   1       0.545   2.195   0.000  0.00  0.00     0.036 A 
ATOM     21  C   UNL d   1       0.064   2.848   0.000  0.00  0.00     0.008 A 
ATOM     22  C   UNL d   1      -0.721   2.604   0.000  0.00  0.00     0.020 A 
ENDBRANCH  15  18
ENDBRANCH   2  15
TORSDOF 4
