REMARK  6 active torsions:
REMARK  status: ('A' for Active; 'I' for Inactive)
REMARK    1  A    between atoms: C_4  and  C_1 
REMARK    2  A    between atoms: C_3  and  C_7 
REMARK    3  A    between atoms: O_18  and  C_3 
REMARK    4  A    between atoms: C_9  and  C_4 
REMARK    5  A    between atoms: O_13  and  C_9 
REMARK    6  A    between atoms: C_15  and  O_13 
ROOT
ATOM      1  C   UNL d   1       0.168   1.478   0.000  0.00  0.00     0.165 C 
ENDROOT
BRANCH   1   2
ATOM      2  C   UNL d   1      -0.534   1.893   0.000  0.00  0.00     0.223 C 
ATOM      3  O   UNL d   1      -0.534   2.718   0.000  0.00  0.00    -0.284 OA
BRANCH   2   4
ATOM      4  C   UNL d   1      -1.266   1.463   0.000  0.00  0.00     0.080 A 
ATOM      5  C   UNL d   1      -1.967   1.878   0.000  0.00  0.00     0.202 A 
ATOM      6  C   UNL d   1      -2.699   1.463   0.000  0.00  0.00     0.084 A 
ATOM      7  O   UNL d   1      -1.945   2.707   0.000  0.00  0.00    -0.286 OA
ATOM      8  C   UNL d   1      -2.684   0.638   0.000  0.00  0.00     0.199 A 
ATOM      9  C   UNL d   1      -1.967   0.224   0.000  0.00  0.00     0.042 A 
ATOM     10  O   UNL d   1      -3.416   0.224   0.000  0.00  0.00    -0.286 OA
ATOM     11  C   UNL d   1      -1.266   0.638   0.000  0.00  0.00     0.010 A 
ENDBRANCH   2   4
ENDBRANCH   1   2
BRANCH   1  12
ATOM     12  O   UNL d   1       0.168   0.657   0.000  0.00  0.00    -0.302 OA
BRANCH  12  13
ATOM     13  C   UNL d   1       0.885   0.243   0.000  0.00  0.00     0.100 A 
ATOM     14  C   UNL d   1       0.885  -0.582   0.000  0.00  0.00     0.025 A 
ATOM     15  C   UNL d   1       1.583  -0.989   0.000  0.00  0.00     0.007 A 
ATOM     16  C   UNL d   1       2.318  -0.582   0.000  0.00  0.00     0.063 A 
ATOM     17  C   UNL d   1       2.318   0.243   0.000  0.00  0.00     0.007 A 
ATOM     18  C   UNL d   1       1.583   0.657   0.000  0.00  0.00     0.025 A 
BRANCH  16  19
ATOM     19  C   UNL d   1       3.035  -1.012   0.000  0.00  0.00     0.296 C 
ATOM     20  O   UNL d   1       3.035  -1.837   0.000  0.00  0.00    -0.259 OA
BRANCH  19  21
ATOM     21  O   UNL d   1       3.752  -0.582   0.000  0.00  0.00    -0.296 OA
ATOM     22  C   UNL d   1       3.752   0.243   0.000  0.00  0.00     0.185 C 
ENDBRANCH  19  21
ENDBRANCH  16  19
ENDBRANCH  12  13
ENDBRANCH   1  12
TORSDOF 6
