REMARK  3 active torsions:
REMARK  status: ('A' for Active; 'I' for Inactive)
REMARK    1  A    between atoms: O_9  and  C_1 
REMARK    2  A    between atoms: C_13  and  O_9 
REMARK    3  A    between atoms: C_16  and  C_11 
ROOT
ATOM      1  C   UNL d   1      -0.899   0.453   0.000  0.00  0.00     0.161 A 
ATOM      2  C   UNL d   1      -2.327   0.469   0.000  0.00  0.00     0.064 A 
ATOM      3  C   UNL d   1      -1.630   0.046   0.000  0.00  0.00     0.222 A 
ATOM      4  C   UNL d   1      -2.327   1.291   0.000  0.00  0.00     0.106 A 
ATOM      5  C   UNL d   1      -0.899   1.291   0.000  0.00  0.00     0.126 A 
ATOM      6  O   UNL d   1      -1.630   1.691   0.000  0.00  0.00    -0.305 OA
ATOM      7  C   UNL d   1      -3.036   0.046   0.000  0.00  0.00     0.008 A 
ATOM      8  C   UNL d   1      -3.036   1.691   0.000  0.00  0.00     0.067 A 
ATOM      9  C   UNL d   1      -3.748   1.291   0.000  0.00  0.00     0.198 A 
ATOM     10  C   UNL d   1      -3.748   0.453   0.000  0.00  0.00     0.039 A 
ATOM     11  O   UNL d   1      -1.630  -0.777   0.000  0.00  0.00    -0.284 OA
ATOM     12  O   UNL d   1      -4.464   1.733   0.000  0.00  0.00    -0.286 OA
ATOM     13  C   UNL d   1      -0.183   1.733   0.000  0.00  0.00     0.029 C 
ENDROOT
BRANCH   1  14
ATOM     14  O   UNL d   1      -0.183   0.011   0.000  0.00  0.00    -0.302 OA
BRANCH  14  15
ATOM     15  C   UNL d   1       0.548   0.411   0.000  0.00  0.00     0.100 A 
ATOM     16  C   UNL d   1       0.564   1.234   0.000  0.00  0.00     0.025 A 
ATOM     17  C   UNL d   1       1.280   1.619   0.000  0.00  0.00     0.002 A 
ATOM     18  C   UNL d   1       2.003   1.185   0.000  0.00  0.00     0.000 A 
ATOM     19  C   UNL d   1       1.969   0.362   0.000  0.00  0.00     0.002 A 
ATOM     20  C   UNL d   1       1.238  -0.027   0.000  0.00  0.00     0.025 A 
ENDBRANCH  14  15
ENDBRANCH   1  14
BRANCH  10  21
ATOM     21  C   UNL d   1      -4.464   0.011   0.000  0.00  0.00     0.003 C 
ATOM     22  C   UNL d   1      -4.445  -0.827   0.000  0.00  0.00     0.000 C 
ENDBRANCH  10  21
TORSDOF 3
