REMARK  10 active torsions:
REMARK  status: ('A' for Active; 'I' for Inactive)
REMARK    1  A    between atoms: C_3  and  C_1 
REMARK    2  A    between atoms: C_4  and  C_1 
REMARK    3  A    between atoms: N_2  and  C_8 
REMARK    4  A    between atoms: O_19  and  C_3 
REMARK    5  A    between atoms: C_14  and  C_4 
REMARK    6  A    between atoms: C_20  and  N_7 
REMARK    7  A    between atoms: C_9  and  C_20 
REMARK    8  A    between atoms: C_13  and  C_9 
REMARK    9  A    between atoms: C_23  and  C_13 
REMARK   10  A    between atoms: C_24  and  O_19 
ROOT
ATOM      1  C   UNL d   1       3.033   1.621   0.000  0.00  0.00     0.132 C 
ATOM      2  C   UNL d   1       3.843   1.786   0.000  0.00  0.00     0.106 C 
ATOM      3  N   UNL d   1       4.654   1.948   0.000  0.00  0.00    -0.191 NA
ENDROOT
BRANCH   1   4
ATOM      4  C   UNL d   1       2.762   0.852   0.000  0.00  0.00     0.310 C 
ATOM      5  O   UNL d   1       1.970   0.687   0.000  0.00  0.00    -0.258 OA
BRANCH   4   6
ATOM      6  O   UNL d   1       3.303   0.236   0.000  0.00  0.00    -0.271 OA
BRANCH   6   7
ATOM      7  C   UNL d   1       4.113   0.402   0.000  0.00  0.00     0.126 C 
ATOM      8  C   UNL d   1       4.654  -0.229   0.000  0.00  0.00     0.029 C 
ENDBRANCH   6   7
ENDBRANCH   4   6
ENDBRANCH   1   4
BRANCH   1   9
ATOM      9  C   UNL d   1       2.492   2.237   0.000  0.00  0.00     0.016 C 
BRANCH   9  10
ATOM     10  C   UNL d   1       1.666   2.057   0.000  0.00  0.00     0.001 A 
ATOM     11  C   UNL d   1       1.085   2.668   0.000  0.00  0.00     0.002 A 
ATOM     12  C   UNL d   1       0.296   2.473   0.000  0.00  0.00     0.018 A 
ATOM     13  C   UNL d   1       0.045   1.696   0.000  0.00  0.00     0.064 A 
ATOM     14  C   UNL d   1       0.601   1.100   0.000  0.00  0.00     0.018 A 
ATOM     15  C   UNL d   1       1.411   1.280   0.000  0.00  0.00     0.002 A 
BRANCH  13  16
ATOM     16  N   UNL d   1      -0.766   1.516   0.000  0.00  0.00    -0.301 N 
ATOM     17  C   UNL d   1      -1.021   0.739   0.000  0.00  0.00     0.100 A 
ATOM     18  C   UNL d   1      -1.831   0.559   0.000  0.00  0.00     0.100 A 
ATOM     19  N   UNL d   1      -2.387   1.156   0.000  0.00  0.00    -0.300 N 
ATOM     20  C   UNL d   1      -2.135   1.966   0.000  0.00  0.00     0.100 A 
ATOM     21  C   UNL d   1      -1.325   2.128   0.000  0.00  0.00     0.100 A 
BRANCH  19  22
ATOM     22  C   UNL d   1      -3.198   0.976   0.000  0.00  0.00     0.080 C 
BRANCH  22  23
ATOM     23  C   UNL d   1      -3.453   0.180   0.000  0.00  0.00     0.019 C 
BRANCH  23  24
ATOM     24  C   UNL d   1      -4.155  -0.124   0.000  0.00  0.00     0.002 C 
BRANCH  24  25
ATOM     25  C   UNL d   1      -4.241  -0.934   0.000  0.00  0.00     0.000 A 
ATOM     26  C   UNL d   1      -3.577  -1.400   0.000  0.00  0.00     0.000 A 
ATOM     27  C   UNL d   1      -3.648  -2.222   0.000  0.00  0.00     0.000 A 
ATOM     28  C   UNL d   1      -4.387  -2.571   0.000  0.00  0.00     0.000 A 
ATOM     29  C   UNL d   1      -5.063  -2.087   0.000  0.00  0.00     0.000 A 
ATOM     30  C   UNL d   1      -4.984  -1.265   0.000  0.00  0.00     0.000 A 
ENDBRANCH  24  25
ENDBRANCH  23  24
ENDBRANCH  22  23
ENDBRANCH  19  22
ENDBRANCH  13  16
ENDBRANCH   9  10
ENDBRANCH   1   9
TORSDOF 10
