REMARK  2 active torsions:
REMARK  status: ('A' for Active; 'I' for Inactive)
REMARK    1  A    between atoms: S_2  and  C_1 
REMARK    2  A    between atoms: N_3  and  S_2 
ROOT
ATOM      1  C   UNL d   1      -1.698  -0.762   0.000  0.00  0.00     0.125 A 
ATOM      2  C   UNL d   1      -2.382  -1.076   0.000  0.00  0.00    -0.009 A 
ATOM      3  C   UNL d   1      -2.248  -1.452   0.000  0.00  0.00    -0.009 A 
ATOM      4  C   UNL d   1      -1.698   0.000   0.000  0.00  0.00     0.031 A 
ATOM      5  C   UNL d   1      -2.937  -1.216   0.000  0.00  0.00    -0.007 A 
ATOM      6  C   UNL d   1      -3.257  -0.762   0.000  0.00  0.00    -0.007 A 
ATOM      7  C   UNL d   1      -2.506   0.297   0.000  0.00  0.00     0.045 A 
ATOM      8  C   UNL d   1      -3.829  -1.452   0.000  0.00  0.00    -0.001 A 
ATOM      9  C   UNL d   1      -3.257  -0.022   0.000  0.00  0.00    -0.022 A 
ATOM     10  C   UNL d   1      -2.960  -0.224   0.000  0.00  0.00    -0.022 A 
ENDROOT
BRANCH   1  11
ATOM     11  S   UNL d   1      -0.673  -0.426   0.000  0.00  0.00     0.141 S 
ATOM     12  O   UNL d   1      -0.734   0.432   0.000  0.00  0.00    -0.233 OA
BRANCH  11  13
ATOM     13  N   UNL d   1       0.107  -0.807   0.000  0.00  0.00    -0.254 N 
ATOM     14  C   UNL d   1       0.746  -0.291   0.000  0.00  0.00     0.089 A 
ATOM     15  C   UNL d   1       1.553  -0.476   0.000  0.00  0.00     0.020 A 
ATOM     16  C   UNL d   1       1.906  -1.211   0.000  0.00  0.00     0.002 A 
ATOM     17  C   UNL d   1       1.553  -1.956   0.000  0.00  0.00     0.002 A 
ATOM     18  C   UNL d   1       0.746  -2.153   0.000  0.00  0.00     0.020 A 
ATOM     19  C   UNL d   1       0.107  -1.637   0.000  0.00  0.00     0.089 A 
ENDBRANCH  11  13
ENDBRANCH   1  11
TORSDOF 2
