REMARK  4 active torsions:
REMARK  status: ('A' for Active; 'I' for Inactive)
REMARK    1  A    between atoms: C_7  and  C_1 
REMARK    2  A    between atoms: O_10  and  C_2 
REMARK    3  A    between atoms: C_17  and  O_10 
REMARK    4  A    between atoms: C_19  and  C_12 
ROOT
ATOM      1  C   UNL d   1      -0.500   1.591   0.000  0.00  0.00     0.197 A 
ATOM      2  C   UNL d   1      -0.500   0.762   0.000  0.00  0.00     0.165 A 
ATOM      3  O   UNL d   1      -1.216   1.982   0.000  0.00  0.00    -0.301 OA
ATOM      4  C   UNL d   1      -1.216   0.348   0.000  0.00  0.00     0.222 A 
ATOM      5  C   UNL d   1      -1.908   0.762   0.000  0.00  0.00     0.064 A 
ATOM      6  C   UNL d   1      -1.908   1.591   0.000  0.00  0.00     0.106 A 
ATOM      7  C   UNL d   1      -2.624   0.348   0.000  0.00  0.00     0.008 A 
ATOM      8  C   UNL d   1      -2.624   1.982   0.000  0.00  0.00     0.067 A 
ATOM      9  C   UNL d   1      -3.332   1.591   0.000  0.00  0.00     0.198 A 
ATOM     10  C   UNL d   1      -3.332   0.762   0.000  0.00  0.00     0.039 A 
ATOM     11  O   UNL d   1      -1.216  -0.458   0.000  0.00  0.00    -0.284 OA
ATOM     12  O   UNL d   1      -4.047   2.002   0.000  0.00  0.00    -0.286 OA
ENDROOT
BRANCH   2  13
ATOM     13  O   UNL d   1       0.215   0.348   0.000  0.00  0.00    -0.302 OA
BRANCH  13  14
ATOM     14  C   UNL d   1       0.215  -0.473   0.000  0.00  0.00     0.100 A 
ATOM     15  C   UNL d   1       0.942  -0.872   0.000  0.00  0.00     0.025 A 
ATOM     16  C   UNL d   1       0.942  -1.677   0.000  0.00  0.00     0.002 A 
ATOM     17  C   UNL d   1       0.215  -2.092   0.000  0.00  0.00     0.000 A 
ATOM     18  C   UNL d   1      -0.481  -1.693   0.000  0.00  0.00     0.002 A 
ATOM     19  C   UNL d   1      -0.481  -0.872   0.000  0.00  0.00     0.025 A 
ENDBRANCH  13  14
ENDBRANCH   2  13
BRANCH   1  20
ATOM     20  C   UNL d   1       0.215   2.002   0.000  0.00  0.00     0.442 C 
ATOM     21  F   UNL d   1       0.942   2.413   0.000  0.00  0.00    -0.164 F 
ATOM     22  F   UNL d   1       0.626   1.286   0.000  0.00  0.00    -0.164 F 
ATOM     23  F   UNL d   1      -0.199   2.718   0.000  0.00  0.00    -0.164 F 
ENDBRANCH   1  20
BRANCH  10  24
ATOM     24  C   UNL d   1      -4.047   0.348   0.000  0.00  0.00     0.003 C 
ATOM     25  C   UNL d   1      -4.759   0.762   0.000  0.00  0.00     0.000 C 
ENDBRANCH  10  24
TORSDOF 4
