REMARK  4 active torsions:
REMARK  status: ('A' for Active; 'I' for Inactive)
REMARK    1  A    between atoms: C_6  and  C_1 
REMARK    2  A    between atoms: C_3  and  C_15 
REMARK    3  A    between atoms: O_11  and  C_6 
REMARK    4  A    between atoms: C_15  and  O_11 
ROOT
ATOM      1  C   UNL d   1      -2.480   0.293   0.000  0.00  0.00     0.127 A 
ATOM      2  C   UNL d   1      -2.117  -0.437   0.000  0.00  0.00     0.305 A 
ATOM      3  C   UNL d   1      -2.019   0.984   0.000  0.00  0.00     0.013 A 
ATOM      4  C   UNL d   1      -1.191   0.892   0.000  0.00  0.00     0.023 A 
ATOM      5  O   UNL d   1      -1.312  -0.535   0.000  0.00  0.00    -0.273 OA
ATOM      6  C   UNL d   1      -0.829   0.167   0.000  0.00  0.00     0.103 A 
ATOM      7  C   UNL d   1      -0.708   1.588   0.000  0.00  0.00     0.002 A 
ATOM      8  O   UNL d   1      -2.618  -1.145   0.000  0.00  0.00    -0.259 OA
ATOM      9  C   UNL d   1       0.006   0.069   0.000  0.00  0.00     0.025 A 
ATOM     10  C   UNL d   1       0.121   1.496   0.000  0.00  0.00     0.000 A 
ATOM     11  C   UNL d   1       0.466   0.754   0.000  0.00  0.00     0.002 A 
ATOM     12  C   UNL d   1      -1.030   2.342   0.000  0.00  0.00     0.000 A 
ATOM     13  C   UNL d   1       0.604   2.140   0.000  0.00  0.00     0.000 A 
ATOM     14  C   UNL d   1      -0.529   3.015   0.000  0.00  0.00     0.000 A 
ATOM     15  C   UNL d   1       0.282   2.917   0.000  0.00  0.00     0.000 A 
ENDROOT
BRANCH   1  16
ATOM     16  C   UNL d   1      -3.360   0.345   0.000  0.00  0.00     0.305 C 
ATOM     17  O   UNL d   1      -3.774  -0.368   0.000  0.00  0.00    -0.259 OA
BRANCH  16  18
ATOM     18  O   UNL d   1      -3.757   1.064   0.000  0.00  0.00    -0.271 OA
BRANCH  18  19
ATOM     19  C   UNL d   1      -4.586   1.064   0.000  0.00  0.00     0.127 C 
ATOM     20  C   UNL d   1      -4.988   1.795   0.000  0.00  0.00     0.029 C 
BRANCH  19  21
ATOM     21  C   UNL d   1      -5.034   0.374   0.000  0.00  0.00     0.134 A 
ATOM     22  N   UNL d   1      -4.781  -0.397   0.000  0.00  0.00    -0.236 NA
ATOM     23  C   UNL d   1      -5.483  -0.869   0.000  0.00  0.00     0.088 A 
ATOM     24  C   UNL d   1      -5.587  -1.680   0.000  0.00  0.00     0.020 A 
ATOM     25  C   UNL d   1      -6.093  -0.420   0.000  0.00  0.00     0.049 A 
ATOM     26  C   UNL d   1      -6.352  -2.054   0.000  0.00  0.00     0.002 A 
ATOM     27  C   UNL d   1      -6.968  -1.559   0.000  0.00  0.00     0.001 A 
ATOM     28  C   UNL d   1      -6.864  -0.742   0.000  0.00  0.00     0.008 A 
ATOM     29  S   UNL d   1      -5.863   0.374   0.000  0.00  0.00    -0.065 SA
ENDBRANCH  19  21
ENDBRANCH  18  19
ENDBRANCH  16  18
ENDBRANCH   1  16
TORSDOF 4
