REMARK  6 active torsions:
REMARK  status: ('A' for Active; 'I' for Inactive)
REMARK    1  A    between atoms: O_10  and  C_1 
REMARK    2  A    between atoms: O_9  and  C_6 
REMARK    3  A    between atoms: O_12  and  C_8 
REMARK    4  A    between atoms: C_13  and  O_9 
REMARK    5  A    between atoms: C_19  and  O_10 
REMARK    6  A    between atoms: C_14  and  O_12 
ROOT
ATOM      1  C   UNL d   1       0.971  -0.328   0.000  0.00  0.00     0.161 A 
ATOM      2  C   UNL d   1      -0.453   0.515   0.000  0.00  0.00     0.128 A 
ATOM      3  C   UNL d   1      -0.453  -0.328   0.000  0.00  0.00     0.066 A 
ATOM      4  C   UNL d   1       0.261  -0.737   0.000  0.00  0.00     0.222 A 
ATOM      5  O   UNL d   1       0.261   0.932   0.000  0.00  0.00    -0.303 OA
ATOM      6  C   UNL d   1      -1.166   0.932   0.000  0.00  0.00     0.149 A 
ATOM      7  C   UNL d   1       0.971   0.515   0.000  0.00  0.00     0.126 A 
ATOM      8  C   UNL d   1      -1.873   0.515   0.000  0.00  0.00     0.128 A 
ATOM      9  C   UNL d   1      -1.166  -0.737   0.000  0.00  0.00     0.007 A 
ATOM     10  O   UNL d   1       0.261  -1.560   0.000  0.00  0.00    -0.284 OA
ATOM     11  C   UNL d   1      -1.873  -0.328   0.000  0.00  0.00     0.027 A 
ATOM     12  C   UNL d   1       1.701   0.932   0.000  0.00  0.00     0.029 C 
ENDROOT
BRANCH   1  13
ATOM     13  O   UNL d   1       1.701  -0.737   0.000  0.00  0.00    -0.302 OA
BRANCH  13  14
ATOM     14  C   UNL d   1       1.701  -1.560   0.000  0.00  0.00     0.100 A 
ATOM     15  C   UNL d   1       2.415  -1.970   0.000  0.00  0.00     0.025 A 
ATOM     16  C   UNL d   1       2.415  -2.797   0.000  0.00  0.00     0.002 A 
ATOM     17  C   UNL d   1       1.701  -3.211   0.000  0.00  0.00     0.000 A 
ATOM     18  C   UNL d   1       0.987  -2.797   0.000  0.00  0.00     0.002 A 
ATOM     19  C   UNL d   1       0.987  -1.970   0.000  0.00  0.00     0.025 A 
ENDBRANCH  13  14
ENDBRANCH   1  13
BRANCH   6  20
ATOM     20  O   UNL d   1      -1.166   1.752   0.000  0.00  0.00    -0.269 OA
BRANCH  20  21
ATOM     21  C   UNL d   1      -0.453   2.165   0.000  0.00  0.00     0.300 C 
ATOM     22  O   UNL d   1       0.261   1.752   0.000  0.00  0.00    -0.259 OA
ATOM     23  C   UNL d   1      -0.453   2.992   0.000  0.00  0.00     0.074 C 
ENDBRANCH  20  21
ENDBRANCH   6  20
BRANCH   8  24
ATOM     24  O   UNL d   1      -2.606   0.932   0.000  0.00  0.00    -0.271 OA
BRANCH  24  25
ATOM     25  C   UNL d   1      -3.320   0.515   0.000  0.00  0.00     0.300 C 
ATOM     26  O   UNL d   1      -4.026   0.932   0.000  0.00  0.00    -0.259 OA
ATOM     27  C   UNL d   1      -3.320  -0.308   0.000  0.00  0.00     0.074 C 
ENDBRANCH  24  25
ENDBRANCH   8  24
TORSDOF 6
