REMARK  2 active torsions:
REMARK  status: ('A' for Active; 'I' for Inactive)
REMARK    1  A    between atoms: S_2  and  C_1 
REMARK    2  A    between atoms: N_3  and  S_2 
ROOT
ATOM      1  C   UNL d   1      -1.648  -0.740   0.000  0.00  0.00     0.125 A 
ATOM      2  C   UNL d   1      -2.180  -1.408   0.000  0.00  0.00    -0.009 A 
ATOM      3  C   UNL d   1      -1.648   0.000   0.000  0.00  0.00     0.031 A 
ATOM      4  C   UNL d   1      -2.311  -1.044   0.000  0.00  0.00    -0.009 A 
ATOM      5  C   UNL d   1      -3.159  -0.740   0.000  0.00  0.00    -0.007 A 
ATOM      6  C   UNL d   1      -2.431   0.288   0.000  0.00  0.00     0.045 A 
ATOM      7  C   UNL d   1      -2.849  -1.180   0.000  0.00  0.00    -0.007 A 
ATOM      8  C   UNL d   1      -3.159  -0.022   0.000  0.00  0.00    -0.022 A 
ATOM      9  C   UNL d   1      -2.871  -0.218   0.000  0.00  0.00    -0.022 A 
ATOM     10  C   UNL d   1      -3.714  -1.408   0.000  0.00  0.00    -0.001 A 
ENDROOT
BRANCH   1  11
ATOM     11  S   UNL d   1      -0.652  -0.413   0.000  0.00  0.00     0.142 S 
ATOM     12  O   UNL d   1      -0.712   0.419   0.000  0.00  0.00    -0.233 OA
BRANCH  11  13
ATOM     13  N   UNL d   1       0.065  -0.767   0.000  0.00  0.00    -0.251 N 
ATOM     14  C   UNL d   1       0.740  -0.310   0.000  0.00  0.00     0.108 A 
ATOM     15  C   UNL d   1       1.501  -0.702   0.000  0.00  0.00     0.100 A 
ATOM     16  N   UNL d   1       1.539  -1.501   0.000  0.00  0.00    -0.299 N 
ATOM     17  C   UNL d   1       0.832  -1.941   0.000  0.00  0.00     0.100 A 
ATOM     18  C   UNL d   1       2.371  -1.680   0.000  0.00  0.00     0.100 C 
ATOM     19  C   UNL d   1       0.103  -1.572   0.000  0.00  0.00     0.108 A 
ENDBRANCH  11  13
ENDBRANCH   1  11
TORSDOF 2
