REMARK  7 active torsions:
REMARK  status: ('A' for Active; 'I' for Inactive)
REMARK       I    between atoms: C_3  and  N_1 
REMARK    1  A    between atoms: C_4  and  N_1 
REMARK    2  A    between atoms: C_5  and  N_1 
REMARK    3  A    between atoms: N_2  and  C_7 
REMARK    4  A    between atoms: C_8  and  C_3 
REMARK    5  A    between atoms: C_6  and  C_5 
REMARK    6  A    between atoms: C_9  and  C_6 
REMARK    7  A    between atoms: O_19  and  C_9 
ROOT
ATOM      1  N   UNL d   1       0.437  -0.890   0.000  0.00  0.00    -0.258 N 
ATOM      2  C   UNL d   1       0.410  -1.720   0.000  0.00  0.00     0.266 C 
ATOM      3  O   UNL d   1      -0.286  -2.135   0.000  0.00  0.00    -0.267 OA
ENDROOT
BRANCH   1   4
ATOM      4  C   UNL d   1      -0.286  -0.475   0.000  0.00  0.00     0.150 A 
ATOM      5  N   UNL d   1      -0.987  -0.890   0.000  0.00  0.00    -0.227 NA
ATOM      6  C   UNL d   1      -1.682  -0.475   0.000  0.00  0.00     0.101 A 
ATOM      7  C   UNL d   1      -1.682   0.383   0.000  0.00  0.00     0.021 A 
ATOM      8  C   UNL d   1      -0.987   0.793   0.000  0.00  0.00     0.005 A 
ATOM      9  C   UNL d   1      -0.286   0.383   0.000  0.00  0.00     0.037 A 
ENDBRANCH   1   4
BRANCH   1  10
ATOM     10  C   UNL d   1       1.165  -0.501   0.000  0.00  0.00     0.090 C 
BRANCH  10  11
ATOM     11  C   UNL d   1       1.165   0.350   0.000  0.00  0.00     0.087 C 
BRANCH  11  12
ATOM     12  C   UNL d   1       1.882   0.771   0.000  0.00  0.00     0.297 C 
ATOM     13  O   UNL d   1       1.882   1.569   0.000  0.00  0.00    -0.259 OA
BRANCH  12  14
ATOM     14  O   UNL d   1       2.588   0.350   0.000  0.00  0.00    -0.296 OA
ATOM     15  C   UNL d   1       2.588  -0.475   0.000  0.00  0.00     0.185 C 
ENDBRANCH  12  14
ENDBRANCH  11  12
ENDBRANCH  10  11
ENDBRANCH   1  10
BRANCH   2  16
ATOM     16  C   UNL d   1       1.138  -2.135   0.000  0.00  0.00     0.057 A 
ATOM     17  C   UNL d   1       1.833  -1.747   0.000  0.00  0.00     0.006 A 
ATOM     18  C   UNL d   1       2.561  -2.157   0.000  0.00  0.00     0.024 A 
ATOM     19  C   UNL d   1       2.561  -2.960   0.000  0.00  0.00     0.127 A 
ATOM     20  C   UNL d   1       1.833  -3.370   0.000  0.00  0.00     0.024 A 
ATOM     21  C   UNL d   1       1.138  -2.960   0.000  0.00  0.00     0.006 A 
BRANCH  19  22
ATOM     22  N   UNL d   1       3.284  -3.349   0.000  0.00  0.00    -0.114 N 
ATOM     23  O   UNL d   1       3.386  -4.179   0.000  0.00  0.00    -0.532 OA
ATOM     24  O   UNL d   1       4.012  -2.960   0.000  0.00  0.00    -0.532 OA
ENDBRANCH  19  22
ENDBRANCH   2  16
TORSDOF 7
