REMARK  5 active torsions:
REMARK  status: ('A' for Active; 'I' for Inactive)
REMARK    1  A    between atoms: C_11  and  C_1 
REMARK    2  A    between atoms: C_14  and  N_4 
REMARK    3  A    between atoms: C_5  and  S_12 
REMARK    4  A    between atoms: C_16  and  C_11 
REMARK    5  A    between atoms: S_12  and  C_16 
ROOT
ATOM      1  C   UNL d   1      -0.386   1.142   0.000  0.00  0.00     0.057 A 
ATOM      2  C   UNL d   1      -0.093   0.362   0.000  0.00  0.00     0.067 A 
ATOM      3  N   UNL d   1      -0.731  -0.146   0.000  0.00  0.00    -0.306 N 
ATOM      4  C   UNL d   1      -1.434   0.305   0.000  0.00  0.00     0.064 A 
ATOM      5  C   UNL d   1      -1.203   1.105   0.000  0.00  0.00     0.022 A 
ATOM      6  C   UNL d   1       0.731   0.130   0.000  0.00  0.00     0.019 C 
ATOM      7  C   UNL d   1      -2.214   0.012   0.000  0.00  0.00     0.019 C 
ENDROOT
BRANCH   1   8
ATOM      8  C   UNL d   1       0.146   1.768   0.000  0.00  0.00     0.204 C 
ATOM      9  O   UNL d   1      -0.146   2.531   0.000  0.00  0.00    -0.286 OA
BRANCH   8  10
ATOM     10  C   UNL d   1       0.963   1.629   0.000  0.00  0.00     0.080 C 
BRANCH  10  11
ATOM     11  S   UNL d   1       1.491   2.255   0.000  0.00  0.00    -0.044 SA
BRANCH  11  12
ATOM     12  C   UNL d   1       2.308   2.117   0.000  0.00  0.00     0.201 A 
ATOM     13  N   UNL d   1       2.913   2.665   0.000  0.00  0.00    -0.268 N 
ATOM     14  C   UNL d   1       3.637   2.255   0.000  0.00  0.00     0.171 A 
ATOM     15  C   UNL d   1       2.913   3.506   0.000  0.00  0.00     0.084 A 
ATOM     16  C   UNL d   1       4.356   2.682   0.000  0.00  0.00     0.039 A 
ATOM     17  N   UNL d   1       3.462   1.459   0.000  0.00  0.00    -0.128 NA
ATOM     18  C   UNL d   1       4.356   3.506   0.000  0.00  0.00     0.005 A 
ATOM     19  C   UNL d   1       3.637   3.905   0.000  0.00  0.00     0.019 A 
ATOM     20  N   UNL d   1       2.661   1.377   0.000  0.00  0.00    -0.121 NA
ENDBRANCH  11  12
ENDBRANCH  10  11
ENDBRANCH   8  10
ENDBRANCH   1   8
BRANCH   3  21
ATOM     21  C   UNL d   1      -0.776  -0.979   0.000  0.00  0.00     0.064 A 
ATOM     22  C   UNL d   1      -1.512  -1.353   0.000  0.00  0.00     0.018 A 
ATOM     23  C   UNL d   1      -1.556  -2.174   0.000  0.00  0.00     0.002 A 
ATOM     24  C   UNL d   1      -0.874  -2.621   0.000  0.00  0.00     0.000 A 
ATOM     25  C   UNL d   1      -0.130  -2.247   0.000  0.00  0.00     0.002 A 
ATOM     26  C   UNL d   1      -0.093  -1.430   0.000  0.00  0.00     0.018 A 
ENDBRANCH   3  21
TORSDOF 5
