REMARK  5 active torsions:
REMARK  status: ('A' for Active; 'I' for Inactive)
REMARK    1  A    between atoms: N_8  and  C_1 
REMARK    2  A    between atoms: C_3  and  S_13 
REMARK       I    between atoms: C_12  and  N_8 
REMARK    3  A    between atoms: C_16  and  C_9 
REMARK    4  A    between atoms: C_15  and  C_12 
REMARK    5  A    between atoms: S_13  and  C_15 
ROOT
ATOM      1  C   UNL d   1      -0.274   2.731   0.000  0.00  0.00     0.100 C 
ENDROOT
BRANCH   1   2
ATOM      2  S   UNL d   1       0.337   3.288   0.000  0.00  0.00    -0.056 SA
BRANCH   2   3
ATOM      3  C   UNL d   1       1.114   3.026   0.000  0.00  0.00     0.141 A 
ATOM      4  N   UNL d   1       1.376   2.240   0.000  0.00  0.00    -0.232 NA
ATOM      5  C   UNL d   1       2.199   2.232   0.000  0.00  0.00     0.088 A 
ATOM      6  C   UNL d   1       2.760   1.621   0.000  0.00  0.00     0.020 A 
ATOM      7  C   UNL d   1       2.461   3.026   0.000  0.00  0.00     0.049 A 
ATOM      8  C   UNL d   1       3.566   1.796   0.000  0.00  0.00     0.002 A 
ATOM      9  C   UNL d   1       3.816   2.577   0.000  0.00  0.00     0.001 A 
ATOM     10  C   UNL d   1       3.259   3.200   0.000  0.00  0.00     0.008 A 
ATOM     11  S   UNL d   1       1.787   3.512   0.000  0.00  0.00    -0.060 SA
ENDBRANCH   2   3
ENDBRANCH   1   2
BRANCH   1  12
ATOM     12  C   UNL d   1      -1.056   2.989   0.000  0.00  0.00     0.288 C 
ATOM     13  N   UNL d   1      -1.671   2.440   0.000  0.00  0.00    -0.181 NA
ATOM     14  O   UNL d   1      -1.230   3.791   0.000  0.00  0.00    -0.265 OA
BRANCH  13  15
ATOM     15  C   UNL d   1      -2.452   2.689   0.000  0.00  0.00     0.219 A 
ATOM     16  S   UNL d   1      -3.117   2.207   0.000  0.00  0.00    -0.026 SA
ATOM     17  C   UNL d   1      -3.787   2.689   0.000  0.00  0.00     0.135 A 
ATOM     18  N   UNL d   1      -3.529   3.475   0.000  0.00  0.00    -0.139 NA
ATOM     19  N   UNL d   1      -2.706   3.475   0.000  0.00  0.00    -0.121 NA
BRANCH  17  20
ATOM     20  C   UNL d   1      -4.572   2.440   0.000  0.00  0.00     0.028 C 
ATOM     21  C   UNL d   1      -4.738   1.629   0.000  0.00  0.00     0.002 C 
ENDBRANCH  17  20
ENDBRANCH  13  15
ENDBRANCH   1  12
TORSDOF 5
