REMARK  1 active torsions:
REMARK  status: ('A' for Active; 'I' for Inactive)
REMARK    1  A    between atoms: C_11  and  C_3 
ROOT
ATOM      1  C   UNL d   1      -1.834   1.456   0.000  0.00  0.00     0.052 A 
ATOM      2  C   UNL d   1      -1.834   0.620   0.000  0.00  0.00     0.115 A 
ATOM      3  C   UNL d   1      -2.609   1.719   0.000  0.00  0.00     0.011 A 
ATOM      4  C   UNL d   1      -1.085   1.881   0.000  0.00  0.00     0.139 A 
ATOM      5  N   UNL d   1      -1.085   0.195   0.000  0.00  0.00    -0.217 NA
ATOM      6  S   UNL d   1      -2.609   0.357   0.000  0.00  0.00    -0.067 SA
ATOM      7  C   UNL d   1      -3.094   1.045   0.000  0.00  0.00     0.037 A 
ATOM      8  N   UNL d   1      -0.378   1.456   0.000  0.00  0.00    -0.213 NA
ATOM      9  C   UNL d   1      -0.378   0.587   0.000  0.00  0.00     0.200 A 
ATOM     10  S   UNL d   1      -1.052   2.724   0.000  0.00  0.00    -0.057 SA
ENDROOT
BRANCH   3  11
ATOM     11  C   UNL d   1      -3.155   2.299   0.000  0.00  0.00     0.001 A 
ATOM     12  C   UNL d   1      -3.964   2.137   0.000  0.00  0.00     0.000 A 
ATOM     13  C   UNL d   1      -4.524   2.751   0.000  0.00  0.00     0.000 A 
ATOM     14  C   UNL d   1      -4.261   3.533   0.000  0.00  0.00     0.000 A 
ATOM     15  C   UNL d   1      -3.452   3.694   0.000  0.00  0.00     0.000 A 
ATOM     16  C   UNL d   1      -2.905   3.074   0.000  0.00  0.00     0.000 A 
ENDBRANCH   3  11
TORSDOF 1
