REMARK  7 active torsions:
REMARK  status: ('A' for Active; 'I' for Inactive)
REMARK    1  A    between atoms: C_3  and  N_1 
REMARK    2  A    between atoms: N_7  and  C_3 
REMARK    3  A    between atoms: C_9  and  C_4 
REMARK    4  A    between atoms: C_10  and  C_5 
REMARK    5  A    between atoms: C_15  and  N_7 
REMARK    6  A    between atoms: O_22  and  C_16 
REMARK    7  A    between atoms: O_23  and  C_17 
ROOT
ATOM      1  N   UNL d   1       0.241  -0.094   0.000  0.00  0.00    -0.203 N 
ATOM      2  N   UNL d   1      -0.573  -0.136   0.000  0.00  0.00    -0.163 NA
ATOM      3  C   UNL d   1      -0.859   0.663   0.000  0.00  0.00     0.103 A 
ATOM      4  C   UNL d   1       0.478   0.678   0.000  0.00  0.00     0.087 A 
ATOM      5  C   UNL d   1      -0.192   1.149   0.000  0.00  0.00     0.040 A 
ENDROOT
BRANCH   1   6
ATOM      6  C   UNL d   1       0.768  -0.768   0.000  0.00  0.00     0.222 C 
ATOM      7  S   UNL d   1       0.441  -1.526   0.000  0.00  0.00    -0.037 SA
BRANCH   6   8
ATOM      8  N   UNL d   1       1.582  -0.637   0.000  0.00  0.00    -0.217 NA
BRANCH   8   9
ATOM      9  C   UNL d   1       2.083  -1.292   0.000  0.00  0.00     0.084 A 
ATOM     10  C   UNL d   1       2.897  -1.179   0.000  0.00  0.00     0.019 A 
ATOM     11  C   UNL d   1       3.405  -1.853   0.000  0.00  0.00     0.002 A 
ATOM     12  C   UNL d   1       3.100  -2.592   0.000  0.00  0.00     0.000 A 
ATOM     13  C   UNL d   1       2.287  -2.716   0.000  0.00  0.00     0.002 A 
ATOM     14  C   UNL d   1       1.778  -2.068   0.000  0.00  0.00     0.019 A 
ENDBRANCH   8   9
ENDBRANCH   6   8
ENDBRANCH   1   6
BRANCH   4  15
ATOM     15  C   UNL d   1       1.236   1.024   0.000  0.00  0.00     0.018 A 
ATOM     16  C   UNL d   1       1.902   0.539   0.000  0.00  0.00     0.004 A 
ATOM     17  C   UNL d   1       2.648   0.878   0.000  0.00  0.00     0.024 A 
ATOM     18  C   UNL d   1       2.739   1.714   0.000  0.00  0.00     0.094 A 
ATOM     19  C   UNL d   1       2.049   2.200   0.000  0.00  0.00     0.024 A 
ATOM     20  C   UNL d   1       1.311   1.838   0.000  0.00  0.00     0.004 A 
BRANCH  18  21
ATOM     21  O   UNL d   1       3.484   2.034   0.000  0.00  0.00    -0.328 OA
ATOM     22  C   UNL d   1       4.147   1.556   0.000  0.00  0.00     0.181 C 
ENDBRANCH  18  21
ENDBRANCH   4  15
BRANCH   3  23
ATOM     23  C   UNL d   1      -1.657   0.878   0.000  0.00  0.00     0.019 A 
ATOM     24  C   UNL d   1      -1.872   1.672   0.000  0.00  0.00     0.004 A 
ATOM     25  C   UNL d   1      -2.667   1.895   0.000  0.00  0.00     0.024 A 
ATOM     26  C   UNL d   1      -3.251   1.311   0.000  0.00  0.00     0.094 A 
ATOM     27  C   UNL d   1      -3.029   0.497   0.000  0.00  0.00     0.024 A 
ATOM     28  C   UNL d   1      -2.234   0.282   0.000  0.00  0.00     0.004 A 
BRANCH  26  29
ATOM     29  O   UNL d   1      -4.064   1.548   0.000  0.00  0.00    -0.328 OA
ATOM     30  C   UNL d   1      -4.889   1.024   0.000  0.00  0.00     0.181 C 
ENDBRANCH  26  29
ENDBRANCH   3  23
TORSDOF 7
