REMARK  6 active torsions:
REMARK  status: ('A' for Active; 'I' for Inactive)
REMARK    1  A    between atoms: C_3  and  N_1 
REMARK    2  A    between atoms: N_7  and  C_3 
REMARK    3  A    between atoms: C_9  and  C_4 
REMARK    4  A    between atoms: C_10  and  C_5 
REMARK    5  A    between atoms: C_15  and  N_7 
REMARK    6  A    between atoms: O_23  and  C_17 
ROOT
ATOM      1  N   UNL d   1       0.250  -0.671   0.000  0.00  0.00    -0.203 N 
ATOM      2  N   UNL d   1      -0.578  -0.809   0.000  0.00  0.00    -0.163 NA
ATOM      3  C   UNL d   1      -0.950  -0.078   0.000  0.00  0.00     0.103 A 
ATOM      4  C   UNL d   1       0.373   0.153   0.000  0.00  0.00     0.087 A 
ATOM      5  C   UNL d   1      -0.399   0.511   0.000  0.00  0.00     0.040 A 
ENDROOT
BRANCH   1   6
ATOM      6  C   UNL d   1       0.854  -1.256   0.000  0.00  0.00     0.222 C 
ATOM      7  S   UNL d   1       0.641  -2.046   0.000  0.00  0.00    -0.037 SA
BRANCH   6   8
ATOM      8  N   UNL d   1       1.644  -1.029   0.000  0.00  0.00    -0.217 NA
BRANCH   8   9
ATOM      9  C   UNL d   1       2.236  -1.599   0.000  0.00  0.00     0.084 A 
ATOM     10  C   UNL d   1       2.016  -2.404   0.000  0.00  0.00     0.019 A 
ATOM     11  C   UNL d   1       2.609  -2.978   0.000  0.00  0.00     0.002 A 
ATOM     12  C   UNL d   1       3.380  -2.743   0.000  0.00  0.00     0.000 A 
ATOM     13  C   UNL d   1       3.593  -1.957   0.000  0.00  0.00     0.002 A 
ATOM     14  C   UNL d   1       3.023  -1.386   0.000  0.00  0.00     0.019 A 
ENDBRANCH   8   9
ENDBRANCH   6   8
ENDBRANCH   1   6
BRANCH   4  15
ATOM     15  C   UNL d   1       1.088   0.581   0.000  0.00  0.00     0.018 A 
ATOM     16  C   UNL d   1       1.088   1.405   0.000  0.00  0.00     0.004 A 
ATOM     17  C   UNL d   1       1.804   1.819   0.000  0.00  0.00     0.024 A 
ATOM     18  C   UNL d   1       2.505   1.427   0.000  0.00  0.00     0.094 A 
ATOM     19  C   UNL d   1       2.519   0.581   0.000  0.00  0.00     0.024 A 
ATOM     20  C   UNL d   1       1.804   0.175   0.000  0.00  0.00     0.004 A 
BRANCH  18  21
ATOM     21  O   UNL d   1       3.220   1.890   0.000  0.00  0.00    -0.328 OA
ATOM     22  C   UNL d   1       3.179   2.728   0.000  0.00  0.00     0.181 C 
ENDBRANCH  18  21
ENDBRANCH   4  15
BRANCH   3  23
ATOM     23  C   UNL d   1      -1.774  -0.004   0.000  0.00  0.00     0.019 A 
ATOM     24  C   UNL d   1      -2.132   0.727   0.000  0.00  0.00     0.002 A 
ATOM     25  C   UNL d   1      -2.952   0.801   0.000  0.00  0.00     0.007 A 
ATOM     26  C   UNL d   1      -3.418   0.119   0.000  0.00  0.00     0.035 A 
ATOM     27  C   UNL d   1      -3.060  -0.630   0.000  0.00  0.00     0.007 A 
ATOM     28 BR   UNL d   1      -4.245   0.175   0.000  0.00  0.00    -0.049 Br
ATOM     29  C   UNL d   1      -2.236  -0.704   0.000  0.00  0.00     0.002 A 
ENDBRANCH   3  23
TORSDOF 6
