REMARK  3 active torsions:
REMARK  status: ('A' for Active; 'I' for Inactive)
REMARK    1  A    between atoms: C_2  and  C_1 
REMARK       I    between atoms: N_3  and  C_2 
REMARK    2  A    between atoms: C_21  and  N_4 
REMARK    3  A    between atoms: C_20  and  C_21 
ROOT
ATOM      1  C   UNL d   1       1.070  -0.693   0.000  0.00  0.00     0.255 C 
ATOM      2  N   UNL d   1       1.914  -0.722   0.000  0.00  0.00    -0.271 N 
ATOM      3  N   UNL d   1       3.568  -0.760   0.000  0.00  0.00    -0.300 N 
ATOM      4  O   UNL d   1       0.718  -0.013   0.000  0.00  0.00    -0.270 OA
ATOM      5  C   UNL d   1       2.355  -0.029   0.000  0.00  0.00     0.102 A 
ATOM      6  C   UNL d   1       2.304  -1.448   0.000  0.00  0.00     0.102 A 
ATOM      7  C   UNL d   1       3.139  -1.477   0.000  0.00  0.00     0.100 A 
ATOM      8  C   UNL d   1       3.173  -0.029   0.000  0.00  0.00     0.100 A 
ENDROOT
BRANCH   1   9
ATOM      9  C   UNL d   1       0.646  -1.377   0.000  0.00  0.00     0.137 A 
ATOM     10  C   UNL d   1       1.246  -1.931   0.000  0.00  0.00     0.033 A 
ATOM     11  C   UNL d   1       1.150  -2.749   0.000  0.00  0.00     0.046 A 
ATOM     12  C   UNL d   1       0.609  -3.328   0.000  0.00  0.00    -0.015 A 
ATOM     13  C   UNL d   1       0.453  -3.064   0.000  0.00  0.00    -0.022 A 
ATOM     14  C   UNL d   1      -0.071  -3.014   0.000  0.00  0.00     0.027 A 
ATOM     15  C   UNL d   1       0.113  -2.229   0.000  0.00  0.00    -0.117 A 
ATOM     16  C   UNL d   1      -0.865  -3.240   0.000  0.00  0.00     0.006 A 
ATOM     17  C   UNL d   1      -0.302  -2.380   0.000  0.00  0.00    -0.006 A 
ATOM     18  C   UNL d   1      -0.134  -1.603   0.000  0.00  0.00    -0.007 A 
ENDBRANCH   1   9
BRANCH   3  19
ATOM     19  C   UNL d   1       4.269  -0.672   0.000  0.00  0.00     0.080 C 
BRANCH  19  20
ATOM     20  C   UNL d   1       4.583   0.084   0.000  0.00  0.00     0.020 A 
ATOM     21  C   UNL d   1       4.092   0.751   0.000  0.00  0.00     0.028 A 
ATOM     22  C   UNL d   1       4.407   1.519   0.000  0.00  0.00     0.119 A 
ATOM     23  O   UNL d   1       4.034   2.237   0.000  0.00  0.00    -0.300 OA
ATOM     24  C   UNL d   1       5.230   1.637   0.000  0.00  0.00     0.119 A 
ATOM     25  C   UNL d   1       4.621   2.854   0.000  0.00  0.00     0.304 A 
ATOM     26  O   UNL d   1       5.351   2.455   0.000  0.00  0.00    -0.300 OA
ATOM     27  C   UNL d   1       5.733   0.965   0.000  0.00  0.00     0.026 A 
ATOM     28  C   UNL d   1       5.414   0.202   0.000  0.00  0.00     0.004 A 
ENDBRANCH  19  20
ENDBRANCH   3  19
TORSDOF 3
