REMARK  7 active torsions:
REMARK  status: ('A' for Active; 'I' for Inactive)
REMARK    1  A    between atoms: C_6  and  C_1 
REMARK    2  A    between atoms: C_7  and  C_3 
REMARK    3  A    between atoms: O_14  and  C_6 
REMARK    4  A    between atoms: C_8  and  C_7 
REMARK    5  A    between atoms: S_10  and  C_8 
REMARK    6  A    between atoms: C_13  and  S_10 
REMARK    7  A    between atoms: C_22  and  O_14 
ROOT
ATOM      1  C   UNL d   1       5.508  -4.256   0.000  0.00  0.00     0.083 A 
ATOM      2  C   UNL d   1       5.772  -3.476   0.000  0.00  0.00     0.028 A 
ATOM      3  C   UNL d   1       6.562  -3.493   0.000  0.00  0.00     0.121 A 
ATOM      4  N   UNL d   1       6.810  -4.284   0.000  0.00  0.00    -0.242 NA
ATOM      5  C   UNL d   1       6.151  -4.717   0.000  0.00  0.00     0.087 A 
ATOM      6  C   UNL d   1       5.272  -2.834   0.000  0.00  0.00     0.002 C 
ATOM      7  C   UNL d   1       6.101  -5.574   0.000  0.00  0.00     0.021 C 
ENDROOT
BRANCH   3   8
ATOM      8  C   UNL d   1       6.985  -2.773   0.000  0.00  0.00     0.220 C 
ATOM      9  O   UNL d   1       6.596  -2.065   0.000  0.00  0.00    -0.284 OA
BRANCH   8  10
ATOM     10  C   UNL d   1       7.815  -2.790   0.000  0.00  0.00     0.079 C 
BRANCH  10  11
ATOM     11  S   UNL d   1       8.210  -3.498   0.000  0.00  0.00    -0.083 SA
BRANCH  11  12
ATOM     12  C   UNL d   1       9.050  -3.493   0.000  0.00  0.00     0.030 A 
ATOM     13  C   UNL d   1       9.462  -2.773   0.000  0.00  0.00     0.007 A 
ATOM     14  C   UNL d   1      10.264  -2.790   0.000  0.00  0.00     0.012 A 
ATOM     15  C   UNL d   1      10.698  -3.493   0.000  0.00  0.00     0.058 A 
ATOM     16  C   UNL d   1      10.286  -4.174   0.000  0.00  0.00     0.012 A 
ATOM     17 CL   UNL d   1      11.532  -3.531   0.000  0.00  0.00    -0.082 Cl
ATOM     18  C   UNL d   1       9.473  -4.201   0.000  0.00  0.00     0.007 A 
ENDBRANCH  11  12
ENDBRANCH  10  11
ENDBRANCH   8  10
ENDBRANCH   3   8
BRANCH   1  19
ATOM     19  C   UNL d   1       4.701  -4.503   0.000  0.00  0.00     0.302 C 
ATOM     20  O   UNL d   1       4.091  -3.926   0.000  0.00  0.00    -0.259 OA
BRANCH  19  21
ATOM     21  O   UNL d   1       4.487  -5.310   0.000  0.00  0.00    -0.271 OA
BRANCH  21  22
ATOM     22  C   UNL d   1       5.096  -5.871   0.000  0.00  0.00     0.126 C 
ATOM     23  C   UNL d   1       4.915  -6.694   0.000  0.00  0.00     0.029 C 
ENDBRANCH  21  22
ENDBRANCH  19  21
ENDBRANCH   1  19
TORSDOF 7
