REMARK  6 active torsions:
REMARK  status: ('A' for Active; 'I' for Inactive)
REMARK    1  A    between atoms: C_18  and  N_1 
REMARK    2  A    between atoms: S_7  and  C_2 
REMARK    3  A    between atoms: C_20  and  S_7 
REMARK    4  A    between atoms: C_10  and  C_20 
REMARK       I    between atoms: N_13  and  C_10 
REMARK    5  A    between atoms: C_16  and  N_13 
REMARK    6  A    between atoms: C_21  and  C_18 
ROOT
ATOM      1  N   UNL d   1      -0.101   0.700   0.000  0.00  0.00    -0.253 N 
ATOM      2  C   UNL d   1      -0.106  -0.176   0.000  0.00  0.00     0.182 A 
ATOM      3  C   UNL d   1       0.599   1.092   0.000  0.00  0.00     0.268 A 
ATOM      4  N   UNL d   1       0.586  -0.559   0.000  0.00  0.00    -0.222 NA
ATOM      5  C   UNL d   1       1.299   0.683   0.000  0.00  0.00     0.074 A 
ATOM      6  C   UNL d   1       1.299  -0.159   0.000  0.00  0.00     0.088 A 
ATOM      7  O   UNL d   1       0.568   1.951   0.000  0.00  0.00    -0.267 OA
ATOM      8  C   UNL d   1       2.013   1.092   0.000  0.00  0.00     0.006 A 
ATOM      9  C   UNL d   1       2.013  -0.559   0.000  0.00  0.00     0.019 A 
ATOM     10  C   UNL d   1       2.713   0.687   0.000  0.00  0.00     0.000 A 
ATOM     11  C   UNL d   1       2.727  -0.145   0.000  0.00  0.00     0.002 A 
ENDROOT
BRANCH   2  12
ATOM     12  S   UNL d   1      -0.828  -0.599   0.000  0.00  0.00    -0.044 SA
BRANCH  12  13
ATOM     13  C   UNL d   1      -1.586  -0.189   0.000  0.00  0.00     0.101 C 
BRANCH  13  14
ATOM     14  C   UNL d   1      -2.286  -0.634   0.000  0.00  0.00     0.286 C 
ATOM     15  N   UNL d   1      -2.268  -1.445   0.000  0.00  0.00    -0.207 NA
ATOM     16  O   UNL d   1      -3.013  -0.242   0.000  0.00  0.00    -0.265 OA
BRANCH  15  17
ATOM     17  C   UNL d   1      -1.533  -1.850   0.000  0.00  0.00     0.087 A 
ATOM     18  C   UNL d   1      -0.841  -1.392   0.000  0.00  0.00     0.045 A 
ATOM     19  C   UNL d   1      -0.106  -1.775   0.000  0.00  0.00     0.121 A 
ATOM     20  O   UNL d   1       0.665  -1.480   0.000  0.00  0.00    -0.299 OA
ATOM     21  C   UNL d   1      -0.075  -2.590   0.000  0.00  0.00     0.119 A 
ATOM     22  C   UNL d   1       1.163  -2.145   0.000  0.00  0.00     0.304 A 
ATOM     23  O   UNL d   1       0.740  -2.819   0.000  0.00  0.00    -0.300 OA
ATOM     24  C   UNL d   1      -0.775  -3.044   0.000  0.00  0.00     0.028 A 
ATOM     25  C   UNL d   1      -1.502  -2.660   0.000  0.00  0.00     0.021 A 
ENDBRANCH  15  17
ENDBRANCH  13  14
ENDBRANCH  12  13
ENDBRANCH   2  12
BRANCH   1  26
ATOM     26  C   UNL d   1      -0.815   1.158   0.000  0.00  0.00     0.085 C 
BRANCH  26  27
ATOM     27  C   UNL d   1      -1.555   0.788   0.000  0.00  0.00     0.019 C 
ATOM     28  C   UNL d   1      -2.233   1.229   0.000  0.00  0.00     0.002 C 
ENDBRANCH  26  27
ENDBRANCH   1  26
TORSDOF 6
