REMARK  9 active torsions:
REMARK  status: ('A' for Active; 'I' for Inactive)
REMARK    1  A    between atoms: C_9  and  C_1 
REMARK    2  A    between atoms: N_8  and  C_2 
REMARK    3  A    between atoms: C_10  and  C_4 
REMARK    4  A    between atoms: C_6  and  N_7 
REMARK    5  A    between atoms: N_7  and  N_8 
REMARK    6  A    between atoms: O_18  and  C_9 
REMARK    7  A    between atoms: O_19  and  C_10 
REMARK    8  A    between atoms: C_23  and  O_18 
REMARK    9  A    between atoms: C_24  and  O_19 
ROOT
ATOM      1  C   UNL d   1      -1.880   1.409   0.000  0.00  0.00     0.090 A 
ATOM      2  C   UNL d   1      -1.638   0.645   0.000  0.00  0.00     0.138 A 
ATOM      3  C   UNL d   1      -2.680   1.409   0.000  0.00  0.00     0.018 A 
ATOM      4  C   UNL d   1      -2.972   0.689   0.000  0.00  0.00     0.095 A 
ATOM      5  S   UNL d   1      -2.339   0.168   0.000  0.00  0.00    -0.061 SA
ATOM      6  C   UNL d   1      -3.195   2.116   0.000  0.00  0.00     0.001 C 
ENDROOT
BRANCH   2   7
ATOM      7  N   UNL d   1      -0.838   0.447   0.000  0.00  0.00    -0.141 NA
BRANCH   7   8
ATOM      8  N   UNL d   1      -0.571  -0.354   0.000  0.00  0.00    -0.141 NA
BRANCH   8   9
ATOM      9  C   UNL d   1       0.267  -0.527   0.000  0.00  0.00     0.180 A 
ATOM     10  C   UNL d   1       0.490  -1.347   0.000  0.00  0.00     0.218 A 
ATOM     11  O   UNL d   1      -0.105  -1.917   0.000  0.00  0.00    -0.285 OA
ATOM     12  C   UNL d   1       1.291  -1.545   0.000  0.00  0.00     0.044 A 
ATOM     13  C   UNL d   1       1.886  -0.974   0.000  0.00  0.00     0.007 A 
ATOM     14  C   UNL d   1       1.682  -0.155   0.000  0.00  0.00     0.044 A 
ATOM     15  C   UNL d   1       0.863   0.068   0.000  0.00  0.00     0.218 A 
ATOM     16  O   UNL d   1       0.676   0.850   0.000  0.00  0.00    -0.285 OA
ENDBRANCH   8   9
ENDBRANCH   7   8
ENDBRANCH   2   7
BRANCH   1  17
ATOM     17  C   UNL d   1      -1.371   2.079   0.000  0.00  0.00     0.302 C 
ATOM     18  O   UNL d   1      -0.540   1.986   0.000  0.00  0.00    -0.259 OA
BRANCH  17  19
ATOM     19  O   UNL d   1      -1.712   2.860   0.000  0.00  0.00    -0.271 OA
BRANCH  19  20
ATOM     20  C   UNL d   1      -2.532   2.954   0.000  0.00  0.00     0.126 C 
ATOM     21  C   UNL d   1      -2.842   3.717   0.000  0.00  0.00     0.029 C 
ENDBRANCH  19  20
ENDBRANCH  17  19
ENDBRANCH   1  17
BRANCH   4  22
ATOM     22  C   UNL d   1      -3.791   0.496   0.000  0.00  0.00     0.306 C 
ATOM     23  O   UNL d   1      -4.349   1.073   0.000  0.00  0.00    -0.258 OA
BRANCH  22  24
ATOM     24  O   UNL d   1      -3.977  -0.304   0.000  0.00  0.00    -0.271 OA
BRANCH  24  25
ATOM     25  C   UNL d   1      -4.796  -0.527   0.000  0.00  0.00     0.126 C 
ATOM     26  C   UNL d   1      -4.989  -1.309   0.000  0.00  0.00     0.029 C 
ENDBRANCH  24  25
ENDBRANCH  22  24
ENDBRANCH   4  22
TORSDOF 9
