REMARK  5 active torsions:
REMARK  status: ('A' for Active; 'I' for Inactive)
REMARK    1  A    between atoms: C_4  and  C_1 
REMARK    2  A    between atoms: C_8  and  C_4 
REMARK    3  A    between atoms: C_9  and  C_4 
REMARK    4  A    between atoms: N_5  and  C_9 
REMARK    5  A    between atoms: O_18  and  C_11 
ROOT
ATOM      1  C   UNL d   1       5.274  -3.463   0.000  0.00  0.00     0.025 C 
ENDROOT
BRANCH   1   2
ATOM      2  C   UNL d   1       5.012  -4.250   0.000  0.00  0.00     0.021 A 
ATOM      3  C   UNL d   1       5.499  -4.945   0.000  0.00  0.00     0.082 A 
ATOM      4  N   UNL d   1       5.012  -5.595   0.000  0.00  0.00    -0.246 NA
ATOM      5  C   UNL d   1       6.323  -4.945   0.000  0.00  0.00     0.021 C 
ATOM      6  C   UNL d   1       4.225  -5.345   0.000  0.00  0.00     0.081 A 
ATOM      7  C   UNL d   1       4.225  -4.513   0.000  0.00  0.00     0.019 A 
ATOM      8  C   UNL d   1       3.514  -5.749   0.000  0.00  0.00     0.019 A 
ATOM      9  C   UNL d   1       3.514  -4.096   0.000  0.00  0.00     0.002 A 
ATOM     10  C   UNL d   1       2.797  -4.500   0.000  0.00  0.00     0.000 A 
ATOM     11  C   UNL d   1       2.797  -5.345   0.000  0.00  0.00     0.002 A 
ENDBRANCH   1   2
BRANCH   1  12
ATOM     12  C   UNL d   1       6.074  -3.297   0.000  0.00  0.00     0.004 A 
ATOM     13  C   UNL d   1       6.644  -3.896   0.000  0.00  0.00     0.028 A 
ATOM     14  C   UNL d   1       7.443  -3.726   0.000  0.00  0.00     0.133 A 
ATOM     15  C   UNL d   1       7.697  -2.947   0.000  0.00  0.00     0.218 A 
ATOM     16  C   UNL d   1       7.143  -2.327   0.000  0.00  0.00     0.044 A 
ATOM     17  O   UNL d   1       8.496  -2.764   0.000  0.00  0.00    -0.284 OA
ATOM     18  C   UNL d   1       6.344  -2.498   0.000  0.00  0.00     0.004 A 
BRANCH  14  19
ATOM     19  O   UNL d   1       7.993  -4.346   0.000  0.00  0.00    -0.325 OA
ATOM     20  C   UNL d   1       8.792  -4.163   0.000  0.00  0.00     0.181 C 
ENDBRANCH  14  19
ENDBRANCH   1  12
BRANCH   1  21
ATOM     21  C   UNL d   1       4.712  -2.847   0.000  0.00  0.00     0.148 C 
BRANCH  21  22
ATOM     22  N   UNL d   1       4.975  -2.065   0.000  0.00  0.00    -0.112 N 
ATOM     23  O   UNL d   1       5.774  -1.898   0.000  0.00  0.00    -0.532 OA
ATOM     24  O   UNL d   1       4.413  -1.449   0.000  0.00  0.00    -0.532 OA
ENDBRANCH  21  22
ENDBRANCH   1  21
TORSDOF 5
