REMARK  6 active torsions:
REMARK  status: ('A' for Active; 'I' for Inactive)
REMARK    1  A    between atoms: C_3  and  N_1 
REMARK    2  A    between atoms: N_7  and  C_3 
REMARK    3  A    between atoms: C_10  and  C_4 
REMARK    4  A    between atoms: C_9  and  C_5 
REMARK    5  A    between atoms: C_13  and  N_7 
REMARK    6  A    between atoms: O_17  and  C_14 
ROOT
ATOM      1  N   UNL d   1      -0.064   0.654   0.000  0.00  0.00    -0.203 N 
ATOM      2  N   UNL d   1      -0.881   0.654   0.000  0.00  0.00    -0.163 NA
ATOM      3  C   UNL d   1      -1.134   1.417   0.000  0.00  0.00     0.103 A 
ATOM      4  C   UNL d   1       0.208   1.436   0.000  0.00  0.00     0.087 A 
ATOM      5  C   UNL d   1      -0.465   1.905   0.000  0.00  0.00     0.040 A 
ENDROOT
BRANCH   1   6
ATOM      6  C   UNL d   1       0.408  -0.049   0.000  0.00  0.00     0.222 C 
ATOM      7  S   UNL d   1       0.045  -0.798   0.000  0.00  0.00    -0.037 SA
BRANCH   6   8
ATOM      8  N   UNL d   1       1.225   0.000   0.000  0.00  0.00    -0.217 NA
BRANCH   8   9
ATOM      9  C   UNL d   1       1.694  -0.684   0.000  0.00  0.00     0.084 A 
ATOM     10  C   UNL d   1       2.510  -0.616   0.000  0.00  0.00     0.019 A 
ATOM     11  C   UNL d   1       2.982  -1.304   0.000  0.00  0.00     0.002 A 
ATOM     12  C   UNL d   1       2.619  -2.045   0.000  0.00  0.00     0.000 A 
ATOM     13  C   UNL d   1       1.803  -2.087   0.000  0.00  0.00     0.002 A 
ATOM     14  C   UNL d   1       1.331  -1.410   0.000  0.00  0.00     0.019 A 
ENDBRANCH   8   9
ENDBRANCH   6   8
ENDBRANCH   1   6
BRANCH   4  15
ATOM     15  C   UNL d   1       0.987   1.708   0.000  0.00  0.00     0.018 A 
ATOM     16  C   UNL d   1       1.134   2.525   0.000  0.00  0.00     0.004 A 
ATOM     17  C   UNL d   1       1.894   2.797   0.000  0.00  0.00     0.024 A 
ATOM     18  C   UNL d   1       2.544   2.268   0.000  0.00  0.00     0.094 A 
ATOM     19  C   UNL d   1       2.385   1.470   0.000  0.00  0.00     0.024 A 
ATOM     20  C   UNL d   1       1.603   1.179   0.000  0.00  0.00     0.004 A 
BRANCH  18  21
ATOM     21  O   UNL d   1       3.326   2.559   0.000  0.00  0.00    -0.328 OA
ATOM     22  C   UNL d   1       3.493   3.376   0.000  0.00  0.00     0.181 C 
ENDBRANCH  18  21
ENDBRANCH   4  15
BRANCH   3  23
ATOM     23  C   UNL d   1      -1.917   1.633   0.000  0.00  0.00     0.019 A 
ATOM     24  C   UNL d   1      -2.132   2.434   0.000  0.00  0.00     0.002 A 
ATOM     25  C   UNL d   1      -2.933   2.650   0.000  0.00  0.00     0.000 A 
ATOM     26  C   UNL d   1      -3.512   2.071   0.000  0.00  0.00     0.000 A 
ATOM     27  C   UNL d   1      -3.296   1.270   0.000  0.00  0.00     0.000 A 
ATOM     28  C   UNL d   1      -2.495   1.055   0.000  0.00  0.00     0.002 A 
ENDBRANCH   3  23
TORSDOF 6
