REMARK  2 active torsions:
REMARK  status: ('A' for Active; 'I' for Inactive)
REMARK    1  A    between atoms: N_4  and  C_1 
REMARK    2  A    between atoms: C_11  and  C_3 
ROOT
ATOM      1  C   UNL d   1       2.380  -0.771   0.000  0.00  0.00     0.148 A 
ATOM      2  N   UNL d   1       1.671  -1.155   0.000  0.00  0.00    -0.228 NA
ATOM      3  C   UNL d   1       1.671   0.478   0.000  0.00  0.00     0.004 A 
ATOM      4  C   UNL d   1       2.380   0.058   0.000  0.00  0.00     0.037 A 
ATOM      5  C   UNL d   1       0.957   0.058   0.000  0.00  0.00     0.018 A 
ATOM      6  C   UNL d   1       0.957  -0.771   0.000  0.00  0.00     0.083 A 
ATOM      7  C   UNL d   1       0.252   0.478   0.000  0.00  0.00     0.002 A 
ATOM      8  C   UNL d   1       0.252  -1.155   0.000  0.00  0.00     0.019 A 
ATOM      9  C   UNL d   1      -0.466   0.058   0.000  0.00  0.00     0.000 A 
ATOM     10  C   UNL d   1      -0.466  -0.771   0.000  0.00  0.00     0.002 A 
ENDROOT
BRANCH   1  11
ATOM     11  N   UNL d   1       3.086  -1.155   0.000  0.00  0.00    -0.286 N 
ATOM     12  C   UNL d   1       3.824  -0.771   0.000  0.00  0.00     0.101 A 
ATOM     13  C   UNL d   1       4.534  -1.155   0.000  0.00  0.00     0.100 A 
ATOM     14  N   UNL d   1       4.534  -1.984   0.000  0.00  0.00    -0.299 N 
ATOM     15  C   UNL d   1       3.824  -2.380   0.000  0.00  0.00     0.100 A 
ATOM     16  C   UNL d   1       5.248  -2.380   0.000  0.00  0.00     0.100 C 
ATOM     17  C   UNL d   1       3.086  -1.984   0.000  0.00  0.00     0.101 A 
ENDBRANCH   1  11
BRANCH   3  18
ATOM     18  C   UNL d   1       1.671   1.283   0.000  0.00  0.00     0.000 A 
ATOM     19  C   UNL d   1       2.380   1.704   0.000  0.00  0.00     0.000 A 
ATOM     20  C   UNL d   1       2.380   2.496   0.000  0.00  0.00     0.000 A 
ATOM     21  C   UNL d   1       1.671   2.929   0.000  0.00  0.00     0.000 A 
ATOM     22  C   UNL d   1       0.957   2.496   0.000  0.00  0.00     0.000 A 
ATOM     23  C   UNL d   1       0.957   1.704   0.000  0.00  0.00     0.000 A 
ENDBRANCH   3  18
TORSDOF 2
