REMARK  7 active torsions:
REMARK  status: ('A' for Active; 'I' for Inactive)
REMARK    1  A    between atoms: C_3  and  C_1 
REMARK    2  A    between atoms: C_5  and  C_3 
REMARK    3  A    between atoms: C_14  and  C_3 
REMARK    4  A    between atoms: N_6  and  C_14 
REMARK    5  A    between atoms: O_17  and  C_9 
REMARK    6  A    between atoms: O_18  and  C_10 
REMARK    7  A    between atoms: O_19  and  C_11 
ROOT
ATOM      1  C   UNL d   1       6.029  -3.445   0.000  0.00  0.00     0.025 C 
ENDROOT
BRANCH   1   2
ATOM      2  C   UNL d   1       5.769  -4.228   0.000  0.00  0.00     0.021 A 
ATOM      3  C   UNL d   1       6.266  -4.907   0.000  0.00  0.00     0.082 A 
ATOM      4  N   UNL d   1       5.793  -5.566   0.000  0.00  0.00    -0.246 NA
ATOM      5  C   UNL d   1       7.094  -4.899   0.000  0.00  0.00     0.021 C 
ATOM      6  C   UNL d   1       5.007  -5.317   0.000  0.00  0.00     0.081 A 
ATOM      7  C   UNL d   1       5.007  -4.489   0.000  0.00  0.00     0.019 A 
ATOM      8  C   UNL d   1       4.303  -5.719   0.000  0.00  0.00     0.019 A 
ATOM      9  C   UNL d   1       4.290  -4.079   0.000  0.00  0.00     0.002 A 
ATOM     10  C   UNL d   1       3.582  -4.489   0.000  0.00  0.00     0.000 A 
ATOM     11  C   UNL d   1       3.582  -5.317   0.000  0.00  0.00     0.002 A 
ENDBRANCH   1   2
BRANCH   1  12
ATOM     12  C   UNL d   1       5.470  -2.833   0.000  0.00  0.00     0.006 A 
ATOM     13  C   UNL d   1       5.719  -2.054   0.000  0.00  0.00     0.026 A 
ATOM     14  C   UNL d   1       5.172  -1.441   0.000  0.00  0.00     0.118 A 
ATOM     15  C   UNL d   1       4.373  -1.619   0.000  0.00  0.00     0.138 A 
ATOM     16  C   UNL d   1       4.112  -2.402   0.000  0.00  0.00     0.118 A 
ATOM     17  C   UNL d   1       4.671  -3.011   0.000  0.00  0.00     0.026 A 
BRANCH  14  18
ATOM     18  O   UNL d   1       5.421  -0.663   0.000  0.00  0.00    -0.326 OA
ATOM     19  C   UNL d   1       4.874  -0.054   0.000  0.00  0.00     0.181 C 
ENDBRANCH  14  18
BRANCH  15  20
ATOM     20  O   UNL d   1       3.826  -1.010   0.000  0.00  0.00    -0.324 OA
ATOM     21  C   UNL d   1       3.019  -1.193   0.000  0.00  0.00     0.182 C 
ENDBRANCH  15  20
BRANCH  16  22
ATOM     22  O   UNL d   1       3.317  -2.584   0.000  0.00  0.00    -0.326 OA
ATOM     23  C   UNL d   1       3.068  -3.367   0.000  0.00  0.00     0.181 C 
ENDBRANCH  16  22
ENDBRANCH   1  12
BRANCH   1  24
ATOM     24  C   UNL d   1       6.837  -3.267   0.000  0.00  0.00     0.148 C 
BRANCH  24  25
ATOM     25  N   UNL d   1       7.044  -2.464   0.000  0.00  0.00    -0.112 N 
ATOM     26  O   UNL d   1       7.851  -2.253   0.000  0.00  0.00    -0.532 OA
ATOM     27  O   UNL d   1       6.460  -1.888   0.000  0.00  0.00    -0.532 OA
ENDBRANCH  24  25
ENDBRANCH   1  24
TORSDOF 7
