REMARK  4 active torsions:
REMARK  status: ('A' for Active; 'I' for Inactive)
REMARK       I    between atoms: C_3  and  N_1 
REMARK    1  A    between atoms: C_7  and  C_3 
REMARK    2  A    between atoms: C_9  and  C_4 
REMARK    3  A    between atoms: C_12  and  C_5 
REMARK    4  A    between atoms: O_20  and  C_17 
ROOT
ATOM      1  N   UNL d   1       0.857  -2.095   0.000  0.00  0.00    -0.194 N 
ATOM      2  N   UNL d   1       0.077  -2.342   0.000  0.00  0.00    -0.163 NA
ATOM      3  C   UNL d   1       1.539  -2.598   0.000  0.00  0.00     0.286 C 
ATOM      4  C   UNL d   1       0.857  -1.271   0.000  0.00  0.00     0.088 A 
ATOM      5  C   UNL d   1      -0.410  -1.685   0.000  0.00  0.00     0.103 A 
ATOM      6  C   UNL d   1       0.077  -1.023   0.000  0.00  0.00     0.040 A 
ATOM      7  O   UNL d   1       1.417  -3.414   0.000  0.00  0.00    -0.265 OA
ENDROOT
BRANCH   4   8
ATOM      8  C   UNL d   1       1.575  -0.844   0.000  0.00  0.00     0.018 A 
ATOM      9  C   UNL d   1       1.575  -0.004   0.000  0.00  0.00     0.004 A 
ATOM     10  C   UNL d   1       2.294   0.402   0.000  0.00  0.00     0.024 A 
ATOM     11  C   UNL d   1       3.020  -0.004   0.000  0.00  0.00     0.094 A 
ATOM     12  C   UNL d   1       3.020  -0.844   0.000  0.00  0.00     0.024 A 
ATOM     13  C   UNL d   1       2.294  -1.254   0.000  0.00  0.00     0.004 A 
BRANCH  11  14
ATOM     14  O   UNL d   1       3.739   0.422   0.000  0.00  0.00    -0.328 OA
ATOM     15  C   UNL d   1       3.719   1.262   0.000  0.00  0.00     0.181 C 
ENDBRANCH  11  14
ENDBRANCH   4   8
BRANCH   3  16
ATOM     16  C   UNL d   1       2.294  -2.290   0.000  0.00  0.00     0.087 A 
ATOM     17  S   UNL d   1       3.057  -2.635   0.000  0.00  0.00    -0.082 SA
ATOM     18  C   UNL d   1       3.605  -2.034   0.000  0.00  0.00     0.036 A 
ATOM     19  C   UNL d   1       3.215  -1.315   0.000  0.00  0.00     0.008 A 
ATOM     20  C   UNL d   1       2.415  -1.466   0.000  0.00  0.00     0.012 A 
ENDBRANCH   3  16
BRANCH   5  21
ATOM     21  C   UNL d   1      -1.230  -1.608   0.000  0.00  0.00     0.019 A 
ATOM     22  C   UNL d   1      -1.701  -2.290   0.000  0.00  0.00     0.002 A 
ATOM     23  C   UNL d   1      -2.517  -2.208   0.000  0.00  0.00     0.000 A 
ATOM     24  C   UNL d   1      -2.870  -1.466   0.000  0.00  0.00     0.000 A 
ATOM     25  C   UNL d   1      -2.399  -0.783   0.000  0.00  0.00     0.000 A 
ATOM     26  C   UNL d   1      -1.579  -0.865   0.000  0.00  0.00     0.002 A 
ENDBRANCH   5  21
TORSDOF 4
