REMARK  8 active torsions:
REMARK  status: ('A' for Active; 'I' for Inactive)
REMARK    1  A    between atoms: C_8  and  N_1 
REMARK    2  A    between atoms: C_6  and  C_2 
REMARK    3  A    between atoms: S_7  and  C_4 
REMARK    4  A    between atoms: C_12  and  S_7 
REMARK    5  A    between atoms: C_9  and  C_12 
REMARK    6  A    between atoms: O_14  and  C_9 
REMARK    7  A    between atoms: O_16  and  C_13 
REMARK    8  A    between atoms: C_21  and  O_14 
ROOT
ATOM      1  N   UNL d   1      -0.326  -1.128   0.000  0.00  0.00    -0.269 N 
ATOM      2  C   UNL d   1      -0.929  -0.570   0.000  0.00  0.00     0.171 A 
ATOM      3  N   UNL d   1      -0.558   0.177   0.000  0.00  0.00    -0.128 NA
ATOM      4  C   UNL d   1       0.398  -0.730   0.000  0.00  0.00     0.201 A 
ATOM      5  N   UNL d   1       0.238   0.094   0.000  0.00  0.00    -0.121 NA
ENDROOT
BRANCH   2   6
ATOM      6  C   UNL d   1      -1.703  -0.780   0.000  0.00  0.00     0.038 A 
ATOM      7  C   UNL d   1      -1.919  -1.576   0.000  0.00  0.00     0.027 A 
ATOM      8  C   UNL d   1      -2.682  -1.814   0.000  0.00  0.00     0.094 A 
ATOM      9  C   UNL d   1      -3.296  -1.233   0.000  0.00  0.00     0.024 A 
ATOM     10  C   UNL d   1      -3.080  -0.437   0.000  0.00  0.00     0.002 A 
ATOM     11  C   UNL d   1      -2.284  -0.221   0.000  0.00  0.00     0.003 A 
BRANCH   8  12
ATOM     12  O   UNL d   1      -2.870  -2.638   0.000  0.00  0.00    -0.328 OA
ATOM     13  C   UNL d   1      -2.256  -3.191   0.000  0.00  0.00     0.181 C 
ENDBRANCH   8  12
ENDBRANCH   2   6
BRANCH   1  14
ATOM     14  C   UNL d   1      -0.558  -1.924   0.000  0.00  0.00     0.067 A 
ATOM     15  C   UNL d   1       0.022  -2.505   0.000  0.00  0.00     0.018 A 
ATOM     16  C   UNL d   1      -0.216  -3.301   0.000  0.00  0.00     0.002 A 
ATOM     17  C   UNL d   1      -1.012  -3.517   0.000  0.00  0.00     0.000 A 
ATOM     18  C   UNL d   1      -1.593  -2.925   0.000  0.00  0.00     0.002 A 
ATOM     19  C   UNL d   1      -1.355  -2.129   0.000  0.00  0.00     0.018 A 
ENDBRANCH   1  14
BRANCH   4  20
ATOM     20  S   UNL d   1       1.167  -1.101   0.000  0.00  0.00    -0.042 SA
BRANCH  20  21
ATOM     21  C   UNL d   1       1.266  -1.924   0.000  0.00  0.00     0.107 C 
BRANCH  21  22
ATOM     22  C   UNL d   1       2.013  -2.262   0.000  0.00  0.00     0.307 C 
ATOM     23  O   UNL d   1       2.123  -3.091   0.000  0.00  0.00    -0.258 OA
BRANCH  22  24
ATOM     24  O   UNL d   1       2.676  -1.764   0.000  0.00  0.00    -0.271 OA
BRANCH  24  25
ATOM     25  C   UNL d   1       2.594  -0.935   0.000  0.00  0.00     0.126 C 
ATOM     26  C   UNL d   1       3.257  -0.437   0.000  0.00  0.00     0.029 C 
ENDBRANCH  24  25
ENDBRANCH  22  24
ENDBRANCH  21  22
ENDBRANCH  20  21
ENDBRANCH   4  20
TORSDOF 8
