REMARK  6 active torsions:
REMARK  status: ('A' for Active; 'I' for Inactive)
REMARK    1  A    between atoms: C_18  and  N_5 
REMARK    2  A    between atoms: S_11  and  C_6 
REMARK    3  A    between atoms: C_10  and  C_12 
REMARK    4  A    between atoms: C_15  and  S_11 
REMARK    5  A    between atoms: C_12  and  C_15 
REMARK    6  A    between atoms: C_21  and  C_18 
ROOT
ATOM      1  C   UNL d   1      -3.237   1.184   0.000  0.00  0.00     0.081 A 
ATOM      2  C   UNL d   1      -2.977   0.411   0.000  0.00  0.00     0.117 A 
ATOM      3  N   UNL d   1      -2.170   0.246   0.000  0.00  0.00    -0.215 NA
ATOM      4  C   UNL d   1      -2.649   1.807   0.000  0.00  0.00     0.268 A 
ATOM      5  N   UNL d   1      -1.862   1.615   0.000  0.00  0.00    -0.253 N 
ATOM      6  C   UNL d   1      -1.636   0.876   0.000  0.00  0.00     0.182 A 
ATOM      7  S   UNL d   1      -3.648  -0.048   0.000  0.00  0.00    -0.068 SA
ATOM      8  C   UNL d   1      -4.024   1.184   0.000  0.00  0.00     0.013 A 
ATOM      9  C   UNL d   1      -4.291   0.383   0.000  0.00  0.00     0.031 A 
ATOM     10  O   UNL d   1      -2.909   2.628   0.000  0.00  0.00    -0.267 OA
ATOM     11  C   UNL d   1      -4.490   1.889   0.000  0.00  0.00     0.001 C 
ATOM     12  C   UNL d   1      -5.092   0.116   0.000  0.00  0.00     0.007 C 
ENDROOT
BRANCH   6  13
ATOM     13  S   UNL d   1      -0.821   0.691   0.000  0.00  0.00    -0.046 SA
BRANCH  13  14
ATOM     14  C   UNL d   1      -0.246   1.307   0.000  0.00  0.00     0.081 C 
BRANCH  14  15
ATOM     15  C   UNL d   1       0.554   1.143   0.000  0.00  0.00     0.208 C 
ATOM     16  O   UNL d   1       1.116   1.759   0.000  0.00  0.00    -0.285 OA
BRANCH  15  17
ATOM     17  C   UNL d   1       0.821   0.404   0.000  0.00  0.00     0.069 A 
ATOM     18  S   UNL d   1       1.649   0.219   0.000  0.00  0.00    -0.083 SA
ATOM     19  C   UNL d   1       1.725  -0.602   0.000  0.00  0.00     0.035 A 
ATOM     20  C   UNL d   1       0.986  -0.951   0.000  0.00  0.00     0.008 A 
ATOM     21  C   UNL d   1       0.438  -0.377   0.000  0.00  0.00     0.010 A 
ENDBRANCH  15  17
ENDBRANCH  14  15
ENDBRANCH  13  14
ENDBRANCH   6  13
BRANCH   5  22
ATOM     22  C   UNL d   1      -1.287   2.190   0.000  0.00  0.00     0.085 C 
BRANCH  22  23
ATOM     23  C   UNL d   1      -0.486   1.992   0.000  0.00  0.00     0.019 C 
ATOM     24  C   UNL d   1       0.110   2.567   0.000  0.00  0.00     0.002 C 
ENDBRANCH  22  23
ENDBRANCH   5  22
TORSDOF 6
