REMARK  6 active torsions:
REMARK  status: ('A' for Active; 'I' for Inactive)
REMARK    1  A    between atoms: C_7  and  C_1 
REMARK    2  A    between atoms: N_5  and  C_3 
REMARK       I    between atoms: C_9  and  N_5 
REMARK    3  A    between atoms: C_8  and  S_11 
REMARK    4  A    between atoms: C_13  and  C_9 
REMARK    5  A    between atoms: S_11  and  C_13 
REMARK    6  A    between atoms: O_17  and  C_14 
ROOT
ATOM      1  C   UNL d   1      -3.813   2.708   0.000  0.00  0.00     0.137 A 
ATOM      2  S   UNL d   1      -3.139   2.223   0.000  0.00  0.00    -0.026 SA
ATOM      3  C   UNL d   1      -2.469   2.708   0.000  0.00  0.00     0.219 A 
ATOM      4  N   UNL d   1      -3.554   3.499   0.000  0.00  0.00    -0.139 NA
ATOM      5  N   UNL d   1      -2.725   3.499   0.000  0.00  0.00    -0.121 NA
ENDROOT
BRANCH   3   6
ATOM      6  N   UNL d   1      -1.683   2.457   0.000  0.00  0.00    -0.181 NA
ATOM      7  C   UNL d   1      -1.063   3.009   0.000  0.00  0.00     0.287 C 
ATOM      8  O   UNL d   1      -1.239   3.817   0.000  0.00  0.00    -0.265 OA
BRANCH   7   9
ATOM      9  C   UNL d   1      -0.276   2.750   0.000  0.00  0.00     0.089 C 
ATOM     10  C   UNL d   1      -0.109   1.942   0.000  0.00  0.00     0.012 C 
BRANCH   9  11
ATOM     11  S   UNL d   1       0.339   3.311   0.000  0.00  0.00    -0.057 SA
BRANCH  11  12
ATOM     12  C   UNL d   1       1.122   3.047   0.000  0.00  0.00     0.141 A 
ATOM     13  N   UNL d   1       1.385   2.256   0.000  0.00  0.00    -0.230 NA
ATOM     14  C   UNL d   1       2.214   2.256   0.000  0.00  0.00     0.107 A 
ATOM     15  C   UNL d   1       2.474   3.047   0.000  0.00  0.00     0.058 A 
ATOM     16  S   UNL d   1       1.800   3.537   0.000  0.00  0.00    -0.059 SA
ENDBRANCH  11  12
ENDBRANCH   9  11
ENDBRANCH   7   9
ENDBRANCH   3   6
BRANCH   1  17
ATOM     17  C   UNL d   1      -4.604   2.457   0.000  0.00  0.00     0.048 A 
ATOM     18  C   UNL d   1      -5.211   2.997   0.000  0.00  0.00     0.096 A 
ATOM     19  C   UNL d   1      -5.985   2.746   0.000  0.00  0.00     0.024 A 
ATOM     20  C   UNL d   1      -6.132   1.942   0.000  0.00  0.00     0.002 A 
ATOM     21  C   UNL d   1      -5.546   1.402   0.000  0.00  0.00     0.000 A 
ATOM     22  C   UNL d   1      -4.767   1.653   0.000  0.00  0.00     0.004 A 
BRANCH  18  23
ATOM     23  O   UNL d   1      -5.056   3.792   0.000  0.00  0.00    -0.328 OA
ATOM     24  C   UNL d   1      -5.822   4.332   0.000  0.00  0.00     0.181 C 
ENDBRANCH  18  23
ENDBRANCH   1  17
TORSDOF 6
