REMARK  3 active torsions:
REMARK  status: ('A' for Active; 'I' for Inactive)
REMARK    1  A    between atoms: N_7  and  N_1 
REMARK    2  A    between atoms: N_2  and  N_8 
REMARK       I    between atoms: C_3  and  N_7 
REMARK    3  A    between atoms: C_4  and  C_3 
REMARK       I    between atoms: N_8  and  C_4 
ROOT
ATOM      1  C   UNL d   1      -2.797   0.761   0.000  0.00  0.00     0.355 C 
ATOM      2  N   UNL d   1      -2.525   0.000   0.000  0.00  0.00    -0.115 NA
ATOM      3  O   UNL d   1      -3.596   0.910   0.000  0.00  0.00    -0.258 OA
ENDROOT
BRANCH   1   4
ATOM      4  C   UNL d   1      -2.259   1.386   0.000  0.00  0.00     0.355 C 
ATOM      5  N   UNL d   1      -2.556   2.154   0.000  0.00  0.00    -0.115 NA
ATOM      6  O   UNL d   1      -1.708   1.281   0.000  0.00  0.00    -0.258 OA
BRANCH   5   7
ATOM      7  N   UNL d   1      -2.036   2.816   0.000  0.00  0.00    -0.175 N 
ATOM      8  C   UNL d   1      -1.256   2.692   0.000  0.00  0.00     0.170 A 
ATOM      9  S   UNL d   1      -0.885   3.484   0.000  0.00  0.00    -0.051 SA
ATOM     10  S   UNL d   1      -0.891   1.925   0.000  0.00  0.00    -0.050 SA
ATOM     11  C   UNL d   1      -1.516   4.029   0.000  0.00  0.00     0.100 A 
ATOM     12  C   UNL d   1      -2.222   3.596   0.000  0.00  0.00     0.288 A 
ATOM     13  O   UNL d   1      -3.002   3.912   0.000  0.00  0.00    -0.265 OA
ENDBRANCH   5   7
ENDBRANCH   1   4
BRANCH   2  14
ATOM     14  N   UNL d   1      -1.702  -0.223   0.000  0.00  0.00    -0.175 N 
ATOM     15  C   UNL d   1      -1.368  -0.966   0.000  0.00  0.00     0.170 A 
ATOM     16  S   UNL d   1      -0.569  -0.842   0.000  0.00  0.00    -0.051 SA
ATOM     17  S   UNL d   1      -1.782  -1.708   0.000  0.00  0.00    -0.050 SA
ATOM     18  C   UNL d   1      -0.390  -0.074   0.000  0.00  0.00     0.100 A 
ATOM     19  C   UNL d   1      -1.071   0.346   0.000  0.00  0.00     0.288 A 
ATOM     20  O   UNL d   1      -1.145   0.817   0.000  0.00  0.00    -0.265 OA
ENDBRANCH   2  14
TORSDOF 3
