REMARK  2 active torsions:
REMARK  status: ('A' for Active; 'I' for Inactive)
REMARK    1  A    between atoms: C_7  and  C_2 
REMARK    2  A    between atoms: C_6  and  N_3 
ROOT
ATOM      1  C   UNL d   1      -0.325   0.942   0.000  0.00  0.00     0.085 A 
ATOM      2  C   UNL d   1      -1.035   1.338   0.000  0.00  0.00     0.019 A 
ATOM      3  C   UNL d   1      -1.746   0.920   0.000  0.00  0.00     0.002 A 
ATOM      4  C   UNL d   1      -0.325   0.094   0.000  0.00  0.00     0.019 A 
ATOM      5  C   UNL d   1      -1.746   0.094   0.000  0.00  0.00     0.000 A 
ATOM      6  C   UNL d   1      -1.035  -0.331   0.000  0.00  0.00     0.002 A 
ATOM      7  C   UNL d   1      -2.440   1.338   0.000  0.00  0.00     0.000 A 
ATOM      8  C   UNL d   1      -2.440  -0.331   0.000  0.00  0.00     0.000 A 
ATOM      9  C   UNL d   1      -3.150   0.942   0.000  0.00  0.00     0.000 A 
ATOM     10  C   UNL d   1      -3.150   0.094   0.000  0.00  0.00     0.000 A 
ENDROOT
BRANCH   1  11
ATOM     11  N   UNL d   1       0.397   1.338   0.000  0.00  0.00    -0.210 N 
ATOM     12  C   UNL d   1       1.162   1.052   0.000  0.00  0.00     0.191 A 
ATOM     13  C   UNL d   1       1.658   1.680   0.000  0.00  0.00     0.118 A 
ATOM     14  N   UNL d   1       1.371   0.259   0.000  0.00  0.00    -0.127 N 
ATOM     15  C   UNL d   1       1.212   2.374   0.000  0.00  0.00     0.129 A 
ATOM     16  N   UNL d   1       0.446   2.159   0.000  0.00  0.00    -0.162 NA
BRANCH  13  17
ATOM     17  C   UNL d   1       2.484   1.630   0.000  0.00  0.00     0.301 C 
ATOM     18  O   UNL d   1       2.897   2.313   0.000  0.00  0.00    -0.263 OA
ATOM     19  N   UNL d   1       2.848   0.920   0.000  0.00  0.00    -0.102 N 
ENDBRANCH  13  17
ENDBRANCH   1  11
TORSDOF 2
