REMARK  6 active torsions:
REMARK  status: ('A' for Active; 'I' for Inactive)
REMARK    1  A    between atoms: C_6  and  C_1 
REMARK    2  A    between atoms: C_9  and  C_2 
REMARK    3  A    between atoms: N_8  and  C_3 
REMARK       I    between atoms: N_7  and  C_6 
REMARK    4  A    between atoms: C_13  and  N_7 
REMARK    5  A    between atoms: C_12  and  N_8 
REMARK    6  A    between atoms: O_19  and  C_14 
ROOT
ATOM      1  C   UNL d   1      -0.393  -0.997   0.000  0.00  0.00     0.108 A 
ATOM      2  C   UNL d   1      -0.393  -0.169   0.000  0.00  0.00     0.094 A 
ATOM      3  C   UNL d   1       0.861  -0.595   0.000  0.00  0.00     0.194 A 
ATOM      4  N   UNL d   1       0.393   0.080   0.000  0.00  0.00    -0.221 NA
ATOM      5  S   UNL d   1       0.393  -1.240   0.000  0.00  0.00    -0.042 SA
ENDROOT
BRANCH   1   6
ATOM      6  C   UNL d   1      -1.048  -1.493   0.000  0.00  0.00     0.287 C 
ATOM      7  N   UNL d   1      -1.812  -1.180   0.000  0.00  0.00    -0.206 NA
ATOM      8  O   UNL d   1      -0.955  -2.322   0.000  0.00  0.00    -0.265 OA
BRANCH   7   9
ATOM      9  C   UNL d   1      -2.467  -1.671   0.000  0.00  0.00     0.104 A 
ATOM     10  C   UNL d   1      -3.202  -1.334   0.000  0.00  0.00     0.118 A 
ATOM     11  N   UNL d   1      -3.857  -1.830   0.000  0.00  0.00    -0.241 NA
ATOM     12  C   UNL d   1      -3.764  -2.617   0.000  0.00  0.00     0.099 A 
ATOM     13  C   UNL d   1      -3.029  -2.954   0.000  0.00  0.00     0.022 A 
ATOM     14  C   UNL d   1      -2.354  -2.476   0.000  0.00  0.00     0.022 A 
ENDBRANCH   7   9
ENDBRANCH   1   6
BRANCH   2  15
ATOM     15  C   UNL d   1      -1.091   0.239   0.000  0.00  0.00     0.018 A 
ATOM     16  C   UNL d   1      -1.091   1.067   0.000  0.00  0.00     0.002 A 
ATOM     17  C   UNL d   1      -1.812   1.474   0.000  0.00  0.00     0.000 A 
ATOM     18  C   UNL d   1      -2.528   1.048   0.000  0.00  0.00     0.000 A 
ATOM     19  C   UNL d   1      -2.528   0.262   0.000  0.00  0.00     0.000 A 
ATOM     20  C   UNL d   1      -1.812  -0.169   0.000  0.00  0.00     0.002 A 
ENDBRANCH   2  15
BRANCH   3  21
ATOM     21  N   UNL d   1       1.671  -0.595   0.000  0.00  0.00    -0.221 NA
BRANCH  21  22
ATOM     22  C   UNL d   1       2.078   0.126   0.000  0.00  0.00     0.084 A 
ATOM     23  C   UNL d   1       2.907   0.126   0.000  0.00  0.00     0.021 A 
ATOM     24  C   UNL d   1       3.314   0.824   0.000  0.00  0.00     0.026 A 
ATOM     25  C   UNL d   1       2.884   1.540   0.000  0.00  0.00     0.094 A 
ATOM     26  C   UNL d   1       2.097   1.540   0.000  0.00  0.00     0.026 A 
ATOM     27  C   UNL d   1       1.671   0.824   0.000  0.00  0.00     0.021 A 
BRANCH  25  28
ATOM     28  O   UNL d   1       3.291   2.284   0.000  0.00  0.00    -0.328 OA
ATOM     29  C   UNL d   1       4.119   2.326   0.000  0.00  0.00     0.181 C 
ENDBRANCH  25  28
ENDBRANCH  21  22
ENDBRANCH   3  21
TORSDOF 6
