REMARK  0 active torsions:
REMARK  status: ('A' for Active; 'I' for Inactive)
ROOT
ATOM      1  N   UNL d   1      -0.046   0.407   0.000  0.00  0.00    -0.176 N 
ATOM      2  C   UNL d   1      -0.046   1.232   0.000  0.00  0.00     0.167 A 
ATOM      3  N   UNL d   1       0.642   0.000   0.000  0.00  0.00    -0.150 NA
ATOM      4  C   UNL d   1      -0.785   0.000   0.000  0.00  0.00     0.283 A 
ATOM      5  N   UNL d   1      -0.785   1.644   0.000  0.00  0.00    -0.227 NA
ATOM      6  C   UNL d   1       1.375   0.407   0.000  0.00  0.00     0.159 A 
ATOM      7  C   UNL d   1      -1.507   0.407   0.000  0.00  0.00     0.076 A 
ATOM      8  C   UNL d   1       0.642   1.644   0.000  0.00  0.00     0.038 A 
ATOM      9  C   UNL d   1      -1.507   1.232   0.000  0.00  0.00     0.088 A 
ATOM     10  C   UNL d   1       1.375   1.232   0.000  0.00  0.00     0.033 A 
ATOM     11  O   UNL d   1      -0.785  -0.831   0.000  0.00  0.00    -0.265 OA
ATOM     12 CL   UNL d   1       2.068   0.000   0.000  0.00  0.00    -0.060 Cl
ATOM     13  C   UNL d   1      -2.217   0.000   0.000  0.00  0.00     0.006 A 
ATOM     14  C   UNL d   1       0.642   2.469   0.000  0.00  0.00     0.003 A 
ATOM     15  C   UNL d   1       2.068   1.644   0.000  0.00  0.00     0.003 A 
ATOM     16  C   UNL d   1      -2.217   1.644   0.000  0.00  0.00     0.019 A 
ATOM     17  C   UNL d   1      -2.933   0.407   0.000  0.00  0.00     0.000 A 
ATOM     18  C   UNL d   1       1.375   2.882   0.000  0.00  0.00     0.000 A 
ATOM     19  C   UNL d   1       2.068   2.469   0.000  0.00  0.00     0.000 A 
ATOM     20  C   UNL d   1      -2.933   1.232   0.000  0.00  0.00     0.002 A 
ENDROOT
TORSDOF 0
