REMARK  1 active torsions:
REMARK  status: ('A' for Active; 'I' for Inactive)
REMARK    1  A    between atoms: C_7  and  C_2 
ROOT
ATOM      1  N   UNL d   1       0.304   0.528   0.000  0.00  0.00    -0.147 NA
ATOM      2  C   UNL d   1      -0.411   0.123   0.000  0.00  0.00     0.103 A 
ATOM      3  N   UNL d   1       0.304   1.345   0.000  0.00  0.00    -0.137 NA
ATOM      4  C   UNL d   1      -1.132   0.528   0.000  0.00  0.00     0.022 A 
ATOM      5  C   UNL d   1      -0.411   1.756   0.000  0.00  0.00     0.157 A 
ATOM      6  C   UNL d   1      -1.132   1.345   0.000  0.00  0.00     0.031 A 
ATOM      7  S   UNL d   1      -0.411   2.605   0.000  0.00  0.00    -0.056 SA
ATOM      8  C   UNL d   1      -1.852   0.123   0.000  0.00  0.00     0.002 A 
ATOM      9  C   UNL d   1      -1.852   1.756   0.000  0.00  0.00     0.002 A 
ATOM     10  C   UNL d   1      -2.562   0.528   0.000  0.00  0.00     0.000 A 
ATOM     11  C   UNL d   1      -2.562   1.345   0.000  0.00  0.00     0.000 A 
ENDROOT
BRANCH   2  12
ATOM     12  C   UNL d   1      -0.411  -0.726   0.000  0.00  0.00     0.019 A 
ATOM     13  C   UNL d   1      -1.132  -1.137   0.000  0.00  0.00     0.002 A 
ATOM     14  C   UNL d   1      -1.132  -1.959   0.000  0.00  0.00     0.000 A 
ATOM     15  C   UNL d   1      -0.411  -2.370   0.000  0.00  0.00     0.000 A 
ATOM     16  C   UNL d   1       0.304  -1.959   0.000  0.00  0.00     0.000 A 
ATOM     17  C   UNL d   1      -0.411  -3.208   0.000  0.00  0.00     0.000 C 
ATOM     18  C   UNL d   1       0.304  -1.137   0.000  0.00  0.00     0.002 A 
ENDBRANCH   2  12
TORSDOF 1
