REMARK  4 active torsions:
REMARK  status: ('A' for Active; 'I' for Inactive)
REMARK    1  A    between atoms: C_10  and  N_2 
REMARK    2  A    between atoms: N_6  and  C_3 
REMARK    3  A    between atoms: N_7  and  N_6 
REMARK    4  A    between atoms: C_11  and  N_7 
ROOT
ATOM      1  C   UNL d   1      -0.791  -1.371   0.000  0.00  0.00     0.206 A 
ATOM      2  N   UNL d   1      -0.050  -1.744   0.000  0.00  0.00    -0.209 N 
ATOM      3  C   UNL d   1      -0.630  -0.551   0.000  0.00  0.00     0.160 A 
ATOM      4  N   UNL d   1       0.526  -1.193   0.000  0.00  0.00    -0.162 NA
ATOM      5  C   UNL d   1       0.186  -0.452   0.000  0.00  0.00     0.124 A 
ATOM      6  N   UNL d   1      -1.541  -1.728   0.000  0.00  0.00    -0.125 N 
ATOM      7  C   UNL d   1       0.584   0.282   0.000  0.00  0.00     0.024 C 
ENDROOT
BRANCH   3   8
ATOM      8  N   UNL d   1      -1.127   0.083   0.000  0.00  0.00    -0.143 NA
BRANCH   8   9
ATOM      9  N   UNL d   1      -0.808   0.858   0.000  0.00  0.00    -0.148 NA
BRANCH   9  10
ATOM     10  C   UNL d   1      -1.326   1.512   0.000  0.00  0.00     0.103 A 
ATOM     11  C   UNL d   1      -1.028   2.287   0.000  0.00  0.00     0.019 A 
ATOM     12  C   UNL d   1      -1.525   2.929   0.000  0.00  0.00     0.002 A 
ATOM     13  C   UNL d   1      -0.195   2.407   0.000  0.00  0.00     0.002 C 
ATOM     14  C   UNL d   1      -1.226   3.700   0.000  0.00  0.00     0.000 C 
ATOM     15  C   UNL d   1      -2.337   2.784   0.000  0.00  0.00     0.000 A 
ATOM     16  C   UNL d   1      -2.635   2.034   0.000  0.00  0.00     0.002 A 
ATOM     17  C   UNL d   1      -2.121   1.392   0.000  0.00  0.00     0.021 A 
ENDBRANCH   9  10
ENDBRANCH   8   9
ENDBRANCH   3   8
BRANCH   2  18
ATOM     18  C   UNL d   1      -0.070  -2.565   0.000  0.00  0.00     0.085 A 
ATOM     19  C   UNL d   1       0.626  -2.983   0.000  0.00  0.00     0.019 A 
ATOM     20  C   UNL d   1       0.601  -3.816   0.000  0.00  0.00     0.002 A 
ATOM     21  C   UNL d   1      -0.095  -4.214   0.000  0.00  0.00     0.000 A 
ATOM     22  C   UNL d   1      -0.808  -3.796   0.000  0.00  0.00     0.002 A 
ATOM     23  C   UNL d   1      -0.808  -2.983   0.000  0.00  0.00     0.019 A 
ENDBRANCH   2  18
TORSDOF 4
