REMARK  3 active torsions:
REMARK  status: ('A' for Active; 'I' for Inactive)
REMARK    1  A    between atoms: C_2  and  S_1 
REMARK    2  A    between atoms: N_3  and  S_1 
REMARK    3  A    between atoms: C_10  and  N_3 
ROOT
ATOM      1  C   UNL d   1       0.464   2.230   0.000  0.00  0.00     0.107 A 
ATOM      2  C   UNL d   1      -0.259   1.832   0.000  0.00  0.00     0.040 A 
ATOM      3  C   UNL d   1      -0.971   2.230   0.000  0.00  0.00     0.123 A 
ATOM      4  C   UNL d   1      -0.971   3.047   0.000  0.00  0.00     0.123 A 
ATOM      5  O   UNL d   1      -1.656   1.832   0.000  0.00  0.00    -0.301 OA
ATOM      6  O   UNL d   1      -1.656   3.472   0.000  0.00  0.00    -0.301 OA
ATOM      7  C   UNL d   1       0.464   3.074   0.000  0.00  0.00     0.015 A 
ATOM      8  C   UNL d   1      -0.259   3.472   0.000  0.00  0.00     0.028 A 
ATOM      9  C   UNL d   1      -2.379   2.230   0.000  0.00  0.00     0.149 A 
ATOM     10  C   UNL d   1      -2.379   3.074   0.000  0.00  0.00     0.149 A 
ENDROOT
BRANCH   1  11
ATOM     11  S   UNL d   1       1.176   1.783   0.000  0.00  0.00     0.285 S 
ATOM     12  O   UNL d   1       1.893   1.325   0.000  0.00  0.00    -0.198 OA
ATOM     13  O   UNL d   1       0.751   1.060   0.000  0.00  0.00    -0.198 OA
BRANCH  11  14
ATOM     14  N   UNL d   1       1.628   2.467   0.000  0.00  0.00    -0.157 NA
BRANCH  14  15
ATOM     15  C   UNL d   1       2.423   2.445   0.000  0.00  0.00     0.113 A 
ATOM     16  C   UNL d   1       2.820   1.722   0.000  0.00  0.00     0.119 A 
ATOM     17  N   UNL d   1       3.643   1.700   0.000  0.00  0.00    -0.241 NA
ATOM     18  C   UNL d   1       4.062   2.384   0.000  0.00  0.00     0.099 A 
ATOM     19  C   UNL d   1       3.665   3.129   0.000  0.00  0.00     0.022 A 
ATOM     20  C   UNL d   1       2.848   3.129   0.000  0.00  0.00     0.023 A 
ENDBRANCH  14  15
ENDBRANCH  11  14
ENDBRANCH   1  11
TORSDOF 3
