REMARK  2 active torsions:
REMARK  status: ('A' for Active; 'I' for Inactive)
REMARK    1  A    between atoms: S_4  and  C_1 
REMARK    2  A    between atoms: C_9  and  S_4 
ROOT
ATOM      1  C   UNL d   1      -2.584   0.398   0.000  0.00  0.00     0.107 A 
ATOM      2  C   UNL d   1      -2.986  -0.331   0.000  0.00  0.00     0.201 A 
ATOM      3  C   UNL d   1      -2.961   1.101   0.000  0.00  0.00     0.201 A 
ATOM      4  C   UNL d   1      -4.217   0.423   0.000  0.00  0.00     0.043 A 
ATOM      5  C   UNL d   1      -3.815  -0.318   0.000  0.00  0.00     0.020 A 
ATOM      6  C   UNL d   1      -3.782   1.127   0.000  0.00  0.00     0.020 A 
ATOM      7  O   UNL d   1      -2.513   1.780   0.000  0.00  0.00    -0.286 OA
ATOM      8  O   UNL d   1      -2.609  -1.060   0.000  0.00  0.00    -0.286 OA
ATOM      9  C   UNL d   1      -4.821   0.955   0.000  0.00  0.00     0.009 C 
ATOM     10  C   UNL d   1      -4.858  -0.088   0.000  0.00  0.00     0.009 C 
ENDROOT
BRANCH   1  11
ATOM     11  S   UNL d   1      -1.730   0.398   0.000  0.00  0.00    -0.081 SA
BRANCH  11  12
ATOM     12  C   UNL d   1      -1.328   1.139   0.000  0.00  0.00     0.030 A 
ATOM     13  C   UNL d   1      -1.742   1.855   0.000  0.00  0.00     0.007 A 
ATOM     14  C   UNL d   1      -1.319   2.563   0.000  0.00  0.00     0.007 A 
ATOM     15  C   UNL d   1      -0.498   2.563   0.000  0.00  0.00     0.035 A 
ATOM     16  C   UNL d   1      -0.096   1.843   0.000  0.00  0.00     0.007 A 
ATOM     17 BR   UNL d   1      -0.084   3.288   0.000  0.00  0.00    -0.049 Br
ATOM     18  C   UNL d   1      -0.503   1.127   0.000  0.00  0.00     0.007 A 
ENDBRANCH  11  12
ENDBRANCH   1  11
TORSDOF 2
