REMARK  5 active torsions:
REMARK  status: ('A' for Active; 'I' for Inactive)
REMARK    1  A    between atoms: C_16  and  N_5 
REMARK    2  A    between atoms: S_12  and  C_6 
REMARK    3  A    between atoms: C_10  and  C_14 
REMARK       I    between atoms: N_11  and  C_10 
REMARK    4  A    between atoms: C_14  and  S_12 
REMARK    5  A    between atoms: C_18  and  C_16 
ROOT
ATOM      1  C   UNL d   1      -1.306   1.643   0.000  0.00  0.00     0.081 A 
ATOM      2  C   UNL d   1      -0.869   0.944   0.000  0.00  0.00     0.117 A 
ATOM      3  N   UNL d   1      -0.055   0.964   0.000  0.00  0.00    -0.215 NA
ATOM      4  C   UNL d   1      -0.919   2.366   0.000  0.00  0.00     0.268 A 
ATOM      5  N   UNL d   1      -0.100   2.391   0.000  0.00  0.00    -0.253 N 
ATOM      6  C   UNL d   1       0.362   1.688   0.000  0.00  0.00     0.182 A 
ATOM      7  S   UNL d   1      -1.427   0.296   0.000  0.00  0.00    -0.068 SA
ATOM      8  C   UNL d   1      -2.105   1.427   0.000  0.00  0.00     0.013 A 
ATOM      9  C   UNL d   1      -2.150   0.603   0.000  0.00  0.00     0.031 A 
ATOM     10  O   UNL d   1      -1.326   3.089   0.000  0.00  0.00    -0.267 OA
ATOM     11  C   UNL d   1      -2.798   1.884   0.000  0.00  0.00     0.001 A 
ATOM     12  C   UNL d   1      -2.893   0.241   0.000  0.00  0.00     0.006 A 
ATOM     13  C   UNL d   1      -3.521   1.502   0.000  0.00  0.00     0.000 A 
ATOM     14  C   UNL d   1      -3.571   0.703   0.000  0.00  0.00     0.001 A 
ENDROOT
BRANCH   6  15
ATOM     15  S   UNL d   1       1.181   1.713   0.000  0.00  0.00    -0.044 SA
BRANCH  15  16
ATOM     16  C   UNL d   1       1.567   2.436   0.000  0.00  0.00     0.099 C 
BRANCH  16  17
ATOM     17  C   UNL d   1       2.396   2.451   0.000  0.00  0.00     0.272 C 
ATOM     18  N   UNL d   1       2.868   1.773   0.000  0.00  0.00    -0.267 N 
ATOM     19  C   UNL d   1       3.682   1.833   0.000  0.00  0.00     0.110 A 
ATOM     20  C   UNL d   1       2.517   1.025   0.000  0.00  0.00     0.110 A 
ATOM     21  C   UNL d   1       4.194   1.160   0.000  0.00  0.00     0.142 A 
ATOM     22  O   UNL d   1       3.833   0.417   0.000  0.00  0.00    -0.300 OA
ATOM     23  C   UNL d   1       2.974   0.342   0.000  0.00  0.00     0.142 A 
ATOM     24  O   UNL d   1       2.697   3.235   0.000  0.00  0.00    -0.266 OA
ENDBRANCH  16  17
ENDBRANCH  15  16
ENDBRANCH   6  15
BRANCH   5  25
ATOM     25  C   UNL d   1       0.306   3.135   0.000  0.00  0.00     0.085 C 
BRANCH  25  26
ATOM     26  C   UNL d   1       1.150   3.190   0.000  0.00  0.00     0.019 C 
ATOM     27  C   UNL d   1       1.542   3.913   0.000  0.00  0.00     0.002 C 
ENDBRANCH  25  26
ENDBRANCH   5  25
TORSDOF 5
