REMARK  5 active torsions:
REMARK  status: ('A' for Active; 'I' for Inactive)
REMARK    1  A    between atoms: N_5  and  S_1 
REMARK    2  A    between atoms: C_9  and  S_1 
REMARK    3  A    between atoms: C_6  and  C_2 
REMARK    4  A    between atoms: C_4  and  N_5 
REMARK    5  A    between atoms: O_20  and  C_17 
ROOT
ATOM      1  S   UNL d   1      -0.490   0.854   0.000  0.00  0.00     0.287 S 
ATOM      2  O   UNL d   1       0.138   1.405   0.000  0.00  0.00    -0.198 OA
ATOM      3  O   UNL d   1      -1.124   0.292   0.000  0.00  0.00    -0.198 OA
ENDROOT
BRANCH   1   4
ATOM      4  N   UNL d   1      -1.052   1.482   0.000  0.00  0.00    -0.132 NA
BRANCH   4   5
ATOM      5  C   UNL d   1      -1.868   1.323   0.000  0.00  0.00     0.206 A 
ATOM      6  N   UNL d   1      -2.557   1.829   0.000  0.00  0.00    -0.216 NA
ATOM      7  C   UNL d   1      -3.218   1.323   0.000  0.00  0.00     0.161 A 
ATOM      8  C   UNL d   1      -2.975   0.556   0.000  0.00  0.00     0.061 A 
ATOM      9  S   UNL d   1      -2.160   0.529   0.000  0.00  0.00    -0.046 SA
BRANCH   7  10
ATOM     10  C   UNL d   1      -4.011   1.548   0.000  0.00  0.00     0.436 C 
ATOM     11  F   UNL d   1      -4.821   1.719   0.000  0.00  0.00    -0.165 F 
ATOM     12  F   UNL d   1      -4.232   2.408   0.000  0.00  0.00    -0.165 F 
ATOM     13  F   UNL d   1      -4.557   0.986   0.000  0.00  0.00    -0.165 F 
ENDBRANCH   7  10
ENDBRANCH   4   5
ENDBRANCH   1   4
BRANCH   1  14
ATOM     14  C   UNL d   1       0.066   0.215   0.000  0.00  0.00     0.105 A 
ATOM     15  C   UNL d   1       0.860   0.397   0.000  0.00  0.00     0.015 A 
ATOM     16  C   UNL d   1       1.411  -0.204   0.000  0.00  0.00     0.025 A 
ATOM     17  C   UNL d   1       1.174  -0.997   0.000  0.00  0.00     0.094 A 
ATOM     18  C   UNL d   1       0.380  -1.190   0.000  0.00  0.00     0.025 A 
ATOM     19  C   UNL d   1      -0.176  -0.601   0.000  0.00  0.00     0.015 A 
BRANCH  17  20
ATOM     20  O   UNL d   1       1.725  -1.637   0.000  0.00  0.00    -0.328 OA
ATOM     21  C   UNL d   1       2.551  -1.477   0.000  0.00  0.00     0.181 C 
ENDBRANCH  17  20
ENDBRANCH   1  14
TORSDOF 5
