REMARK  1 active torsions:
REMARK  status: ('A' for Active; 'I' for Inactive)
REMARK    1  A    between atoms: C_7  and  C_1 
ROOT
ATOM      1  C   UNL d   1       1.024   1.190   0.000  0.00  0.00     0.062 A 
ATOM      2  C   UNL d   1       0.614   0.488   0.000  0.00  0.00     0.199 A 
ATOM      3  C   UNL d   1       0.634   1.914   0.000  0.00  0.00     0.103 A 
ATOM      4  C   UNL d   1      -0.228   0.488   0.000  0.00  0.00     0.062 A 
ATOM      5  C   UNL d   1      -0.634   1.190   0.000  0.00  0.00     0.106 A 
ATOM      6  O   UNL d   1      -0.207   1.914   0.000  0.00  0.00    -0.307 OA
ATOM      7  C   UNL d   1      -1.459   1.190   0.000  0.00  0.00     0.067 A 
ATOM      8  C   UNL d   1      -0.634  -0.248   0.000  0.00  0.00     0.009 A 
ATOM      9  O   UNL d   1       1.060  -0.248   0.000  0.00  0.00    -0.286 OA
ATOM     10  C   UNL d   1      -1.865   0.488   0.000  0.00  0.00     0.198 A 
ATOM     11  C   UNL d   1      -1.475  -0.248   0.000  0.00  0.00     0.042 A 
ATOM     12  C   UNL d   1       1.060   2.641   0.000  0.00  0.00     0.027 C 
ATOM     13  O   UNL d   1      -2.702   0.488   0.000  0.00  0.00    -0.286 OA
ENDROOT
BRANCH   1  14
ATOM     14  C   UNL d   1       1.841   1.170   0.000  0.00  0.00     0.005 A 
ATOM     15  C   UNL d   1       2.247   0.451   0.000  0.00  0.00     0.000 A 
ATOM     16  C   UNL d   1       1.820  -0.272   0.000  0.00  0.00     0.000 C 
ATOM     17  C   UNL d   1       3.072   0.435   0.000  0.00  0.00     0.000 A 
ATOM     18  C   UNL d   1       3.478   1.134   0.000  0.00  0.00     0.000 A 
ATOM     19  C   UNL d   1       3.108   1.853   0.000  0.00  0.00     0.000 A 
ATOM     20  C   UNL d   1       2.272   1.873   0.000  0.00  0.00     0.000 A 
ENDBRANCH   1  14
TORSDOF 1
