REMARK  3 active torsions:
REMARK  status: ('A' for Active; 'I' for Inactive)
REMARK       I    between atoms: C_4  and  N_1 
REMARK    1  A    between atoms: N_3  and  C_2 
REMARK    2  A    between atoms: C_9  and  C_4 
REMARK    3  A    between atoms: N_10  and  C_5 
ROOT
ATOM      1  C   UNL d   1      -2.498  -0.629   0.000  0.00  0.00     0.143 A 
ATOM      2  C   UNL d   1      -2.923   0.106   0.000  0.00  0.00     0.086 A 
ATOM      3  C   UNL d   1      -1.662  -0.593   0.000  0.00  0.00     0.030 A 
ATOM      4  C   UNL d   1      -1.284   0.138   0.000  0.00  0.00     0.058 A 
ATOM      5  C   UNL d   1      -2.518   0.813   0.000  0.00  0.00     0.019 A 
ATOM      6  C   UNL d   1      -1.697   0.821   0.000  0.00  0.00     0.006 A 
ENDROOT
BRANCH   4   7
ATOM      7  C   UNL d   1      -0.456   0.138   0.000  0.00  0.00     0.265 C 
ATOM      8  N   UNL d   1      -0.059   0.880   0.000  0.00  0.00    -0.275 N 
ATOM      9  C   UNL d   1       0.758   0.990   0.000  0.00  0.00     0.067 A 
ATOM     10  C   UNL d   1      -0.424   1.622   0.000  0.00  0.00     0.067 A 
ATOM     11  C   UNL d   1       0.896   1.776   0.000  0.00  0.00     0.019 A 
ATOM     12  C   UNL d   1       1.630   0.373   0.000  0.00  0.00     0.019 C 
ATOM     13  C   UNL d   1       0.177   2.188   0.000  0.00  0.00     0.018 A 
ATOM     14  C   UNL d   1      -0.020   2.989   0.000  0.00  0.00     0.002 A 
ATOM     15  C   UNL d   1      -0.801   3.205   0.000  0.00  0.00     0.000 A 
ATOM     16  C   UNL d   1      -1.398   2.652   0.000  0.00  0.00     0.002 A 
ATOM     17  C   UNL d   1      -1.210   1.850   0.000  0.00  0.00     0.018 A 
ATOM     18  O   UNL d   1      -0.012  -0.566   0.000  0.00  0.00    -0.267 OA
ENDBRANCH   4   7
BRANCH   1  19
ATOM     19  N   UNL d   1      -2.907  -1.355   0.000  0.00  0.00    -0.112 N 
ATOM     20  O   UNL d   1      -3.755  -1.367   0.000  0.00  0.00    -0.532 OA
ATOM     21  O   UNL d   1      -2.494  -2.074   0.000  0.00  0.00    -0.532 OA
ENDBRANCH   1  19
BRANCH   2  22
ATOM     22  N   UNL d   1      -3.755   0.094   0.000  0.00  0.00    -0.302 N 
ATOM     23  C   UNL d   1      -4.191  -0.629   0.000  0.00  0.00     0.080 A 
ATOM     24  C   UNL d   1      -5.016  -0.617   0.000  0.00  0.00     0.019 A 
ATOM     25  C   UNL d   1      -5.421   0.094   0.000  0.00  0.00     0.003 A 
ATOM     26  C   UNL d   1      -5.016   0.821   0.000  0.00  0.00     0.019 A 
ATOM     27  C   UNL d   1      -4.191   0.813   0.000  0.00  0.00     0.080 A 
ENDBRANCH   2  22
TORSDOF 3
