REMARK  2 active torsions:
REMARK  status: ('A' for Active; 'I' for Inactive)
REMARK    1  A    between atoms: C_8  and  C_1 
REMARK    2  A    between atoms: C_7  and  C_2 
ROOT
ATOM      1  C   UNL d   1       0.858   1.150   0.000  0.00  0.00     0.066 A 
ATOM      2  C   UNL d   1       0.450   1.866   0.000  0.00  0.00     0.174 A 
ATOM      3  C   UNL d   1       0.450   0.427   0.000  0.00  0.00     0.199 A 
ATOM      4  O   UNL d   1      -0.381   1.866   0.000  0.00  0.00    -0.303 OA
ATOM      5  C   UNL d   1      -0.381   0.446   0.000  0.00  0.00     0.062 A 
ATOM      6  C   UNL d   1      -0.785   1.150   0.000  0.00  0.00     0.106 A 
ATOM      7  C   UNL d   1      -1.616   1.166   0.000  0.00  0.00     0.067 A 
ATOM      8  C   UNL d   1      -0.804  -0.277   0.000  0.00  0.00     0.009 A 
ATOM      9  O   UNL d   1       0.877  -0.292   0.000  0.00  0.00    -0.286 OA
ATOM     10  C   UNL d   1      -2.027   0.446   0.000  0.00  0.00     0.198 A 
ATOM     11  C   UNL d   1      -1.616  -0.277   0.000  0.00  0.00     0.042 A 
ATOM     12  O   UNL d   1      -2.835   0.462   0.000  0.00  0.00    -0.286 OA
ENDROOT
BRANCH   1  13
ATOM     13  C   UNL d   1       1.666   1.127   0.000  0.00  0.00     0.005 A 
ATOM     14  C   UNL d   1       2.077   0.427   0.000  0.00  0.00     0.000 A 
ATOM     15  C   UNL d   1       1.708  -0.304   0.000  0.00  0.00     0.000 C 
ATOM     16  C   UNL d   1       2.908   0.412   0.000  0.00  0.00     0.000 A 
ATOM     17  C   UNL d   1       3.312   1.127   0.000  0.00  0.00     0.000 A 
ATOM     18  C   UNL d   1       2.908   1.846   0.000  0.00  0.00     0.000 A 
ATOM     19  C   UNL d   1       2.093   1.846   0.000  0.00  0.00     0.000 A 
ENDBRANCH   1  13
BRANCH   2  20
ATOM     20  C   UNL d   1       0.866   2.581   0.000  0.00  0.00     0.440 C 
ATOM     21  F   UNL d   1       0.442   3.227   0.000  0.00  0.00    -0.164 F 
ATOM     22  F   UNL d   1       1.227   3.320   0.000  0.00  0.00    -0.164 F 
ATOM     23  F   UNL d   1       1.754   2.585   0.000  0.00  0.00    -0.164 F 
ENDBRANCH   2  20
TORSDOF 2
