REMARK  3 active torsions:
REMARK  status: ('A' for Active; 'I' for Inactive)
REMARK    1  A    between atoms: C_4  and  C_1 
REMARK    2  A    between atoms: C_8  and  C_3 
REMARK    3  A    between atoms: O_20  and  C_16 
ROOT
ATOM      1  C   UNL d   1      -1.193  -0.733   0.000  0.00  0.00     0.107 A 
ATOM      2  N   UNL d   1      -1.003  -1.536   0.000  0.00  0.00    -0.148 NA
ATOM      3  C   UNL d   1      -0.492  -0.310   0.000  0.00  0.00     0.039 A 
ATOM      4  N   UNL d   1      -0.175  -1.609   0.000  0.00  0.00    -0.148 NA
ATOM      5  C   UNL d   1       0.157  -0.857   0.000  0.00  0.00     0.104 A 
ATOM      6  C   UNL d   1       0.963  -0.682   0.000  0.00  0.00     0.023 C 
ENDROOT
BRANCH   1   7
ATOM      7  C   UNL d   1      -1.966  -0.452   0.000  0.00  0.00     0.059 A 
ATOM      8  C   UNL d   1      -2.594  -0.978   0.000  0.00  0.00     0.200 A 
ATOM      9  C   UNL d   1      -3.367  -0.700   0.000  0.00  0.00     0.084 A 
ATOM     10  O   UNL d   1      -2.451  -1.820   0.000  0.00  0.00    -0.286 OA
ATOM     11  C   UNL d   1      -3.502   0.128   0.000  0.00  0.00     0.199 A 
ATOM     12  C   UNL d   1      -2.875   0.653   0.000  0.00  0.00     0.042 A 
ATOM     13  O   UNL d   1      -4.297   0.438   0.000  0.00  0.00    -0.286 OA
ATOM     14  C   UNL d   1      -2.101   0.350   0.000  0.00  0.00     0.008 A 
ENDBRANCH   1   7
BRANCH   3  15
ATOM     15  C   UNL d   1      -0.511   0.543   0.000  0.00  0.00     0.003 A 
ATOM     16  C   UNL d   1      -1.226   0.949   0.000  0.00  0.00     0.002 A 
ATOM     17  C   UNL d   1      -1.226   1.791   0.000  0.00  0.00     0.024 A 
ATOM     18  C   UNL d   1      -0.511   2.189   0.000  0.00  0.00     0.094 A 
ATOM     19  C   UNL d   1       0.223   1.791   0.000  0.00  0.00     0.024 A 
ATOM     20  C   UNL d   1       0.223   0.949   0.000  0.00  0.00     0.002 A 
BRANCH  18  21
ATOM     21  O   UNL d   1      -0.511   3.032   0.000  0.00  0.00    -0.328 OA
ATOM     22  C   UNL d   1       0.223   3.433   0.000  0.00  0.00     0.181 C 
ENDBRANCH  18  21
ENDBRANCH   3  15
TORSDOF 3
