REMARK  5 active torsions:
REMARK  status: ('A' for Active; 'I' for Inactive)
REMARK    1  A    between atoms: C_5  and  C_1 
REMARK    2  A    between atoms: O_8  and  C_2 
REMARK    3  A    between atoms: C_20  and  O_8 
REMARK    4  A    between atoms: C_11  and  O_14 
REMARK    5  A    between atoms: O_14  and  C_13 
ROOT
ATOM      1  C   UNL d   1      -0.243   1.387   0.000  0.00  0.00     0.197 A 
ATOM      2  C   UNL d   1       0.185   0.680   0.000  0.00  0.00     0.165 A 
ATOM      3  O   UNL d   1      -1.051   1.364   0.000  0.00  0.00    -0.301 OA
ATOM      4  C   UNL d   1      -0.205  -0.046   0.000  0.00  0.00     0.222 A 
ATOM      5  C   UNL d   1      -1.449   0.645   0.000  0.00  0.00     0.105 A 
ATOM      6  C   UNL d   1      -1.020  -0.062   0.000  0.00  0.00     0.064 A 
ATOM      7  C   UNL d   1      -2.272   0.622   0.000  0.00  0.00     0.050 A 
ATOM      8  C   UNL d   1      -1.422  -0.788   0.000  0.00  0.00     0.007 A 
ATOM      9  O   UNL d   1       0.220  -0.746   0.000  0.00  0.00    -0.284 OA
ATOM     10  C   UNL d   1      -2.662  -0.085   0.000  0.00  0.00     0.105 A 
ATOM     11  C   UNL d   1      -2.237  -0.792   0.000  0.00  0.00     0.025 A 
ENDROOT
BRANCH   2  12
ATOM     12  O   UNL d   1       1.020   0.680   0.000  0.00  0.00    -0.302 OA
BRANCH  12  13
ATOM     13  C   UNL d   1       1.441  -0.027   0.000  0.00  0.00     0.100 A 
ATOM     14  C   UNL d   1       1.047  -0.746   0.000  0.00  0.00     0.025 A 
ATOM     15  C   UNL d   1       1.472  -1.453   0.000  0.00  0.00     0.002 A 
ATOM     16  C   UNL d   1       2.299  -1.437   0.000  0.00  0.00     0.000 A 
ATOM     17  C   UNL d   1       2.705  -0.711   0.000  0.00  0.00     0.002 A 
ATOM     18  C   UNL d   1       2.276  -0.004   0.000  0.00  0.00     0.025 A 
ENDBRANCH  12  13
ENDBRANCH   2  12
BRANCH   1  19
ATOM     19  C   UNL d   1       0.139   2.106   0.000  0.00  0.00     0.442 C 
ATOM     20  F   UNL d   1       0.452   2.859   0.000  0.00  0.00    -0.164 F 
ATOM     21  F   UNL d   1       1.020   2.175   0.000  0.00  0.00    -0.164 F 
ATOM     22  F   UNL d   1      -0.321   2.720   0.000  0.00  0.00    -0.164 F 
ENDBRANCH   1  19
BRANCH  10  23
ATOM     23  O   UNL d   1      -3.520  -0.097   0.000  0.00  0.00    -0.273 OA
BRANCH  23  24
ATOM     24  C   UNL d   1      -3.914  -0.823   0.000  0.00  0.00     0.300 C 
ATOM     25  O   UNL d   1      -3.474  -1.546   0.000  0.00  0.00    -0.259 OA
ATOM     26  C   UNL d   1      -4.729  -0.839   0.000  0.00  0.00     0.074 C 
ENDBRANCH  23  24
ENDBRANCH  10  23
TORSDOF 5
