REMARK  6 active torsions:
REMARK  status: ('A' for Active; 'I' for Inactive)
REMARK    1  A    between atoms: C_7  and  C_1 
REMARK    2  A    between atoms: O_11  and  C_2 
REMARK    3  A    between atoms: O_13  and  C_10 
REMARK    4  A    between atoms: C_20  and  O_11 
REMARK    5  A    between atoms: C_21  and  C_12 
REMARK    6  A    between atoms: C_14  and  O_13 
ROOT
ATOM      1  C   UNL d   1      -0.239   1.313   0.000  0.00  0.00     0.197 A 
ATOM      2  C   UNL d   1       0.196   0.587   0.000  0.00  0.00     0.165 A 
ATOM      3  O   UNL d   1      -1.066   1.294   0.000  0.00  0.00    -0.301 OA
ATOM      4  C   UNL d   1      -0.224  -0.124   0.000  0.00  0.00     0.222 A 
ATOM      5  C   UNL d   1      -1.050  -0.144   0.000  0.00  0.00     0.064 A 
ATOM      6  C   UNL d   1      -1.469   0.587   0.000  0.00  0.00     0.105 A 
ATOM      7  C   UNL d   1      -1.449  -0.850   0.000  0.00  0.00     0.007 A 
ATOM      8  C   UNL d   1      -2.296   0.571   0.000  0.00  0.00     0.050 A 
ATOM      9  C   UNL d   1      -2.695  -0.144   0.000  0.00  0.00     0.105 A 
ATOM     10  C   UNL d   1      -2.272  -0.866   0.000  0.00  0.00     0.023 A 
ATOM     11  O   UNL d   1       0.220  -0.850   0.000  0.00  0.00    -0.284 OA
ENDROOT
BRANCH   2  12
ATOM     12  O   UNL d   1       1.022   0.587   0.000  0.00  0.00    -0.302 OA
BRANCH  12  13
ATOM     13  C   UNL d   1       1.425  -0.124   0.000  0.00  0.00     0.100 A 
ATOM     14  C   UNL d   1       1.022  -0.850   0.000  0.00  0.00     0.025 A 
ATOM     15  C   UNL d   1       1.441  -1.537   0.000  0.00  0.00     0.002 A 
ATOM     16  C   UNL d   1       2.268  -1.537   0.000  0.00  0.00     0.000 A 
ATOM     17  C   UNL d   1       2.651  -0.830   0.000  0.00  0.00     0.002 A 
ATOM     18  C   UNL d   1       2.252  -0.124   0.000  0.00  0.00     0.025 A 
ENDBRANCH  12  13
ENDBRANCH   2  12
BRANCH   1  19
ATOM     19  C   UNL d   1       0.144   2.044   0.000  0.00  0.00     0.442 C 
ATOM     20  F   UNL d   1       0.527   2.791   0.000  0.00  0.00    -0.164 F 
ATOM     21  F   UNL d   1       0.890   1.661   0.000  0.00  0.00    -0.164 F 
ATOM     22  F   UNL d   1      -0.607   2.427   0.000  0.00  0.00    -0.164 F 
ENDBRANCH   1  19
BRANCH  10  23
ATOM     23  C   UNL d   1      -2.655  -1.597   0.000  0.00  0.00     0.002 C 
ATOM     24  C   UNL d   1      -2.284  -2.184   0.000  0.00  0.00     0.000 C 
ENDBRANCH  10  23
BRANCH   9  25
ATOM     25  O   UNL d   1      -3.517  -0.144   0.000  0.00  0.00    -0.273 OA
BRANCH  25  26
ATOM     26  C   UNL d   1      -3.940  -0.850   0.000  0.00  0.00     0.300 C 
ATOM     27  O   UNL d   1      -3.541  -1.581   0.000  0.00  0.00    -0.259 OA
ATOM     28  C   UNL d   1      -4.751  -0.850   0.000  0.00  0.00     0.074 C 
ENDBRANCH  25  26
ENDBRANCH   9  25
TORSDOF 6
