REMARK  3 active torsions:
REMARK  status: ('A' for Active; 'I' for Inactive)
REMARK    1  A    between atoms: S_4  and  C_1 
REMARK    2  A    between atoms: N_2  and  C_5 
REMARK    3  A    between atoms: C_9  and  S_4 
ROOT
ATOM      1  C   UNL d   1      -4.486  -2.035   0.000  0.00  0.00     0.133 A 
ATOM      2  C   UNL d   1      -3.853  -1.469   0.000  0.00  0.00     0.051 A 
ATOM      3  C   UNL d   1      -5.267  -1.713   0.000  0.00  0.00     0.024 A 
ATOM      4  C   UNL d   1      -4.009  -0.671   0.000  0.00  0.00     0.008 A 
ATOM      5  C   UNL d   1      -5.389  -0.915   0.000  0.00  0.00     0.002 A 
ATOM      6  C   UNL d   1      -4.785  -0.383   0.000  0.00  0.00     0.001 A 
ENDROOT
BRANCH   2   7
ATOM      7  S   UNL d   1      -3.055  -1.713   0.000  0.00  0.00    -0.082 SA
BRANCH   7   8
ATOM      8  C   UNL d   1      -2.462  -1.153   0.000  0.00  0.00     0.068 A 
ATOM      9  C   UNL d   1      -1.641  -1.203   0.000  0.00  0.00     0.110 A 
ATOM     10  N   UNL d   1      -1.347  -0.466   0.000  0.00  0.00    -0.147 NA
ATOM     11  C   UNL d   1      -1.214  -1.929   0.000  0.00  0.00     0.023 C 
ATOM     12  N   UNL d   1      -1.929   0.067   0.000  0.00  0.00    -0.147 NA
ATOM     13  C   UNL d   1      -2.656  -0.355   0.000  0.00  0.00     0.110 A 
ATOM     14  C   UNL d   1      -3.421  -0.039   0.000  0.00  0.00     0.023 C 
ENDBRANCH   7   8
ENDBRANCH   2   7
BRANCH   1  15
ATOM     15  N   UNL d   1      -4.386  -2.861   0.000  0.00  0.00    -0.113 N 
ATOM     16  O   UNL d   1      -5.018  -3.332   0.000  0.00  0.00    -0.532 OA
ATOM     17  O   UNL d   1      -3.610  -3.177   0.000  0.00  0.00    -0.532 OA
ENDBRANCH   1  15
TORSDOF 3
