REMARK  5 active torsions:
REMARK  status: ('A' for Active; 'I' for Inactive)
REMARK    1  A    between atoms: C_5  and  N_1 
REMARK    2  A    between atoms: C_8  and  C_3 
REMARK    3  A    between atoms: C_7  and  C_4 
REMARK    4  A    between atoms: N_12  and  C_5 
REMARK    5  A    between atoms: N_11  and  C_10 
ROOT
ATOM      1  N   UNL d   1      -0.756  -0.016   0.000  0.00  0.00    -0.203 N 
ATOM      2  N   UNL d   1      -1.570  -0.016   0.000  0.00  0.00    -0.163 NA
ATOM      3  C   UNL d   1      -1.838   0.740   0.000  0.00  0.00     0.103 A 
ATOM      4  C   UNL d   1      -0.492   0.775   0.000  0.00  0.00     0.087 A 
ATOM      5  C   UNL d   1      -1.177   1.248   0.000  0.00  0.00     0.040 A 
ENDROOT
BRANCH   4   6
ATOM      6  C   UNL d   1       0.283   1.059   0.000  0.00  0.00     0.018 A 
ATOM      7  C   UNL d   1       0.901   0.551   0.000  0.00  0.00     0.003 A 
ATOM      8  C   UNL d   1       1.681   0.834   0.000  0.00  0.00     0.018 A 
ATOM      9  C   UNL d   1       1.810   1.649   0.000  0.00  0.00     0.064 A 
ATOM     10  C   UNL d   1       1.185   2.173   0.000  0.00  0.00     0.018 A 
ATOM     11  C   UNL d   1       0.413   1.873   0.000  0.00  0.00     0.003 A 
BRANCH   9  12
ATOM     12  N   UNL d   1       2.566   1.932   0.000  0.00  0.00    -0.301 N 
ATOM     13  C   UNL d   1       3.180   1.413   0.000  0.00  0.00     0.100 C 
ATOM     14  C   UNL d   1       2.696   2.735   0.000  0.00  0.00     0.100 C 
ENDBRANCH   9  12
ENDBRANCH   4   6
BRANCH   1  15
ATOM     15  C   UNL d   1      -0.268  -0.697   0.000  0.00  0.00     0.222 C 
ATOM     16  S   UNL d   1      -0.626  -1.452   0.000  0.00  0.00    -0.037 SA
BRANCH  15  17
ATOM     17  N   UNL d   1       0.567  -0.618   0.000  0.00  0.00    -0.214 NA
ATOM     18  C   UNL d   1       0.925   0.138   0.000  0.00  0.00     0.122 C 
ENDBRANCH  15  17
ENDBRANCH   1  15
BRANCH   3  19
ATOM     19  C   UNL d   1      -2.629   0.945   0.000  0.00  0.00     0.019 A 
ATOM     20  C   UNL d   1      -3.196   0.342   0.000  0.00  0.00     0.002 A 
ATOM     21  C   UNL d   1      -3.987   0.531   0.000  0.00  0.00     0.000 A 
ATOM     22  C   UNL d   1      -4.223   1.322   0.000  0.00  0.00     0.000 A 
ATOM     23  C   UNL d   1      -3.648   1.932   0.000  0.00  0.00     0.000 A 
ATOM     24  C   UNL d   1      -5.026   1.511   0.000  0.00  0.00     0.000 C 
ATOM     25  C   UNL d   1      -2.853   1.720   0.000  0.00  0.00     0.002 A 
ENDBRANCH   3  19
TORSDOF 5
