REMARK  6 active torsions:
REMARK  status: ('A' for Active; 'I' for Inactive)
REMARK    1  A    between atoms: C_5  and  N_1 
REMARK    2  A    between atoms: C_7  and  C_3 
REMARK    3  A    between atoms: C_12  and  C_4 
REMARK    4  A    between atoms: N_14  and  C_5 
REMARK    5  A    between atoms: O_16  and  C_9 
REMARK    6  A    between atoms: O_17  and  C_11 
ROOT
ATOM      1  N   UNL d   1      -0.666   0.043   0.000  0.00  0.00    -0.203 N 
ATOM      2  N   UNL d   1      -1.493   0.043   0.000  0.00  0.00    -0.163 NA
ATOM      3  C   UNL d   1      -0.421   0.826   0.000  0.00  0.00     0.087 A 
ATOM      4  C   UNL d   1      -1.750   0.807   0.000  0.00  0.00     0.103 A 
ATOM      5  C   UNL d   1      -1.095   1.294   0.000  0.00  0.00     0.040 A 
ENDROOT
BRANCH   3   6
ATOM      6  C   UNL d   1       0.362   1.107   0.000  0.00  0.00     0.020 A 
ATOM      7  C   UNL d   1       0.998   0.604   0.000  0.00  0.00     0.028 A 
ATOM      8  C   UNL d   1       1.766   0.885   0.000  0.00  0.00     0.116 A 
ATOM      9  C   UNL d   1       1.898   1.684   0.000  0.00  0.00     0.116 A 
ATOM     10  C   UNL d   1       1.263   2.210   0.000  0.00  0.00     0.026 A 
ATOM     11  C   UNL d   1       0.495   1.929   0.000  0.00  0.00     0.004 A 
BRANCH   8  12
ATOM     12  O   UNL d   1       2.421   0.374   0.000  0.00  0.00    -0.326 OA
ATOM     13  C   UNL d   1       2.308  -0.448   0.000  0.00  0.00     0.181 C 
ENDBRANCH   8  12
BRANCH   9  14
ATOM     14  O   UNL d   1       2.682   1.984   0.000  0.00  0.00    -0.326 OA
ATOM     15  C   UNL d   1       2.834   2.791   0.000  0.00  0.00     0.181 C 
ENDBRANCH   9  14
ENDBRANCH   3   6
BRANCH   1  16
ATOM     16  C   UNL d   1      -0.183  -0.635   0.000  0.00  0.00     0.222 C 
ATOM     17  S   UNL d   1      -0.514  -1.403   0.000  0.00  0.00    -0.037 SA
BRANCH  16  18
ATOM     18  N   UNL d   1       0.659  -0.561   0.000  0.00  0.00    -0.214 NA
ATOM     19  C   UNL d   1       0.998   0.207   0.000  0.00  0.00     0.122 C 
ENDBRANCH  16  18
ENDBRANCH   1  16
BRANCH   4  20
ATOM     20  C   UNL d   1      -2.557   1.013   0.000  0.00  0.00     0.019 A 
ATOM     21  C   UNL d   1      -2.779   1.797   0.000  0.00  0.00     0.002 A 
ATOM     22  C   UNL d   1      -3.586   2.023   0.000  0.00  0.00     0.000 A 
ATOM     23  C   UNL d   1      -4.171   1.423   0.000  0.00  0.00     0.000 A 
ATOM     24  C   UNL d   1      -3.925   0.620   0.000  0.00  0.00     0.000 A 
ATOM     25  C   UNL d   1      -3.134   0.417   0.000  0.00  0.00     0.002 A 
ENDBRANCH   4  20
TORSDOF 6
