REMARK  4 active torsions:
REMARK  status: ('A' for Active; 'I' for Inactive)
REMARK    1  A    between atoms: C_5  and  N_1 
REMARK    2  A    between atoms: C_9  and  C_3 
REMARK    3  A    between atoms: C_7  and  C_4 
REMARK    4  A    between atoms: N_10  and  C_5 
ROOT
ATOM      1  N   UNL d   1      -0.915   0.387   0.000  0.00  0.00    -0.203 N 
ATOM      2  N   UNL d   1      -1.743   0.387   0.000  0.00  0.00    -0.163 NA
ATOM      3  C   UNL d   1      -2.019   1.145   0.000  0.00  0.00     0.103 A 
ATOM      4  C   UNL d   1      -0.655   1.180   0.000  0.00  0.00     0.087 A 
ATOM      5  C   UNL d   1      -1.333   1.655   0.000  0.00  0.00     0.040 A 
ENDROOT
BRANCH   4   6
ATOM      6  C   UNL d   1       0.119   1.471   0.000  0.00  0.00     0.018 A 
ATOM      7  C   UNL d   1       0.762   0.962   0.000  0.00  0.00     0.002 A 
ATOM      8  C   UNL d   1       1.532   1.253   0.000  0.00  0.00     0.007 A 
ATOM      9  C   UNL d   1       1.659   2.065   0.000  0.00  0.00     0.035 A 
ATOM     10  C   UNL d   1       1.038   2.574   0.000  0.00  0.00     0.007 A 
ATOM     11 BR   UNL d   1       2.452   2.341   0.000  0.00  0.00    -0.049 Br
ATOM     12  C   UNL d   1       0.264   2.283   0.000  0.00  0.00     0.002 A 
ENDBRANCH   4   6
BRANCH   1  13
ATOM     13  C   UNL d   1      -0.414  -0.291   0.000  0.00  0.00     0.222 C 
ATOM     14  S   UNL d   1      -0.766  -1.061   0.000  0.00  0.00    -0.037 SA
BRANCH  13  15
ATOM     15  N   UNL d   1       0.429  -0.218   0.000  0.00  0.00    -0.214 NA
ATOM     16  C   UNL d   1       0.781   0.536   0.000  0.00  0.00     0.122 C 
ENDBRANCH  13  15
ENDBRANCH   1  13
BRANCH   3  17
ATOM     17  C   UNL d   1      -2.823   1.364   0.000  0.00  0.00     0.019 A 
ATOM     18  C   UNL d   1      -3.045   2.157   0.000  0.00  0.00     0.002 A 
ATOM     19  C   UNL d   1      -3.857   2.356   0.000  0.00  0.00     0.000 A 
ATOM     20  C   UNL d   1      -4.424   1.766   0.000  0.00  0.00     0.000 A 
ATOM     21  C   UNL d   1      -4.183   0.977   0.000  0.00  0.00     0.000 A 
ATOM     22  C   UNL d   1      -3.398   0.778   0.000  0.00  0.00     0.002 A 
ENDBRANCH   3  17
TORSDOF 4
