REMARK  5 active torsions:
REMARK  status: ('A' for Active; 'I' for Inactive)
REMARK    1  A    between atoms: C_5  and  N_1 
REMARK    2  A    between atoms: C_7  and  C_3 
REMARK    3  A    between atoms: C_8  and  C_4 
REMARK    4  A    between atoms: N_10  and  C_5 
REMARK    5  A    between atoms: O_21  and  C_15 
ROOT
ATOM      1  N   UNL d   1      -0.915   0.387   0.000  0.00  0.00    -0.203 N 
ATOM      2  N   UNL d   1      -1.743   0.387   0.000  0.00  0.00    -0.163 NA
ATOM      3  C   UNL d   1      -2.018   1.145   0.000  0.00  0.00     0.103 A 
ATOM      4  C   UNL d   1      -0.655   1.180   0.000  0.00  0.00     0.087 A 
ATOM      5  C   UNL d   1      -1.333   1.655   0.000  0.00  0.00     0.040 A 
ENDROOT
BRANCH   4   6
ATOM      6  C   UNL d   1       0.119   1.471   0.000  0.00  0.00     0.018 A 
ATOM      7  C   UNL d   1       0.762   0.961   0.000  0.00  0.00     0.004 A 
ATOM      8  C   UNL d   1       1.532   1.252   0.000  0.00  0.00     0.024 A 
ATOM      9  C   UNL d   1       1.658   2.064   0.000  0.00  0.00     0.094 A 
ATOM     10  C   UNL d   1       1.038   2.574   0.000  0.00  0.00     0.024 A 
ATOM     11  C   UNL d   1       0.264   2.283   0.000  0.00  0.00     0.004 A 
BRANCH   9  12
ATOM     12  O   UNL d   1       2.451   2.340   0.000  0.00  0.00    -0.328 OA
ATOM     13  C   UNL d   1       2.620   3.167   0.000  0.00  0.00     0.181 C 
ENDBRANCH   9  12
ENDBRANCH   4   6
BRANCH   1  14
ATOM     14  C   UNL d   1      -0.414  -0.291   0.000  0.00  0.00     0.222 C 
ATOM     15  S   UNL d   1      -0.766  -1.061   0.000  0.00  0.00    -0.037 SA
BRANCH  14  16
ATOM     16  N   UNL d   1       0.429  -0.218   0.000  0.00  0.00    -0.214 NA
ATOM     17  C   UNL d   1       0.781   0.536   0.000  0.00  0.00     0.122 C 
ENDBRANCH  14  16
ENDBRANCH   1  14
BRANCH   3  18
ATOM     18  C   UNL d   1      -2.823   1.363   0.000  0.00  0.00     0.019 A 
ATOM     19  C   UNL d   1      -3.045   2.156   0.000  0.00  0.00     0.002 A 
ATOM     20  C   UNL d   1      -3.857   2.355   0.000  0.00  0.00     0.000 A 
ATOM     21  C   UNL d   1      -4.423   1.766   0.000  0.00  0.00     0.000 A 
ATOM     22  C   UNL d   1      -4.182   0.977   0.000  0.00  0.00     0.000 A 
ATOM     23  C   UNL d   1      -5.396   2.172   0.000  0.00  0.00     0.000 C 
ATOM     24  C   UNL d   1      -3.397   0.777   0.000  0.00  0.00     0.002 A 
ENDBRANCH   3  18
TORSDOF 5
