REMARK  5 active torsions:
REMARK  status: ('A' for Active; 'I' for Inactive)
REMARK    1  A    between atoms: C_6  and  N_1 
REMARK    2  A    between atoms: C_5  and  C_3 
REMARK    3  A    between atoms: C_11  and  C_4 
REMARK    4  A    between atoms: N_13  and  C_6 
REMARK    5  A    between atoms: O_23  and  C_19 
ROOT
ATOM      1  N   UNL d   1      -0.664  -0.028   0.000  0.00  0.00    -0.203 N 
ATOM      2  N   UNL d   1      -1.503  -0.053   0.000  0.00  0.00    -0.163 NA
ATOM      3  C   UNL d   1      -0.409   0.741   0.000  0.00  0.00     0.088 A 
ATOM      4  C   UNL d   1      -1.750   0.725   0.000  0.00  0.00     0.103 A 
ATOM      5  C   UNL d   1      -1.090   1.211   0.000  0.00  0.00     0.040 A 
ENDROOT
BRANCH   3   6
ATOM      6  C   UNL d   1       0.344   1.017   0.000  0.00  0.00     0.029 A 
ATOM      7  C   UNL d   1       0.486   1.831   0.000  0.00  0.00     0.060 A 
ATOM      8  C   UNL d   1       1.244   2.103   0.000  0.00  0.00     0.023 A 
ATOM      9 CL   UNL d   1      -0.158   2.354   0.000  0.00  0.00    -0.082 Cl
ATOM     10  C   UNL d   1       1.884   1.576   0.000  0.00  0.00     0.059 A 
ATOM     11  C   UNL d   1       1.750   0.798   0.000  0.00  0.00     0.011 A 
ATOM     12 CL   UNL d   1       2.662   1.847   0.000  0.00  0.00    -0.082 Cl
ATOM     13  C   UNL d   1       0.972   0.506   0.000  0.00  0.00     0.003 A 
ENDBRANCH   3   6
BRANCH   1  14
ATOM     14  C   UNL d   1      -0.178  -0.717   0.000  0.00  0.00     0.222 C 
ATOM     15  S   UNL d   1      -0.531  -1.475   0.000  0.00  0.00    -0.037 SA
BRANCH  14  16
ATOM     16  N   UNL d   1       0.636  -0.636   0.000  0.00  0.00    -0.214 NA
ATOM     17  C   UNL d   1       0.989   0.117   0.000  0.00  0.00     0.122 C 
ENDBRANCH  14  16
ENDBRANCH   1  14
BRANCH   4  18
ATOM     18  C   UNL d   1      -2.528   0.936   0.000  0.00  0.00     0.019 A 
ATOM     19  C   UNL d   1      -3.111   0.352   0.000  0.00  0.00     0.004 A 
ATOM     20  C   UNL d   1      -3.909   0.547   0.000  0.00  0.00     0.024 A 
ATOM     21  C   UNL d   1      -4.128   1.361   0.000  0.00  0.00     0.094 A 
ATOM     22  C   UNL d   1      -3.545   1.944   0.000  0.00  0.00     0.024 A 
ATOM     23  C   UNL d   1      -2.743   1.734   0.000  0.00  0.00     0.004 A 
BRANCH  21  24
ATOM     24  O   UNL d   1      -4.942   1.576   0.000  0.00  0.00    -0.328 OA
ATOM     25  C   UNL d   1      -5.526   0.993   0.000  0.00  0.00     0.181 C 
ENDBRANCH  21  24
ENDBRANCH   4  18
TORSDOF 5
