REMARK  4 active torsions:
REMARK  status: ('A' for Active; 'I' for Inactive)
REMARK    1  A    between atoms: C_5  and  N_1 
REMARK    2  A    between atoms: C_7  and  C_3 
REMARK    3  A    between atoms: C_10  and  C_4 
REMARK    4  A    between atoms: N_11  and  C_5 
ROOT
ATOM      1  N   UNL d   1       2.812  -1.290   0.000  0.00  0.00    -0.203 N 
ATOM      2  N   UNL d   1       1.984  -1.236   0.000  0.00  0.00    -0.163 NA
ATOM      3  C   UNL d   1       3.124  -0.528   0.000  0.00  0.00     0.088 A 
ATOM      4  C   UNL d   1       1.785  -0.424   0.000  0.00  0.00     0.103 A 
ATOM      5  C   UNL d   1       2.488   0.008   0.000  0.00  0.00     0.040 A 
ENDROOT
BRANCH   3   6
ATOM      6  C   UNL d   1       3.919  -0.291   0.000  0.00  0.00     0.028 A 
ATOM      7  C   UNL d   1       4.510  -0.853   0.000  0.00  0.00     0.059 A 
ATOM      8 CL   UNL d   1       4.360  -1.310   0.000  0.00  0.00    -0.082 Cl
ATOM      9  C   UNL d   1       5.305  -0.624   0.000  0.00  0.00     0.011 A 
ATOM     10  C   UNL d   1       5.504   0.171   0.000  0.00  0.00     0.001 A 
ATOM     11  C   UNL d   1       4.893   0.732   0.000  0.00  0.00     0.000 A 
ATOM     12  C   UNL d   1       4.119   0.495   0.000  0.00  0.00     0.002 A 
ENDBRANCH   3   6
BRANCH   1  13
ATOM     13  C   UNL d   1       3.249  -2.014   0.000  0.00  0.00     0.222 C 
ATOM     14  S   UNL d   1       2.833  -2.733   0.000  0.00  0.00    -0.037 SA
BRANCH  13  15
ATOM     15  N   UNL d   1       4.081  -1.997   0.000  0.00  0.00    -0.214 NA
ATOM     16  C   UNL d   1       4.510  -2.721   0.000  0.00  0.00     0.122 C 
ENDBRANCH  13  15
ENDBRANCH   1  13
BRANCH   4  17
ATOM     17  C   UNL d   1       1.028  -0.129   0.000  0.00  0.00     0.019 A 
ATOM     18  C   UNL d   1       0.391  -0.653   0.000  0.00  0.00     0.002 A 
ATOM     19  C   UNL d   1      -0.383  -0.366   0.000  0.00  0.00     0.000 A 
ATOM     20  C   UNL d   1      -0.524   0.445   0.000  0.00  0.00     0.000 A 
ATOM     21  C   UNL d   1       0.104   0.969   0.000  0.00  0.00     0.000 A 
ATOM     22  C   UNL d   1       0.878   0.682   0.000  0.00  0.00     0.002 A 
ENDBRANCH   4  17
TORSDOF 4
