REMARK  5 active torsions:
REMARK  status: ('A' for Active; 'I' for Inactive)
REMARK    1  A    between atoms: C_5  and  N_1 
REMARK    2  A    between atoms: C_8  and  C_3 
REMARK    3  A    between atoms: C_7  and  C_4 
REMARK    4  A    between atoms: N_12  and  C_5 
REMARK    5  A    between atoms: N_11  and  C_10 
ROOT
ATOM      1  N   UNL d   1      -0.248   0.172   0.000  0.00  0.00    -0.203 N 
ATOM      2  N   UNL d   1      -1.071   0.134   0.000  0.00  0.00    -0.163 NA
ATOM      3  C   UNL d   1      -1.374   0.857   0.000  0.00  0.00     0.103 A 
ATOM      4  C   UNL d   1      -0.021   0.958   0.000  0.00  0.00     0.087 A 
ATOM      5  C   UNL d   1      -0.727   1.408   0.000  0.00  0.00     0.040 A 
ENDROOT
BRANCH   4   6
ATOM      6  C   UNL d   1       0.786   1.181   0.000  0.00  0.00     0.018 A 
ATOM      7  C   UNL d   1       1.366   0.601   0.000  0.00  0.00     0.003 A 
ATOM      8  C   UNL d   1       2.147   0.802   0.000  0.00  0.00     0.018 A 
ATOM      9  C   UNL d   1       2.374   1.609   0.000  0.00  0.00     0.064 A 
ATOM     10  C   UNL d   1       1.794   2.189   0.000  0.00  0.00     0.018 A 
ATOM     11  C   UNL d   1       0.988   1.975   0.000  0.00  0.00     0.003 A 
BRANCH   9  12
ATOM     12  N   UNL d   1       3.206   1.786   0.000  0.00  0.00    -0.301 N 
ATOM     13  C   UNL d   1       3.446   2.593   0.000  0.00  0.00     0.100 C 
ATOM     14  C   UNL d   1       3.820   1.282   0.000  0.00  0.00     0.100 C 
ENDBRANCH   9  12
ENDBRANCH   4   6
BRANCH   1  15
ATOM     15  C   UNL d   1       0.282  -0.492   0.000  0.00  0.00     0.222 C 
ATOM     16  S   UNL d   1      -0.046  -1.277   0.000  0.00  0.00    -0.037 SA
BRANCH  15  17
ATOM     17  N   UNL d   1       1.088  -0.370   0.000  0.00  0.00    -0.214 NA
ATOM     18  C   UNL d   1       1.412   0.416   0.000  0.00  0.00     0.122 C 
ENDBRANCH  15  17
ENDBRANCH   1  15
BRANCH   3  19
ATOM     19  C   UNL d   1      -2.181   1.021   0.000  0.00  0.00     0.019 A 
ATOM     20  C   UNL d   1      -2.466   1.811   0.000  0.00  0.00     0.002 A 
ATOM     21  C   UNL d   1      -3.273   1.975   0.000  0.00  0.00     0.007 A 
ATOM     22  C   UNL d   1      -3.794   1.345   0.000  0.00  0.00     0.035 A 
ATOM     23  C   UNL d   1      -3.530   0.555   0.000  0.00  0.00     0.007 A 
ATOM     24 BR   UNL d   1      -4.639   1.525   0.000  0.00  0.00    -0.049 Br
ATOM     25  C   UNL d   1      -2.723   0.399   0.000  0.00  0.00     0.002 A 
ENDBRANCH   3  19
TORSDOF 5
