REMARK  4 active torsions:
REMARK  status: ('A' for Active; 'I' for Inactive)
REMARK    1  A    between atoms: C_2  and  C_1 
REMARK    2  A    between atoms: C_3  and  C_1 
REMARK       I    between atoms: N_7  and  C_2 
REMARK    3  A    between atoms: C_4  and  C_3 
REMARK    4  A    between atoms: C_13  and  N_7 
ROOT
ATOM      1  C   UNL d   1      -3.321  -0.275   0.000  0.00  0.00     0.128 C 
ATOM      2  C   UNL d   1      -4.027  -0.687   0.000  0.00  0.00     0.106 C 
ATOM      3  N   UNL d   1      -4.750  -1.104   0.000  0.00  0.00    -0.191 NA
ENDROOT
BRANCH   1   4
ATOM      4  C   UNL d   1      -3.312   0.559   0.000  0.00  0.00     0.289 C 
ATOM      5  N   UNL d   1      -2.593   0.957   0.000  0.00  0.00    -0.207 NA
ATOM      6  O   UNL d   1      -4.027   0.971   0.000  0.00  0.00    -0.264 OA
BRANCH   5   7
ATOM      7  C   UNL d   1      -1.878   0.545   0.000  0.00  0.00     0.085 A 
ATOM      8  C   UNL d   1      -1.878  -0.280   0.000  0.00  0.00     0.019 A 
ATOM      9  C   UNL d   1      -1.163  -0.692   0.000  0.00  0.00     0.002 A 
ATOM     10  C   UNL d   1      -0.449  -0.280   0.000  0.00  0.00     0.000 A 
ATOM     11  C   UNL d   1      -0.449   0.545   0.000  0.00  0.00     0.002 A 
ATOM     12  C   UNL d   1       0.266  -0.701   0.000  0.00  0.00     0.000 C 
ATOM     13  C   UNL d   1      -1.163   0.957   0.000  0.00  0.00     0.019 A 
ENDBRANCH   5   7
ENDBRANCH   1   4
BRANCH   1  14
ATOM     14  C   UNL d   1      -2.606  -0.687   0.000  0.00  0.00     0.040 C 
BRANCH  14  15
ATOM     15  C   UNL d   1      -2.597  -1.516   0.000  0.00  0.00     0.101 A 
ATOM     16  O   UNL d   1      -1.988  -2.066   0.000  0.00  0.00    -0.307 OA
ATOM     17  C   UNL d   1      -2.332  -2.817   0.000  0.00  0.00     0.100 A 
ATOM     18  C   UNL d   1      -1.919  -3.546   0.000  0.00  0.00     0.027 C 
ATOM     19  C   UNL d   1      -3.142  -2.735   0.000  0.00  0.00     0.027 A 
ATOM     20  C   UNL d   1      -3.312  -1.924   0.000  0.00  0.00     0.027 A 
ENDBRANCH  14  15
ENDBRANCH   1  14
TORSDOF 4
