REMARK  6 active torsions:
REMARK  status: ('A' for Active; 'I' for Inactive)
REMARK    1  A    between atoms: C_6  and  N_1 
REMARK    2  A    between atoms: C_5  and  C_3 
REMARK    3  A    between atoms: C_9  and  C_4 
REMARK    4  A    between atoms: N_12  and  C_6 
REMARK    5  A    between atoms: O_21  and  C_8 
REMARK    6  A    between atoms: O_22  and  C_16 
ROOT
ATOM      1  N   UNL d   1      -0.756  -0.016   0.000  0.00  0.00    -0.203 N 
ATOM      2  N   UNL d   1      -1.570  -0.016   0.000  0.00  0.00    -0.163 NA
ATOM      3  C   UNL d   1      -0.492   0.775   0.000  0.00  0.00     0.089 A 
ATOM      4  C   UNL d   1      -1.838   0.740   0.000  0.00  0.00     0.103 A 
ATOM      5  C   UNL d   1      -1.177   1.248   0.000  0.00  0.00     0.040 A 
ENDROOT
BRANCH   3   6
ATOM      6  C   UNL d   1       0.283   1.059   0.000  0.00  0.00     0.042 A 
ATOM      7  C   UNL d   1       0.413   1.873   0.000  0.00  0.00     0.096 A 
ATOM      8  C   UNL d   1       1.185   2.173   0.000  0.00  0.00     0.026 A 
ATOM      9  C   UNL d   1       1.810   1.649   0.000  0.00  0.00     0.026 A 
ATOM     10  C   UNL d   1       1.681   0.834   0.000  0.00  0.00     0.094 A 
ATOM     11  C   UNL d   1       0.901   0.551   0.000  0.00  0.00     0.028 A 
BRANCH   7  12
ATOM     12  O   UNL d   1      -0.232   2.421   0.000  0.00  0.00    -0.328 OA
ATOM     13  C   UNL d   1      -1.004   2.145   0.000  0.00  0.00     0.181 C 
ENDBRANCH   7  12
BRANCH  10  14
ATOM     14  O   UNL d   1       2.342   0.283   0.000  0.00  0.00    -0.328 OA
ATOM     15  C   UNL d   1       2.208  -0.523   0.000  0.00  0.00     0.181 C 
ENDBRANCH  10  14
ENDBRANCH   3   6
BRANCH   1  16
ATOM     16  C   UNL d   1      -0.268  -0.697   0.000  0.00  0.00     0.222 C 
ATOM     17  S   UNL d   1      -0.626  -1.452   0.000  0.00  0.00    -0.037 SA
BRANCH  16  18
ATOM     18  N   UNL d   1       0.567  -0.618   0.000  0.00  0.00    -0.214 NA
ATOM     19  C   UNL d   1       0.925   0.138   0.000  0.00  0.00     0.122 C 
ENDBRANCH  16  18
ENDBRANCH   1  16
BRANCH   4  20
ATOM     20  C   UNL d   1      -2.629   0.945   0.000  0.00  0.00     0.019 A 
ATOM     21  C   UNL d   1      -2.853   1.720   0.000  0.00  0.00     0.002 A 
ATOM     22  C   UNL d   1      -3.648   1.932   0.000  0.00  0.00     0.000 A 
ATOM     23  C   UNL d   1      -4.223   1.322   0.000  0.00  0.00     0.000 A 
ATOM     24  C   UNL d   1      -3.987   0.531   0.000  0.00  0.00     0.000 A 
ATOM     25  C   UNL d   1      -5.026   1.511   0.000  0.00  0.00     0.000 C 
ATOM     26  C   UNL d   1      -3.196   0.342   0.000  0.00  0.00     0.002 A 
ENDBRANCH   4  20
TORSDOF 6
