REMARK  6 active torsions:
REMARK  status: ('A' for Active; 'I' for Inactive)
REMARK    1  A    between atoms: C_5  and  N_1 
REMARK    2  A    between atoms: C_8  and  C_3 
REMARK    3  A    between atoms: C_7  and  C_4 
REMARK    4  A    between atoms: N_12  and  C_5 
REMARK    5  A    between atoms: N_11  and  C_10 
REMARK    6  A    between atoms: O_22  and  C_19 
ROOT
ATOM      1  N   UNL d   1      -0.773   0.000   0.000  0.00  0.00    -0.203 N 
ATOM      2  N   UNL d   1      -1.589  -0.016   0.000  0.00  0.00    -0.163 NA
ATOM      3  C   UNL d   1      -1.843   0.773   0.000  0.00  0.00     0.103 A 
ATOM      4  C   UNL d   1      -0.527   0.793   0.000  0.00  0.00     0.087 A 
ATOM      5  C   UNL d   1      -1.179   1.276   0.000  0.00  0.00     0.040 A 
ENDROOT
BRANCH   4   6
ATOM      6  C   UNL d   1       0.245   1.082   0.000  0.00  0.00     0.018 A 
ATOM      7  C   UNL d   1       0.885   0.563   0.000  0.00  0.00     0.003 A 
ATOM      8  C   UNL d   1       1.658   0.853   0.000  0.00  0.00     0.018 A 
ATOM      9  C   UNL d   1       1.791   1.662   0.000  0.00  0.00     0.064 A 
ATOM     10  C   UNL d   1       1.159   2.193   0.000  0.00  0.00     0.018 A 
ATOM     11  C   UNL d   1       0.386   1.895   0.000  0.00  0.00     0.003 A 
BRANCH   9  12
ATOM     12  N   UNL d   1       2.563   1.932   0.000  0.00  0.00    -0.301 N 
ATOM     13  C   UNL d   1       2.720   2.748   0.000  0.00  0.00     0.100 C 
ATOM     14  C   UNL d   1       3.187   1.396   0.000  0.00  0.00     0.100 C 
ENDBRANCH   9  12
ENDBRANCH   4   6
BRANCH   1  15
ATOM     15  C   UNL d   1      -0.290  -0.692   0.000  0.00  0.00     0.222 C 
ATOM     16  S   UNL d   1      -0.640  -1.449   0.000  0.00  0.00    -0.037 SA
BRANCH  15  17
ATOM     17  N   UNL d   1       0.559  -0.616   0.000  0.00  0.00    -0.214 NA
ATOM     18  C   UNL d   1       0.905   0.157   0.000  0.00  0.00     0.122 C 
ENDBRANCH  15  17
ENDBRANCH   1  15
BRANCH   3  19
ATOM     19  C   UNL d   1      -2.628   0.966   0.000  0.00  0.00     0.019 A 
ATOM     20  C   UNL d   1      -3.207   0.386   0.000  0.00  0.00     0.004 A 
ATOM     21  C   UNL d   1      -4.004   0.600   0.000  0.00  0.00     0.024 A 
ATOM     22  C   UNL d   1      -4.233   1.396   0.000  0.00  0.00     0.094 A 
ATOM     23  C   UNL d   1      -3.654   1.976   0.000  0.00  0.00     0.024 A 
ATOM     24  C   UNL d   1      -2.861   1.758   0.000  0.00  0.00     0.004 A 
BRANCH  22  25
ATOM     25  O   UNL d   1      -5.042   1.606   0.000  0.00  0.00    -0.328 OA
ATOM     26  C   UNL d   1      -5.622   1.010   0.000  0.00  0.00     0.181 C 
ENDBRANCH  22  25
ENDBRANCH   3  19
TORSDOF 6
