REMARK  7 active torsions:
REMARK  status: ('A' for Active; 'I' for Inactive)
REMARK    1  A    between atoms: C_8  and  C_1 
REMARK    2  A    between atoms: N_7  and  C_2 
REMARK    3  A    between atoms: C_10  and  C_4 
REMARK       I    between atoms: C_6  and  N_7 
REMARK       I    between atoms: N_9  and  C_6 
REMARK    4  A    between atoms: O_14  and  C_8 
REMARK    5  A    between atoms: C_13  and  N_9 
REMARK    6  A    between atoms: O_20  and  C_15 
REMARK    7  A    between atoms: C_23  and  O_20 
ROOT
ATOM      1  C   UNL d   1      -0.079   0.023   0.000  0.00  0.00     0.110 A 
ATOM      2  C   UNL d   1      -0.391   0.834   0.000  0.00  0.00     0.098 A 
ATOM      3  S   UNL d   1      -0.685  -0.489   0.000  0.00  0.00    -0.080 SA
ATOM      4  C   UNL d   1      -1.411  -0.056   0.000  0.00  0.00     0.031 A 
ATOM      5  C   UNL d   1      -1.211   0.778   0.000  0.00  0.00     0.026 A 
ENDROOT
BRANCH   2   6
ATOM      6  N   UNL d   1       0.019   1.546   0.000  0.00  0.00    -0.190 NA
ATOM      7  C   UNL d   1       0.857   1.546   0.000  0.00  0.00     0.369 C 
ATOM      8  N   UNL d   1       1.272   0.862   0.000  0.00  0.00    -0.191 NA
ATOM      9  O   UNL d   1       1.262   2.287   0.000  0.00  0.00    -0.242 OA
BRANCH   8  10
ATOM     10  C   UNL d   1       2.087   0.876   0.000  0.00  0.00     0.086 A 
ATOM     11  C   UNL d   1       2.478   1.589   0.000  0.00  0.00     0.021 A 
ATOM     12  C   UNL d   1       3.303   1.616   0.000  0.00  0.00     0.026 A 
ATOM     13  C   UNL d   1       3.731   0.918   0.000  0.00  0.00     0.100 A 
ATOM     14  C   UNL d   1       3.340   0.205   0.000  0.00  0.00     0.026 A 
ATOM     15  C   UNL d   1       2.515   0.182   0.000  0.00  0.00     0.021 A 
BRANCH  13  16
ATOM     16  O   UNL d   1       4.547   0.946   0.000  0.00  0.00    -0.305 OA
BRANCH  16  17
ATOM     17  C   UNL d   1       4.980   0.247   0.000  0.00  0.00     0.123 C 
ATOM     18  C   UNL d   1       5.814   0.280   0.000  0.00  0.00     0.029 C 
ENDBRANCH  16  17
ENDBRANCH  13  16
ENDBRANCH   8  10
ENDBRANCH   2   6
BRANCH   1  19
ATOM     19  C   UNL d   1       0.727  -0.200   0.000  0.00  0.00     0.303 C 
ATOM     20  O   UNL d   1       1.304   0.373   0.000  0.00  0.00    -0.259 OA
BRANCH  19  21
ATOM     21  O   UNL d   1       0.880  -1.011   0.000  0.00  0.00    -0.295 OA
ATOM     22  C   UNL d   1       0.280  -1.584   0.000  0.00  0.00     0.185 C 
ENDBRANCH  19  21
ENDBRANCH   1  19
BRANCH   4  23
ATOM     23  C   UNL d   1      -2.175  -0.391   0.000  0.00  0.00     0.006 A 
ATOM     24  C   UNL d   1      -2.287  -1.216   0.000  0.00  0.00     0.001 A 
ATOM     25  C   UNL d   1      -3.042  -1.542   0.000  0.00  0.00     0.000 A 
ATOM     26  C   UNL d   1      -3.713  -1.039   0.000  0.00  0.00     0.000 A 
ATOM     27  C   UNL d   1      -3.601  -0.186   0.000  0.00  0.00     0.000 A 
ATOM     28  C   UNL d   1      -2.846   0.112   0.000  0.00  0.00     0.001 A 
ENDBRANCH   4  23
TORSDOF 7
