REMARK  7 active torsions:
REMARK  status: ('A' for Active; 'I' for Inactive)
REMARK    1  A    between atoms: C_5  and  N_1 
REMARK    2  A    between atoms: S_12  and  C_2 
REMARK       I    between atoms: N_3  and  C_9 
REMARK    3  A    between atoms: C_15  and  C_4 
REMARK    4  A    between atoms: C_9  and  C_20 
REMARK       I    between atoms: C_10  and  N_14 
REMARK    5  A    between atoms: C_11  and  C_10 
REMARK    6  A    between atoms: C_20  and  S_12 
REMARK    7  A    between atoms: N_14  and  C_15 
ROOT
ATOM      1  N   UNL d   1      -1.093   2.974   0.000  0.00  0.00    -0.268 N 
ATOM      2  C   UNL d   1      -0.424   2.488   0.000  0.00  0.00     0.201 A 
ATOM      3  C   UNL d   1      -1.766   2.488   0.000  0.00  0.00     0.190 A 
ATOM      4  N   UNL d   1      -0.681   1.695   0.000  0.00  0.00    -0.121 NA
ATOM      5  N   UNL d   1      -1.508   1.695   0.000  0.00  0.00    -0.126 NA
ENDROOT
BRANCH   2   6
ATOM      6  S   UNL d   1       0.353   2.738   0.000  0.00  0.00    -0.043 SA
BRANCH   6   7
ATOM      7  C   UNL d   1       0.972   2.189   0.000  0.00  0.00     0.099 C 
BRANCH   7   8
ATOM      8  C   UNL d   1       1.749   2.438   0.000  0.00  0.00     0.271 C 
ATOM      9  N   UNL d   1       2.360   1.890   0.000  0.00  0.00    -0.273 N 
ATOM     10  C   UNL d   1       3.166   2.065   0.000  0.00  0.00     0.067 A 
ATOM     11  C   UNL d   1       2.272   1.072   0.000  0.00  0.00     0.083 A 
ATOM     12  C   UNL d   1       3.577   1.346   0.000  0.00  0.00     0.018 A 
ATOM     13  C   UNL d   1       3.568   2.787   0.000  0.00  0.00     0.018 A 
ATOM     14  C   UNL d   1       4.399   1.354   0.000  0.00  0.00     0.002 A 
ATOM     15  C   UNL d   1       3.028   0.744   0.000  0.00  0.00     0.021 A 
ATOM     16  C   UNL d   1       4.815   2.077   0.000  0.00  0.00     0.000 A 
ATOM     17  C   UNL d   1       4.399   2.787   0.000  0.00  0.00     0.002 A 
ATOM     18  O   UNL d   1       1.923   3.248   0.000  0.00  0.00    -0.266 OA
ENDBRANCH   7   8
ENDBRANCH   6   7
ENDBRANCH   2   6
BRANCH   1  19
ATOM     19  C   UNL d   1      -1.093   3.789   0.000  0.00  0.00     0.067 A 
ATOM     20  C   UNL d   1      -1.803   4.200   0.000  0.00  0.00     0.016 A 
ATOM     21  C   UNL d   1      -1.803   5.027   0.000  0.00  0.00     0.001 A 
ATOM     22  C   UNL d   1      -2.517   3.797   0.000  0.00  0.00     0.002 C 
ATOM     23  C   UNL d   1      -1.093   5.434   0.000  0.00  0.00     0.000 A 
ATOM     24  C   UNL d   1      -0.374   5.014   0.000  0.00  0.00     0.001 A 
ATOM     25  C   UNL d   1      -0.370   4.200   0.000  0.00  0.00     0.018 A 
ATOM     26  C   UNL d   1       0.337   5.434   0.000  0.00  0.00     0.000 C 
ENDBRANCH   1  19
BRANCH   3  27
ATOM     27  C   UNL d   1      -2.551   2.742   0.000  0.00  0.00     0.141 C 
BRANCH  27  28
ATOM     28  N   UNL d   1      -3.161   2.189   0.000  0.00  0.00    -0.202 NA
ATOM     29  C   UNL d   1      -3.946   2.451   0.000  0.00  0.00     0.302 C 
ATOM     30  O   UNL d   1      -4.108   3.261   0.000  0.00  0.00    -0.263 OA
BRANCH  29  31
ATOM     31  C   UNL d   1      -4.569   1.907   0.000  0.00  0.00     0.158 A 
ATOM     32  O   UNL d   1      -4.482   1.093   0.000  0.00  0.00    -0.300 OA
ATOM     33  C   UNL d   1      -5.234   0.756   0.000  0.00  0.00     0.123 A 
ATOM     34  C   UNL d   1      -5.783   1.379   0.000  0.00  0.00     0.029 A 
ATOM     35  C   UNL d   1      -5.367   2.090   0.000  0.00  0.00     0.032 A 
ENDBRANCH  29  31
ENDBRANCH  27  28
ENDBRANCH   3  27
TORSDOF 7
