REMARK  9 active torsions:
REMARK  status: ('A' for Active; 'I' for Inactive)
REMARK    1  A    between atoms: C_6  and  N_1 
REMARK    2  A    between atoms: S_11  and  C_2 
REMARK    3  A    between atoms: C_14  and  C_3 
REMARK       I    between atoms: C_7  and  N_12 
REMARK    4  A    between atoms: C_8  and  C_7 
REMARK    5  A    between atoms: C_9  and  N_10 
REMARK       I    between atoms: N_10  and  C_13 
REMARK    6  A    between atoms: C_24  and  S_11 
REMARK    7  A    between atoms: N_12  and  C_14 
REMARK    8  A    between atoms: C_13  and  C_24 
REMARK    9  A    between atoms: O_28  and  C_19 
ROOT
ATOM      1  N   UNL d   1      -1.094   2.979   0.000  0.00  0.00    -0.266 N 
ATOM      2  C   UNL d   1      -0.424   2.492   0.000  0.00  0.00     0.201 A 
ATOM      3  C   UNL d   1      -1.768   2.492   0.000  0.00  0.00     0.190 A 
ATOM      4  N   UNL d   1      -0.682   1.697   0.000  0.00  0.00    -0.121 NA
ATOM      5  N   UNL d   1      -1.510   1.697   0.000  0.00  0.00    -0.126 NA
ENDROOT
BRANCH   2   6
ATOM      6  S   UNL d   1       0.354   2.741   0.000  0.00  0.00    -0.043 SA
BRANCH   6   7
ATOM      7  C   UNL d   1       0.974   2.192   0.000  0.00  0.00     0.101 C 
BRANCH   7   8
ATOM      8  C   UNL d   1       1.751   2.442   0.000  0.00  0.00     0.286 C 
ATOM      9  N   UNL d   1       2.363   1.893   0.000  0.00  0.00    -0.208 NA
ATOM     10  O   UNL d   1       1.926   3.253   0.000  0.00  0.00    -0.265 OA
BRANCH   9  11
ATOM     11  C   UNL d   1       3.149   2.147   0.000  0.00  0.00     0.085 A 
ATOM     12  C   UNL d   1       3.761   1.606   0.000  0.00  0.00     0.018 A 
ATOM     13  C   UNL d   1       4.547   1.860   0.000  0.00  0.00     0.002 A 
ATOM     14  C   UNL d   1       3.599   0.799   0.000  0.00  0.00     0.002 C 
ATOM     15  C   UNL d   1       4.709   2.671   0.000  0.00  0.00     0.000 A 
ATOM     16  C   UNL d   1       4.085   3.228   0.000  0.00  0.00     0.002 A 
ATOM     17  C   UNL d   1       3.307   2.954   0.000  0.00  0.00     0.019 A 
ATOM     18  C   UNL d   1       4.247   4.019   0.000  0.00  0.00     0.000 C 
ENDBRANCH   9  11
ENDBRANCH   7   8
ENDBRANCH   6   7
ENDBRANCH   2   6
BRANCH   1  19
ATOM     19  C   UNL d   1      -1.094   3.794   0.000  0.00  0.00     0.090 A 
ATOM     20  C   UNL d   1      -0.374   4.198   0.000  0.00  0.00     0.110 A 
ATOM     21  C   UNL d   1      -0.370   5.021   0.000  0.00  0.00     0.026 A 
ATOM     22  C   UNL d   1      -1.086   5.441   0.000  0.00  0.00     0.002 A 
ATOM     23  C   UNL d   1      -1.805   5.021   0.000  0.00  0.00     0.002 A 
ATOM     24  C   UNL d   1      -1.805   4.198   0.000  0.00  0.00     0.020 A 
BRANCH  20  25
ATOM     25  O   UNL d   1       0.337   3.790   0.000  0.00  0.00    -0.327 OA
ATOM     26  C   UNL d   1       1.052   4.193   0.000  0.00  0.00     0.181 C 
ENDBRANCH  20  25
ENDBRANCH   1  19
BRANCH   3  27
ATOM     27  C   UNL d   1      -2.554   2.746   0.000  0.00  0.00     0.141 C 
BRANCH  27  28
ATOM     28  N   UNL d   1      -3.166   2.192   0.000  0.00  0.00    -0.202 NA
ATOM     29  C   UNL d   1      -3.952   2.454   0.000  0.00  0.00     0.302 C 
ATOM     30  O   UNL d   1      -4.114   3.266   0.000  0.00  0.00    -0.263 OA
BRANCH  29  31
ATOM     31  C   UNL d   1      -4.576   1.909   0.000  0.00  0.00     0.158 A 
ATOM     32  O   UNL d   1      -4.489   1.094   0.000  0.00  0.00    -0.300 OA
ATOM     33  C   UNL d   1      -5.242   0.757   0.000  0.00  0.00     0.123 A 
ATOM     34  C   UNL d   1      -5.791   1.381   0.000  0.00  0.00     0.029 A 
ATOM     35  C   UNL d   1      -5.375   2.092   0.000  0.00  0.00     0.032 A 
ENDBRANCH  29  31
ENDBRANCH  27  28
ENDBRANCH   3  27
TORSDOF 9
