REMARK  4 active torsions:
REMARK  status: ('A' for Active; 'I' for Inactive)
REMARK    1  A    between atoms: N_6  and  C_1 
REMARK    2  A    between atoms: C_8  and  N_4 
REMARK    3  A    between atoms: C_9  and  N_6 
REMARK    4  A    between atoms: C_13  and  C_9 
ROOT
ATOM      1  C   UNL d   1      -3.598   0.658   0.000  0.00  0.00     0.157 A 
ATOM      2  C   UNL d   1      -3.383  -0.138   0.000  0.00  0.00     0.298 A 
ATOM      3  N   UNL d   1      -4.709  -0.088   0.000  0.00  0.00    -0.238 N 
ATOM      4  N   UNL d   1      -4.074  -0.597   0.000  0.00  0.00    -0.209 N 
ATOM      5  C   UNL d   1      -4.422   0.707   0.000  0.00  0.00     0.104 A 
ATOM      6  O   UNL d   1      -2.587  -0.437   0.000  0.00  0.00    -0.263 OA
ATOM      7  C   UNL d   1      -5.566  -0.304   0.000  0.00  0.00     0.120 C 
ATOM      8  C   UNL d   1      -4.902   1.420   0.000  0.00  0.00     0.022 C 
ENDROOT
BRANCH   1   9
ATOM      9  N   UNL d   1      -3.068   1.321   0.000  0.00  0.00    -0.238 NA
BRANCH   9  10
ATOM     10  C   UNL d   1      -2.249   1.210   0.000  0.00  0.00     0.099 C 
BRANCH  10  11
ATOM     11  C   UNL d   1      -1.741   1.874   0.000  0.00  0.00     0.022 A 
ATOM     12  C   UNL d   1      -2.056   2.614   0.000  0.00  0.00     0.022 A 
ATOM     13  C   UNL d   1      -1.553   3.277   0.000  0.00  0.00     0.099 A 
ATOM     14  N   UNL d   1      -0.757   3.200   0.000  0.00  0.00    -0.242 NA
ATOM     15  C   UNL d   1      -0.414   2.454   0.000  0.00  0.00     0.099 A 
ATOM     16  C   UNL d   1      -0.923   1.769   0.000  0.00  0.00     0.022 A 
ENDBRANCH  10  11
ENDBRANCH   9  10
ENDBRANCH   1   9
BRANCH   4  17
ATOM     17  C   UNL d   1      -4.074  -1.443   0.000  0.00  0.00     0.085 A 
ATOM     18  C   UNL d   1      -3.361  -1.841   0.000  0.00  0.00     0.019 A 
ATOM     19  C   UNL d   1      -3.361  -2.692   0.000  0.00  0.00     0.002 A 
ATOM     20  C   UNL d   1      -4.074  -3.090   0.000  0.00  0.00     0.000 A 
ATOM     21  C   UNL d   1      -4.792  -2.692   0.000  0.00  0.00     0.002 A 
ATOM     22  C   UNL d   1      -4.792  -1.841   0.000  0.00  0.00     0.019 A 
ENDBRANCH   4  17
TORSDOF 4
