REMARK  7 active torsions:
REMARK  status: ('A' for Active; 'I' for Inactive)
REMARK    1  A    between atoms: C_6  and  C_1 
REMARK    2  A    between atoms: O_8  and  C_6 
REMARK    3  A    between atoms: C_13  and  O_8 
REMARK    4  A    between atoms: C_9  and  C_13 
REMARK    5  A    between atoms: C_15  and  C_9 
REMARK    6  A    between atoms: C_19  and  C_11 
REMARK    7  A    between atoms: C_16  and  C_19 
ROOT
ATOM      1  C   UNL d   1       1.251   3.828   0.000  0.00  0.00     0.127 A 
ATOM      2  C   UNL d   1       1.251   2.971   0.000  0.00  0.00     0.305 A 
ATOM      3  O   UNL d   1       0.555   2.550   0.000  0.00  0.00    -0.273 OA
ATOM      4  C   UNL d   1       0.555   4.206   0.000  0.00  0.00     0.013 A 
ATOM      5  C   UNL d   1      -0.156   2.971   0.000  0.00  0.00     0.103 A 
ATOM      6  C   UNL d   1      -0.156   3.796   0.000  0.00  0.00     0.023 A 
ATOM      7  O   UNL d   1       1.979   2.502   0.000  0.00  0.00    -0.259 OA
ATOM      8  C   UNL d   1      -0.857   2.550   0.000  0.00  0.00     0.023 A 
ATOM      9  C   UNL d   1      -0.857   4.206   0.000  0.00  0.00     0.002 A 
ATOM     10  C   UNL d   1      -1.553   3.828   0.000  0.00  0.00     0.000 A 
ATOM     11  C   UNL d   1      -1.553   2.971   0.000  0.00  0.00     0.002 A 
ENDROOT
BRANCH   1  12
ATOM     12  C   UNL d   1       1.947   4.287   0.000  0.00  0.00     0.305 C 
ATOM     13  O   UNL d   1       1.898   5.122   0.000  0.00  0.00    -0.259 OA
BRANCH  12  14
ATOM     14  O   UNL d   1       2.718   3.909   0.000  0.00  0.00    -0.268 OA
BRANCH  14  15
ATOM     15  C   UNL d   1       2.723   3.100   0.000  0.00  0.00     0.168 C 
BRANCH  15  16
ATOM     16  C   UNL d   1       3.451   2.712   0.000  0.00  0.00     0.220 C 
ATOM     17  O   UNL d   1       4.147   3.149   0.000  0.00  0.00    -0.284 OA
BRANCH  16  18
ATOM     18  C   UNL d   1       3.500   1.877   0.000  0.00  0.00     0.041 A 
ATOM     19  C   UNL d   1       4.228   1.515   0.000  0.00  0.00     0.003 A 
ATOM     20  C   UNL d   1       4.271   0.690   0.000  0.00  0.00     0.000 A 
ATOM     21  C   UNL d   1       3.559   0.221   0.000  0.00  0.00     0.000 A 
ATOM     22  C   UNL d   1       2.831   0.609   0.000  0.00  0.00     0.000 A 
ATOM     23  C   UNL d   1       2.804   1.440   0.000  0.00  0.00     0.003 A 
ENDBRANCH  16  18
ENDBRANCH  15  16
ENDBRANCH  14  15
ENDBRANCH  12  14
ENDBRANCH   1  12
BRANCH   8  24
ATOM     24  C   UNL d   1      -0.884   1.725   0.000  0.00  0.00     0.002 C 
BRANCH  24  25
ATOM     25  C   UNL d   1      -0.189   1.310   0.000  0.00  0.00     0.000 C 
ATOM     26  C   UNL d   1      -0.210   0.453   0.000  0.00  0.00     0.000 C 
ENDBRANCH  24  25
ENDBRANCH   8  24
TORSDOF 7
