REMARK  4 active torsions:
REMARK  status: ('A' for Active; 'I' for Inactive)
REMARK    1  A    between atoms: C_2  and  C_1 
REMARK    2  A    between atoms: N_13  and  C_6 
REMARK    3  A    between atoms: N_12  and  N_13 
REMARK    4  A    between atoms: C_15  and  N_12 
ROOT
ATOM      1  C   UNL d   1       0.627   1.315   0.000  0.00  0.00     0.095 A 
ATOM      2  N   UNL d   1       1.412   1.023   0.000  0.00  0.00    -0.219 NA
ATOM      3  C   UNL d   1       1.905   1.674   0.000  0.00  0.00     0.215 A 
ATOM      4  S   UNL d   1       1.467   2.368   0.000  0.00  0.00    -0.045 SA
ATOM      5  C   UNL d   1       0.682   2.137   0.000  0.00  0.00     0.058 A 
ENDROOT
BRANCH   1   6
ATOM      6  C   UNL d   1      -0.103   0.907   0.000  0.00  0.00     0.082 A 
ATOM      7  C   UNL d   1      -0.103   0.091   0.000  0.00  0.00     0.302 A 
ATOM      8  O   UNL d   1      -0.834  -0.347   0.000  0.00  0.00    -0.273 OA
ATOM      9  O   UNL d   1       0.657  -0.317   0.000  0.00  0.00    -0.259 OA
ATOM     10  C   UNL d   1      -1.564   0.091   0.000  0.00  0.00     0.103 A 
ATOM     11  C   UNL d   1      -1.564   0.907   0.000  0.00  0.00     0.023 A 
ATOM     12  C   UNL d   1      -2.264  -0.347   0.000  0.00  0.00     0.025 A 
ATOM     13  C   UNL d   1      -0.834   1.315   0.000  0.00  0.00     0.009 A 
ATOM     14  C   UNL d   1      -2.264   1.315   0.000  0.00  0.00     0.002 A 
ATOM     15  C   UNL d   1      -2.995   0.907   0.000  0.00  0.00     0.000 A 
ATOM     16  C   UNL d   1      -2.995   0.091   0.000  0.00  0.00     0.002 A 
ENDBRANCH   1   6
BRANCH   3  17
ATOM     17  N   UNL d   1       2.757   1.607   0.000  0.00  0.00    -0.122 NA
BRANCH  17  18
ATOM     18  N   UNL d   1       3.196   2.313   0.000  0.00  0.00    -0.146 NA
BRANCH  18  19
ATOM     19  C   UNL d   1       4.018   2.313   0.000  0.00  0.00     0.103 A 
ATOM     20  C   UNL d   1       4.425   1.583   0.000  0.00  0.00     0.021 A 
ATOM     21  C   UNL d   1       5.265   1.583   0.000  0.00  0.00     0.002 A 
ATOM     22  C   UNL d   1       5.649   2.313   0.000  0.00  0.00     0.000 A 
ATOM     23  C   UNL d   1       5.241   3.013   0.000  0.00  0.00     0.002 A 
ATOM     24  C   UNL d   1       4.425   3.013   0.000  0.00  0.00     0.021 A 
ENDBRANCH  18  19
ENDBRANCH  17  18
ENDBRANCH   3  17
TORSDOF 4
