REMARK  3 active torsions:
REMARK  status: ('A' for Active; 'I' for Inactive)
REMARK    1  A    between atoms: S_2  and  N_1 
REMARK    2  A    between atoms: C_8  and  S_2 
REMARK       I    between atoms: C_14  and  N_15 
REMARK    3  A    between atoms: N_15  and  C_19 
ROOT
ATOM      1  S   UNL d   1       0.424   0.345   0.000  0.00  0.00     0.273 S 
ATOM      2  O   UNL d   1       1.139  -0.067   0.000  0.00  0.00    -0.200 OA
ATOM      3  O   UNL d   1      -0.287  -0.067   0.000  0.00  0.00    -0.200 OA
ENDROOT
BRANCH   1   4
ATOM      4  N   UNL d   1       0.416   1.168   0.000  0.00  0.00    -0.212 N 
ATOM      5  C   UNL d   1      -0.299   1.580   0.000  0.00  0.00     0.094 A 
ATOM      6  C   UNL d   1      -0.299   2.407   0.000  0.00  0.00     0.100 A 
ATOM      7  C   UNL d   1      -1.018   1.168   0.000  0.00  0.00     0.020 A 
ATOM      8  C   UNL d   1      -1.018   2.827   0.000  0.00  0.00     0.021 A 
ATOM      9  N   UNL d   1       1.135   2.415   0.000  0.00  0.00    -0.223 NA
ATOM     10  C   UNL d   1      -1.742   2.407   0.000  0.00  0.00     0.002 A 
ATOM     11  C   UNL d   1      -1.733   1.580   0.000  0.00  0.00     0.002 A 
ATOM     12  C   UNL d   1      -2.453   2.814   0.000  0.00  0.00     0.000 C 
ATOM     13  C   UNL d   1      -2.440   1.160   0.000  0.00  0.00     0.000 C 
ATOM     14  C   UNL d   1       1.135   1.584   0.000  0.00  0.00     0.193 A 
ENDBRANCH   1   4
BRANCH   1  15
ATOM     15  C   UNL d   1       0.416  -0.478   0.000  0.00  0.00     0.104 A 
ATOM     16  C   UNL d   1      -0.295  -0.885   0.000  0.00  0.00     0.014 A 
ATOM     17  C   UNL d   1      -0.299  -1.708   0.000  0.00  0.00     0.020 A 
ATOM     18  C   UNL d   1       0.416  -2.124   0.000  0.00  0.00     0.085 A 
ATOM     19  C   UNL d   1       1.127  -1.708   0.000  0.00  0.00     0.020 A 
ATOM     20  C   UNL d   1       1.135  -0.890   0.000  0.00  0.00     0.014 A 
BRANCH  18  21
ATOM     21  N   UNL d   1       0.403  -2.943   0.000  0.00  0.00    -0.208 NA
ATOM     22  C   UNL d   1       1.114  -3.359   0.000  0.00  0.00     0.279 C 
ATOM     23  O   UNL d   1       1.114  -4.182   0.000  0.00  0.00    -0.265 OA
ATOM     24  C   UNL d   1       1.833  -2.956   0.000  0.00  0.00     0.068 C 
ENDBRANCH  18  21
ENDBRANCH   1  15
TORSDOF 3
