REMARK  2 active torsions:
REMARK  status: ('A' for Active; 'I' for Inactive)
REMARK    1  A    between atoms: N_2  and  S_1 
REMARK    2  A    between atoms: C_4  and  S_1 
ROOT
ATOM      1  S   UNL d   1       0.292   0.037   0.000  0.00  0.00     0.273 S 
ATOM      2  O   UNL d   1      -0.421  -0.375   0.000  0.00  0.00    -0.200 OA
ATOM      3  O   UNL d   1       1.004  -0.379   0.000  0.00  0.00    -0.200 OA
ENDROOT
BRANCH   1   4
ATOM      4  N   UNL d   1       0.292   0.862   0.000  0.00  0.00    -0.212 N 
ATOM      5  C   UNL d   1       1.016   1.274   0.000  0.00  0.00     0.193 A 
ATOM      6  N   UNL d   1       1.016   2.107   0.000  0.00  0.00    -0.223 NA
ATOM      7  C   UNL d   1      -0.421   2.107   0.000  0.00  0.00     0.100 A 
ATOM      8  C   UNL d   1      -0.433   1.283   0.000  0.00  0.00     0.094 A 
ATOM      9  C   UNL d   1      -1.145   2.524   0.000  0.00  0.00     0.021 A 
ATOM     10  C   UNL d   1      -1.145   0.870   0.000  0.00  0.00     0.020 A 
ATOM     11  C   UNL d   1      -1.862   1.283   0.000  0.00  0.00     0.002 A 
ATOM     12  C   UNL d   1      -1.862   2.111   0.000  0.00  0.00     0.002 A 
ENDBRANCH   1   4
BRANCH   1  13
ATOM     13  C   UNL d   1       0.279  -0.779   0.000  0.00  0.00     0.104 A 
ATOM     14  C   UNL d   1       0.991  -1.199   0.000  0.00  0.00     0.012 A 
ATOM     15  C   UNL d   1       0.987  -2.016   0.000  0.00  0.00     0.001 A 
ATOM     16  C   UNL d   1       1.703  -0.787   0.000  0.00  0.00     0.001 C 
ATOM     17  C   UNL d   1       0.267  -2.428   0.000  0.00  0.00     0.000 A 
ATOM     18  C   UNL d   1      -0.446  -2.011   0.000  0.00  0.00     0.001 A 
ATOM     19  C   UNL d   1       0.262  -3.248   0.000  0.00  0.00     0.000 C 
ATOM     20  C   UNL d   1      -0.433  -1.187   0.000  0.00  0.00     0.013 A 
ENDBRANCH   1  13
TORSDOF 2
