REMARK  1 active torsions:
REMARK  status: ('A' for Active; 'I' for Inactive)
REMARK    1  A    between atoms: C_8  and  N_3 
ROOT
ATOM      1  C   UNL d   1      -2.453  -0.324   0.000  0.00  0.00     0.292 A 
ATOM      2  C   UNL d   1      -2.453   0.503   0.000  0.00  0.00     0.128 A 
ATOM      3  N   UNL d   1      -1.744  -0.731   0.000  0.00  0.00    -0.194 N 
ATOM      4  N   UNL d   1      -1.024  -0.324   0.000  0.00  0.00    -0.160 NA
ATOM      5  C   UNL d   1      -1.744   0.925   0.000  0.00  0.00     0.094 A 
ATOM      6  C   UNL d   1      -1.024   0.503   0.000  0.00  0.00     0.133 A 
ATOM      7  O   UNL d   1      -3.184  -0.747   0.000  0.00  0.00    -0.264 OA
ATOM      8 CL   UNL d   1      -3.184   0.945   0.000  0.00  0.00    -0.076 Cl
ATOM      9 CL   UNL d   1      -1.744   1.748   0.000  0.00  0.00    -0.080 Cl
ENDROOT
BRANCH   3  10
ATOM     10  C   UNL d   1      -1.744  -1.569   0.000  0.00  0.00     0.086 A 
ATOM     11  C   UNL d   1      -1.024  -1.969   0.000  0.00  0.00     0.019 A 
ATOM     12  C   UNL d   1      -1.024  -2.815   0.000  0.00  0.00     0.002 A 
ATOM     13  C   UNL d   1      -1.744  -3.215   0.000  0.00  0.00     0.000 A 
ATOM     14  C   UNL d   1      -2.453  -2.815   0.000  0.00  0.00     0.002 A 
ATOM     15  C   UNL d   1      -2.453  -1.969   0.000  0.00  0.00     0.019 A 
ENDBRANCH   3  10
TORSDOF 1
