REMARK  5 active torsions:
REMARK  status: ('A' for Active; 'I' for Inactive)
REMARK    1  A    between atoms: C_7  and  C_1 
REMARK    2  A    between atoms: O_13  and  C_7 
REMARK    3  A    between atoms: C_15  and  C_9 
REMARK    4  A    between atoms: C_11  and  C_15 
REMARK    5  A    between atoms: C_18  and  O_13 
ROOT
ATOM      1  C   UNL d   1      -0.929   1.025   0.000  0.00  0.00     0.127 A 
ATOM      2  C   UNL d   1      -0.929   0.220   0.000  0.00  0.00     0.305 A 
ATOM      3  O   UNL d   1      -1.653  -0.215   0.000  0.00  0.00    -0.273 OA
ATOM      4  C   UNL d   1      -1.653   1.460   0.000  0.00  0.00     0.013 A 
ATOM      5  C   UNL d   1      -2.378   0.193   0.000  0.00  0.00     0.103 A 
ATOM      6  C   UNL d   1      -2.378   1.047   0.000  0.00  0.00     0.023 A 
ATOM      7  O   UNL d   1      -0.188  -0.193   0.000  0.00  0.00    -0.259 OA
ATOM      8  C   UNL d   1      -3.092  -0.215   0.000  0.00  0.00     0.023 A 
ATOM      9  C   UNL d   1      -3.092   1.460   0.000  0.00  0.00     0.002 A 
ATOM     10  C   UNL d   1      -3.817   1.025   0.000  0.00  0.00     0.000 A 
ATOM     11  C   UNL d   1      -3.817   0.220   0.000  0.00  0.00     0.002 A 
ENDROOT
BRANCH   1  12
ATOM     12  C   UNL d   1      -0.193   1.380   0.000  0.00  0.00     0.305 C 
ATOM     13  O   UNL d   1      -0.129   2.217   0.000  0.00  0.00    -0.259 OA
BRANCH  12  14
ATOM     14  O   UNL d   1       0.521   0.945   0.000  0.00  0.00    -0.271 OA
BRANCH  14  15
ATOM     15  C   UNL d   1       1.262   1.347   0.000  0.00  0.00     0.126 C 
ATOM     16  C   UNL d   1       1.954   0.902   0.000  0.00  0.00     0.029 C 
ENDBRANCH  14  15
ENDBRANCH  12  14
ENDBRANCH   1  12
BRANCH   8  17
ATOM     17  C   UNL d   1      -3.092  -1.036   0.000  0.00  0.00     0.002 C 
BRANCH  17  18
ATOM     18  C   UNL d   1      -3.817  -1.455   0.000  0.00  0.00     0.000 C 
ATOM     19  C   UNL d   1      -3.817  -2.276   0.000  0.00  0.00     0.000 C 
ENDBRANCH  17  18
ENDBRANCH   8  17
TORSDOF 5
