REMARK  2 active torsions:
REMARK  status: ('A' for Active; 'I' for Inactive)
REMARK    1  A    between atoms: C_6  and  C_3 
REMARK    2  A    between atoms: C_13  and  C_7 
ROOT
ATOM      1  C   UNL d   1       5.848   0.070   0.000  0.00  0.00     0.018 A 
ATOM      2  C   UNL d   1       7.482  -0.112   0.000  0.00  0.00     0.000 A 
ATOM      3  C   UNL d   1       6.333   0.734   0.000  0.00  0.00     0.002 A 
ATOM      4  C   UNL d   1       6.175  -0.689   0.000  0.00  0.00     0.002 A 
ATOM      5  C   UNL d   1       7.154   0.647   0.000  0.00  0.00     0.000 A 
ATOM      6  C   UNL d   1       6.992  -0.776   0.000  0.00  0.00     0.000 A 
ENDROOT
BRANCH   1   7
ATOM      7  C   UNL d   1       5.026   0.158   0.000  0.00  0.00     0.090 A 
ATOM      8  N   UNL d   1       4.471  -0.452   0.000  0.00  0.00    -0.219 NA
ATOM      9  C   UNL d   1       3.720  -0.116   0.000  0.00  0.00     0.215 A 
ATOM     10  S   UNL d   1       3.799   0.705   0.000  0.00  0.00    -0.045 SA
ATOM     11  N   UNL d   1       3.003  -0.527   0.000  0.00  0.00    -0.120 N 
ATOM     12  C   UNL d   1       4.608   0.879   0.000  0.00  0.00     0.058 A 
ENDBRANCH   1   7
BRANCH   2  13
ATOM     13  C   UNL d   1       8.303  -0.203   0.000  0.00  0.00     0.000 A 
ATOM     14  C   UNL d   1       8.626  -0.962   0.000  0.00  0.00     0.000 A 
ATOM     15  C   UNL d   1       9.435  -1.049   0.000  0.00  0.00     0.000 A 
ATOM     16  C   UNL d   1       9.933  -0.390   0.000  0.00  0.00     0.000 A 
ATOM     17  C   UNL d   1       9.605   0.361   0.000  0.00  0.00     0.000 A 
ATOM     18  C   UNL d   1       8.788   0.456   0.000  0.00  0.00     0.000 A 
ENDBRANCH   2  13
TORSDOF 2
