REMARK  4 active torsions:
REMARK  status: ('A' for Active; 'I' for Inactive)
REMARK    1  A    between atoms: C_5  and  C_1 
REMARK    2  A    between atoms: O_8  and  C_5 
REMARK    3  A    between atoms: C_11  and  O_8 
REMARK    4  A    between atoms: C_12  and  C_11 
ROOT
ATOM      1  C   UNL d   1      -3.287  -0.615   0.000  0.00  0.00     0.127 A 
ATOM      2  C   UNL d   1      -3.287  -1.413   0.000  0.00  0.00     0.305 A 
ATOM      3  C   UNL d   1      -3.990  -0.183   0.000  0.00  0.00     0.013 A 
ATOM      4  O   UNL d   1      -3.990  -1.845   0.000  0.00  0.00    -0.273 OA
ATOM      5  C   UNL d   1      -4.693  -0.615   0.000  0.00  0.00     0.023 A 
ATOM      6  C   UNL d   1      -4.693  -1.413   0.000  0.00  0.00     0.103 A 
ATOM      7  O   UNL d   1      -2.584  -1.845   0.000  0.00  0.00    -0.259 OA
ATOM      8  C   UNL d   1      -5.396  -0.183   0.000  0.00  0.00     0.002 A 
ATOM      9  C   UNL d   1      -5.396  -1.845   0.000  0.00  0.00     0.025 A 
ATOM     10  C   UNL d   1      -6.099  -1.413   0.000  0.00  0.00     0.002 A 
ATOM     11  C   UNL d   1      -6.099  -0.615   0.000  0.00  0.00     0.000 A 
ENDROOT
BRANCH   1  12
ATOM     12  C   UNL d   1      -2.584  -0.183   0.000  0.00  0.00     0.305 C 
ATOM     13  O   UNL d   1      -2.584   0.652   0.000  0.00  0.00    -0.259 OA
BRANCH  12  14
ATOM     14  O   UNL d   1      -1.882  -0.579   0.000  0.00  0.00    -0.271 OA
BRANCH  14  15
ATOM     15  C   UNL d   1      -1.179  -0.183   0.000  0.00  0.00     0.126 C 
BRANCH  15  16
ATOM     16  C   UNL d   1      -0.476  -0.579   0.000  0.00  0.00     0.025 A 
ATOM     17  C   UNL d   1      -0.476  -1.413   0.000  0.00  0.00     0.002 A 
ATOM     18  C   UNL d   1       0.264  -1.809   0.000  0.00  0.00     0.000 A 
ATOM     19  C   UNL d   1       0.967  -1.413   0.000  0.00  0.00     0.000 A 
ATOM     20  C   UNL d   1       0.967  -0.579   0.000  0.00  0.00     0.000 A 
ATOM     21  C   UNL d   1       0.264  -0.183   0.000  0.00  0.00     0.002 A 
ENDBRANCH  15  16
ENDBRANCH  14  15
ENDBRANCH  12  14
ENDBRANCH   1  12
TORSDOF 4
