REMARK  3 active torsions:
REMARK  status: ('A' for Active; 'I' for Inactive)
REMARK    1  A    between atoms: C_6  and  C_1 
REMARK    2  A    between atoms: O_10  and  C_6 
REMARK    3  A    between atoms: C_13  and  O_10 
ROOT
ATOM      1  C   UNL d   1       2.818  -5.415   0.000  0.00  0.00     0.121 A 
ATOM      2  C   UNL d   1       2.104  -5.002   0.000  0.00  0.00     0.204 A 
ATOM      3  C   UNL d   1       2.818  -6.242   0.000  0.00  0.00     0.107 A 
ATOM      4  C   UNL d   1       1.390  -5.415   0.000  0.00  0.00     0.057 A 
ATOM      5  N   UNL d   1       2.096  -6.655   0.000  0.00  0.00    -0.244 NA
ATOM      6  C   UNL d   1       1.382  -6.242   0.000  0.00  0.00     0.085 A 
ATOM      7  O   UNL d   1       2.109  -4.175   0.000  0.00  0.00    -0.286 OA
ATOM      8  C   UNL d   1       0.676  -4.998   0.000  0.00  0.00     0.005 A 
ATOM      9  C   UNL d   1       0.676  -6.651   0.000  0.00  0.00     0.019 A 
ATOM     10  C   UNL d   1      -0.033  -5.415   0.000  0.00  0.00     0.000 A 
ATOM     11  C   UNL d   1      -0.033  -6.242   0.000  0.00  0.00     0.002 A 
ENDROOT
BRANCH   1  12
ATOM     12  C   UNL d   1       3.537  -5.010   0.000  0.00  0.00     0.305 C 
ATOM     13  O   UNL d   1       3.537  -4.184   0.000  0.00  0.00    -0.259 OA
BRANCH  12  14
ATOM     14  O   UNL d   1       4.250  -5.428   0.000  0.00  0.00    -0.271 OA
BRANCH  14  15
ATOM     15  C   UNL d   1       4.246  -6.255   0.000  0.00  0.00     0.126 C 
ATOM     16  C   UNL d   1       4.960  -6.668   0.000  0.00  0.00     0.029 C 
ENDBRANCH  14  15
ENDBRANCH  12  14
ENDBRANCH   1  12
TORSDOF 3
