REMARK  1 active torsions:
REMARK  status: ('A' for Active; 'I' for Inactive)
REMARK    1  A    between atoms: C_11  and  C_2 
ROOT
ATOM      1  C   UNL d   1       0.178   1.727   0.000  0.00  0.00     0.026 A 
ATOM      2  C   UNL d   1      -0.522   1.317   0.000  0.00  0.00     0.007 A 
ATOM      3  C   UNL d   1       0.178   2.543   0.000  0.00  0.00     0.103 A 
ATOM      4  C   UNL d   1      -1.237   1.716   0.000  0.00  0.00     0.026 A 
ATOM      5  C   UNL d   1       0.896   1.317   0.000  0.00  0.00     0.047 A 
ATOM      6  C   UNL d   1      -1.237   2.536   0.000  0.00  0.00     0.103 A 
ATOM      7  O   UNL d   1      -0.522   2.957   0.000  0.00  0.00    -0.307 OA
ATOM      8  C   UNL d   1       0.885   2.960   0.000  0.00  0.00     0.070 A 
ATOM      9  C   UNL d   1       1.611   1.716   0.000  0.00  0.00     0.234 A 
ATOM     10  C   UNL d   1       1.614   2.543   0.000  0.00  0.00     0.236 A 
ATOM     11  C   UNL d   1      -1.955   1.317   0.000  0.00  0.00     0.047 A 
ATOM     12  C   UNL d   1      -1.959   2.960   0.000  0.00  0.00     0.070 A 
ATOM     13  C   UNL d   1      -2.685   1.727   0.000  0.00  0.00     0.234 A 
ATOM     14  C   UNL d   1      -2.674   2.554   0.000  0.00  0.00     0.236 A 
ATOM     15  O   UNL d   1       2.333   2.935   0.000  0.00  0.00    -0.283 OA
ATOM     16  O   UNL d   1       2.311   1.292   0.000  0.00  0.00    -0.283 OA
ATOM     17  O   UNL d   1      -3.396   1.324   0.000  0.00  0.00    -0.283 OA
ATOM     18  O   UNL d   1      -3.381   2.978   0.000  0.00  0.00    -0.283 OA
ENDROOT
BRANCH   2  19
ATOM     19  C   UNL d   1      -0.522   0.497   0.000  0.00  0.00     0.039 A 
ATOM     20  C   UNL d   1      -1.248   0.083   0.000  0.00  0.00     0.196 A 
ATOM     21  O   UNL d   1      -1.955   0.479   0.000  0.00  0.00    -0.287 OA
ATOM     22  C   UNL d   1      -1.248  -0.744   0.000  0.00  0.00     0.042 A 
ATOM     23  C   UNL d   1      -0.522  -1.165   0.000  0.00  0.00     0.003 A 
ATOM     24  C   UNL d   1       0.189  -0.744   0.000  0.00  0.00     0.000 A 
ATOM     25  C   UNL d   1       0.178   0.083   0.000  0.00  0.00     0.003 A 
ENDBRANCH   2  19
TORSDOF 1
