REMARK  5 active torsions:
REMARK  status: ('A' for Active; 'I' for Inactive)
REMARK    1  A    between atoms: N_2  and  C_7 
REMARK    2  A    between atoms: N_8  and  C_3 
REMARK    3  A    between atoms: C_11  and  C_4 
REMARK    4  A    between atoms: N_9  and  N_8 
REMARK    5  A    between atoms: C_17  and  N_9 
ROOT
ATOM      1  N   UNL d   1      -1.093   0.386   0.000  0.00  0.00    -0.219 NA
ATOM      2  C   UNL d   1      -0.514   0.981   0.000  0.00  0.00     0.215 A 
ATOM      3  C   UNL d   1      -1.844   0.766   0.000  0.00  0.00     0.090 A 
ATOM      4  S   UNL d   1      -0.895   1.699   0.000  0.00  0.00    -0.045 SA
ATOM      5  C   UNL d   1      -1.715   1.570   0.000  0.00  0.00     0.058 A 
ENDROOT
BRANCH   3   6
ATOM      6  C   UNL d   1      -2.567   0.348   0.000  0.00  0.00     0.018 A 
ATOM      7  C   UNL d   1      -2.567  -0.472   0.000  0.00  0.00     0.003 A 
ATOM      8  C   UNL d   1      -3.259  -0.884   0.000  0.00  0.00     0.024 A 
ATOM      9  C   UNL d   1      -3.982  -0.472   0.000  0.00  0.00     0.127 A 
ATOM     10  C   UNL d   1      -3.987   0.338   0.000  0.00  0.00     0.024 A 
ATOM     11  C   UNL d   1      -3.259   0.766   0.000  0.00  0.00     0.003 A 
BRANCH   9  12
ATOM     12  N   UNL d   1      -4.690  -0.874   0.000  0.00  0.00    -0.114 N 
ATOM     13  O   UNL d   1      -5.429  -0.520   0.000  0.00  0.00    -0.532 OA
ATOM     14  O   UNL d   1      -4.738  -1.678   0.000  0.00  0.00    -0.532 OA
ENDBRANCH   9  12
ENDBRANCH   3   6
BRANCH   2  15
ATOM     15  N   UNL d   1       0.322   0.895   0.000  0.00  0.00    -0.122 NA
BRANCH  15  16
ATOM     16  N   UNL d   1       0.643   0.129   0.000  0.00  0.00    -0.146 NA
BRANCH  16  17
ATOM     17  C   UNL d   1       1.479   0.043   0.000  0.00  0.00     0.103 C 
ATOM     18  C   UNL d   1       1.951   0.724   0.000  0.00  0.00     0.022 C 
ATOM     19  C   UNL d   1       1.822  -0.708   0.000  0.00  0.00     0.022 C 
ENDBRANCH  16  17
ENDBRANCH  15  16
ENDBRANCH   2  15
TORSDOF 5
