REMARK  6 active torsions:
REMARK  status: ('A' for Active; 'I' for Inactive)
REMARK    1  A    between atoms: N_2  and  S_1 
REMARK    2  A    between atoms: C_7  and  S_1 
REMARK    3  A    between atoms: C_8  and  N_2 
REMARK    4  A    between atoms: N_3  and  C_9 
REMARK    5  A    between atoms: N_4  and  N_3 
REMARK    6  A    between atoms: C_10  and  N_4 
ROOT
ATOM      1  C   UNL d   1       3.925  -4.179   0.000  0.00  0.00     0.094 A 
ATOM      2  C   UNL d   1       2.504  -3.350   0.000  0.00  0.00     0.103 A 
ATOM      3  C   UNL d   1       3.204  -4.588   0.000  0.00  0.00     0.021 A 
ATOM      4  C   UNL d   1       3.929  -3.354   0.000  0.00  0.00     0.021 A 
ATOM      5  C   UNL d   1       3.217  -2.929   0.000  0.00  0.00     0.022 A 
ATOM      6  C   UNL d   1       2.500  -4.175   0.000  0.00  0.00     0.022 A 
ENDROOT
BRANCH   1   7
ATOM      7  N   UNL d   1       4.638  -4.592   0.000  0.00  0.00    -0.158 NA
BRANCH   7   8
ATOM      8  S   UNL d   1       4.629  -5.417   0.000  0.00  0.00     0.285 S 
ATOM      9  O   UNL d   1       5.454  -5.417   0.000  0.00  0.00    -0.198 OA
ATOM     10  O   UNL d   1       3.804  -5.417   0.000  0.00  0.00    -0.198 OA
BRANCH   8  11
ATOM     11  C   UNL d   1       4.638  -6.242   0.000  0.00  0.00     0.105 A 
ATOM     12  C   UNL d   1       3.917  -6.654   0.000  0.00  0.00     0.013 A 
ATOM     13  C   UNL d   1       3.917  -7.479   0.000  0.00  0.00     0.001 A 
ATOM     14  C   UNL d   1       4.629  -7.892   0.000  0.00  0.00     0.000 A 
ATOM     15  C   UNL d   1       5.350  -7.479   0.000  0.00  0.00     0.001 A 
ATOM     16  C   UNL d   1       5.350  -6.654   0.000  0.00  0.00     0.013 A 
ENDBRANCH   8  11
ENDBRANCH   7   8
ENDBRANCH   1   7
BRANCH   2  17
ATOM     17  N   UNL d   1       1.788  -2.938   0.000  0.00  0.00    -0.148 NA
BRANCH  17  18
ATOM     18  N   UNL d   1       1.792  -2.112   0.000  0.00  0.00    -0.148 NA
BRANCH  18  19
ATOM     19  C   UNL d   1       1.075  -1.700   0.000  0.00  0.00     0.103 A 
ATOM     20  C   UNL d   1       0.362  -2.104   0.000  0.00  0.00     0.021 A 
ATOM     21  C   UNL d   1      -0.346  -1.700   0.000  0.00  0.00     0.002 A 
ATOM     22  C   UNL d   1      -0.346  -0.875   0.000  0.00  0.00     0.000 A 
ATOM     23  C   UNL d   1       0.362  -0.454   0.000  0.00  0.00     0.002 A 
ATOM     24  C   UNL d   1       1.075  -0.875   0.000  0.00  0.00     0.021 A 
ENDBRANCH  18  19
ENDBRANCH  17  18
ENDBRANCH   2  17
TORSDOF 6
