REMARK  3 active torsions:
REMARK  status: ('A' for Active; 'I' for Inactive)
REMARK    1  A    between atoms: O_3  and  C_1 
REMARK    2  A    between atoms: C_4  and  O_3 
REMARK    3  A    between atoms: C_8  and  C_4 
ROOT
ATOM      1  C   UNL d   1      -0.562   0.300   0.000  0.00  0.00     0.131 A 
ATOM      2  C   UNL d   1       0.150   0.720   0.000  0.00  0.00     0.106 A 
ATOM      3  C   UNL d   1       0.150   1.544   0.000  0.00  0.00     0.030 A 
ATOM      4  C   UNL d   1      -1.282   0.712   0.000  0.00  0.00     0.083 A 
ATOM      5  C   UNL d   1      -0.570   1.956   0.000  0.00  0.00     0.060 A 
ATOM      6  C   UNL d   1      -1.282   1.544   0.000  0.00  0.00     0.025 A 
ATOM      7  N   UNL d   1       0.866   0.308   0.000  0.00  0.00    -0.242 NA
ATOM      8 CL   UNL d   1      -1.998   0.308   0.000  0.00  0.00    -0.080 Cl
ATOM      9 CL   UNL d   1      -0.570   2.780   0.000  0.00  0.00    -0.082 Cl
ATOM     10  C   UNL d   1       0.853   1.956   0.000  0.00  0.00     0.004 A 
ATOM     11  C   UNL d   1       1.577   0.720   0.000  0.00  0.00     0.099 A 
ATOM     12  C   UNL d   1       1.573   1.548   0.000  0.00  0.00     0.021 A 
ENDROOT
BRANCH   1  13
ATOM     13  O   UNL d   1      -0.570  -0.516   0.000  0.00  0.00    -0.269 OA
BRANCH  13  14
ATOM     14  C   UNL d   1       0.137  -0.941   0.000  0.00  0.00     0.323 C 
ATOM     15  O   UNL d   1       0.853  -0.537   0.000  0.00  0.00    -0.257 OA
BRANCH  14  16
ATOM     16  C   UNL d   1       0.129  -1.764   0.000  0.00  0.00     0.163 A 
ATOM     17  O   UNL d   1      -0.545  -2.247   0.000  0.00  0.00    -0.300 OA
ATOM     18  C   UNL d   1      -0.300  -3.025   0.000  0.00  0.00     0.123 A 
ATOM     19  C   UNL d   1       0.537  -3.034   0.000  0.00  0.00     0.029 A 
ATOM     20  C   UNL d   1       0.791  -2.251   0.000  0.00  0.00     0.032 A 
ENDBRANCH  14  16
ENDBRANCH  13  14
ENDBRANCH   1  13
TORSDOF 3
