REMARK  5 active torsions:
REMARK  status: ('A' for Active; 'I' for Inactive)
REMARK    1  A    between atoms: C_11  and  C_1 
REMARK    2  A    between atoms: C_2  and  N_5 
REMARK    3  A    between atoms: N_3  and  C_7 
REMARK       I    between atoms: N_5  and  C_6 
REMARK    4  A    between atoms: C_6  and  C_9 
REMARK    5  A    between atoms: C_16  and  C_8 
ROOT
ATOM      1  N   UNL d   1      -0.599   0.163   0.000  0.00  0.00    -0.183 NA
ATOM      2  C   UNL d   1       0.168  -0.268   0.000  0.00  0.00     0.281 C 
ATOM      3  O   UNL d   1       0.168  -1.105   0.000  0.00  0.00    -0.265 OA
ENDROOT
BRANCH   2   4
ATOM      4  C   UNL d   1       0.908   0.201   0.000  0.00  0.00     0.065 A 
ATOM      5  C   UNL d   1       1.612  -0.230   0.000  0.00  0.00     0.091 A 
ATOM      6  C   UNL d   1       2.328   0.201   0.000  0.00  0.00     0.133 A 
ATOM      7  C   UNL d   1       2.328   1.026   0.000  0.00  0.00     0.024 A 
ATOM      8  C   UNL d   1       1.612   1.457   0.000  0.00  0.00     0.002 A 
ATOM      9  C   UNL d   1       0.908   1.026   0.000  0.00  0.00     0.005 A 
BRANCH   5  10
ATOM     10  C   UNL d   1       1.612  -1.042   0.000  0.00  0.00     0.213 C 
ATOM     11  O   UNL d   1       2.328  -1.474   0.000  0.00  0.00    -0.644 OA
ATOM     12  O   UNL d   1       0.892  -1.361   0.000  0.00  0.00    -0.644 OA
ENDBRANCH   5  10
BRANCH   6  13
ATOM     13  N   UNL d   1       3.044  -0.188   0.000  0.00  0.00    -0.114 N 
ATOM     14  O   UNL d   1       3.131  -1.009   0.000  0.00  0.00    -0.532 OA
ATOM     15  O   UNL d   1       3.768   0.184   0.000  0.00  0.00    -0.532 OA
ENDBRANCH   6  13
ENDBRANCH   2   4
BRANCH   1  16
ATOM     16  C   UNL d   1      -1.302  -0.268   0.000  0.00  0.00     0.197 A 
ATOM     17  N   UNL d   1      -1.993   0.121   0.000  0.00  0.00    -0.221 NA
ATOM     18  C   UNL d   1      -2.583  -0.431   0.000  0.00  0.00     0.090 A 
ATOM     19  C   UNL d   1      -2.273  -1.105   0.000  0.00  0.00     0.058 A 
ATOM     20  S   UNL d   1      -1.453  -1.105   0.000  0.00  0.00    -0.046 SA
BRANCH  18  21
ATOM     21  C   UNL d   1      -3.399  -0.331   0.000  0.00  0.00     0.018 A 
ATOM     22  C   UNL d   1      -3.713   0.435   0.000  0.00  0.00     0.002 A 
ATOM     23  C   UNL d   1      -4.542   0.548   0.000  0.00  0.00     0.000 A 
ATOM     24  C   UNL d   1      -5.045  -0.117   0.000  0.00  0.00     0.000 A 
ATOM     25  C   UNL d   1      -4.731  -0.871   0.000  0.00  0.00     0.000 A 
ATOM     26  C   UNL d   1      -3.902  -0.984   0.000  0.00  0.00     0.002 A 
ENDBRANCH  18  21
ENDBRANCH   1  16
TORSDOF 5
