REMARK  3 active torsions:
REMARK  status: ('A' for Active; 'I' for Inactive)
REMARK    1  A    between atoms: C_3  and  C_1 
REMARK       I    between atoms: N_7  and  C_3 
REMARK    2  A    between atoms: C_11  and  N_7 
REMARK    3  A    between atoms: O_17  and  C_12 
ROOT
ATOM      1  C   UNL d   1      -1.625   0.805   0.000  0.00  0.00     0.121 A 
ATOM      2  C   UNL d   1      -1.625   0.000   0.000  0.00  0.00     0.305 A 
ATOM      3  C   UNL d   1      -2.347   1.217   0.000  0.00  0.00     0.012 A 
ATOM      4  O   UNL d   1      -2.347  -0.407   0.000  0.00  0.00    -0.273 OA
ATOM      5  C   UNL d   1      -3.058   0.805   0.000  0.00  0.00     0.023 A 
ATOM      6  C   UNL d   1      -3.058   0.000   0.000  0.00  0.00     0.103 A 
ATOM      7  O   UNL d   1      -0.908  -0.407   0.000  0.00  0.00    -0.259 OA
ATOM      8  C   UNL d   1      -3.776   1.217   0.000  0.00  0.00     0.002 A 
ATOM      9  C   UNL d   1      -3.776  -0.407   0.000  0.00  0.00     0.025 A 
ATOM     10  C   UNL d   1      -4.497   0.000   0.000  0.00  0.00     0.002 A 
ATOM     11  C   UNL d   1      -4.497   0.805   0.000  0.00  0.00     0.000 A 
ENDROOT
BRANCH   1  12
ATOM     12  C   UNL d   1      -0.908   1.217   0.000  0.00  0.00     0.284 C 
ATOM     13  N   UNL d   1      -0.186   0.820   0.000  0.00  0.00    -0.208 NA
ATOM     14  O   UNL d   1      -0.882   2.042   0.000  0.00  0.00    -0.265 OA
BRANCH  13  15
ATOM     15  C   UNL d   1       0.495   1.238   0.000  0.00  0.00     0.085 A 
ATOM     16  C   UNL d   1       0.495   2.068   0.000  0.00  0.00     0.021 A 
ATOM     17  C   UNL d   1       1.181   2.502   0.000  0.00  0.00     0.026 A 
ATOM     18  C   UNL d   1       1.924   2.084   0.000  0.00  0.00     0.094 A 
ATOM     19  C   UNL d   1       1.924   1.238   0.000  0.00  0.00     0.026 A 
ATOM     20  C   UNL d   1       1.212   0.846   0.000  0.00  0.00     0.021 A 
BRANCH  18  21
ATOM     21  O   UNL d   1       2.636   2.502   0.000  0.00  0.00    -0.328 OA
ATOM     22  C   UNL d   1       3.347   2.084   0.000  0.00  0.00     0.181 C 
ENDBRANCH  18  21
ENDBRANCH  13  15
ENDBRANCH   1  12
TORSDOF 3
