REMARK  2 active torsions:
REMARK  status: ('A' for Active; 'I' for Inactive)
REMARK    1  A    between atoms: C_2  and  S_1 
REMARK    2  A    between atoms: N_3  and  S_1 
ROOT
ATOM      1  S   UNL d   1       0.029  -0.275   0.000  0.00  0.00     0.272 S 
ATOM      2  O   UNL d   1      -0.687   0.133   0.000  0.00  0.00    -0.200 OA
ATOM      3  O   UNL d   1       0.741   0.146   0.000  0.00  0.00    -0.200 OA
ENDROOT
BRANCH   1   4
ATOM      4  C   UNL d   1       0.025   0.549   0.000  0.00  0.00     0.115 A 
ATOM      5  C   UNL d   1      -0.687   0.949   0.000  0.00  0.00     0.071 A 
ATOM      6  C   UNL d   1      -0.699   1.769   0.000  0.00  0.00     0.024 A 
ATOM      7 CL   UNL d   1      -1.407   0.545   0.000  0.00  0.00    -0.082 Cl
ATOM      8  C   UNL d   1       0.013   2.193   0.000  0.00  0.00     0.059 A 
ATOM      9  C   UNL d   1       0.728   1.781   0.000  0.00  0.00     0.011 A 
ATOM     10 CL   UNL d   1       0.004   3.017   0.000  0.00  0.00    -0.082 Cl
ATOM     11  C   UNL d   1       0.737   0.961   0.000  0.00  0.00     0.015 A 
ATOM     12  C   UNL d   1       1.436   2.206   0.000  0.00  0.00     0.001 C 
ENDBRANCH   1   4
BRANCH   1  13
ATOM     13  N   UNL d   1       0.037  -1.099   0.000  0.00  0.00    -0.229 N 
ATOM     14  C   UNL d   1      -0.745  -1.440   0.000  0.00  0.00     0.092 A 
ATOM     15  C   UNL d   1      -0.999  -2.114   0.000  0.00  0.00     0.020 A 
ATOM     16  C   UNL d   1      -0.545  -2.813   0.000  0.00  0.00     0.002 A 
ATOM     17  C   UNL d   1       0.329  -2.863   0.000  0.00  0.00     0.002 A 
ATOM     18  C   UNL d   1       0.916  -2.201   0.000  0.00  0.00     0.020 A 
ATOM     19  C   UNL d   1       0.728  -1.377   0.000  0.00  0.00     0.092 A 
ENDBRANCH   1  13
TORSDOF 2
