REMARK  4 active torsions:
REMARK  status: ('A' for Active; 'I' for Inactive)
REMARK    1  A    between atoms: N_4  and  C_1 
REMARK    2  A    between atoms: N_2  and  N_4 
REMARK    3  A    between atoms: C_6  and  N_2 
REMARK    4  A    between atoms: C_8  and  C_6 
ROOT
ATOM      1  C   UNL d   1      -0.932  -2.842   0.000  0.00  0.00     0.008 A 
ATOM      2  C   UNL d   1      -0.932  -2.019   0.000  0.00  0.00     0.021 A 
ATOM      3  C   UNL d   1      -1.662  -3.261   0.000  0.00  0.00     0.035 A 
ATOM      4 BR   UNL d   1      -1.662  -4.100   0.000  0.00  0.00    -0.049 Br
ATOM      5  C   UNL d   1      -2.372  -2.019   0.000  0.00  0.00     0.001 A 
ATOM      6  C   UNL d   1      -2.372  -2.842   0.000  0.00  0.00     0.007 A 
ATOM      7  C   UNL d   1      -1.642  -1.611   0.000  0.00  0.00     0.002 A 
ENDROOT
BRANCH   2   8
ATOM      8  C   UNL d   1      -0.206  -1.588   0.000  0.00  0.00     0.122 C 
BRANCH   8   9
ATOM      9  N   UNL d   1      -0.206  -0.745   0.000  0.00  0.00    -0.144 NA
BRANCH   9  10
ATOM     10  N   UNL d   1       0.512  -0.326   0.000  0.00  0.00    -0.115 NA
BRANCH  10  11
ATOM     11  C   UNL d   1       0.512   0.485   0.000  0.00  0.00     0.260 C 
ATOM     12  S   UNL d   1       1.238   0.916   0.000  0.00  0.00    -0.034 SA
ATOM     13  N   UNL d   1      -0.186   0.897   0.000  0.00  0.00    -0.113 N 
ENDBRANCH  10  11
ENDBRANCH   9  10
ENDBRANCH   8   9
ENDBRANCH   2   8
TORSDOF 4
