REMARK  5 active torsions:
REMARK  status: ('A' for Active; 'I' for Inactive)
REMARK    1  A    between atoms: C_4  and  C_1 
REMARK       I    between atoms: N_8  and  C_4 
REMARK    2  A    between atoms: C_17  and  N_8 
REMARK    3  A    between atoms: C_18  and  N_8 
REMARK    4  A    between atoms: C_15  and  C_11 
REMARK    5  A    between atoms: C_12  and  C_15 
ROOT
ATOM      1  C   UNL d   1       0.276   1.654   0.000  0.00  0.00     0.120 A 
ATOM      2  C   UNL d   1       0.276   0.812   0.000  0.00  0.00     0.305 A 
ATOM      3  O   UNL d   1      -0.444   0.410   0.000  0.00  0.00    -0.273 OA
ATOM      4  C   UNL d   1      -0.444   2.064   0.000  0.00  0.00     0.012 A 
ATOM      5  C   UNL d   1      -1.160   0.827   0.000  0.00  0.00     0.103 A 
ATOM      6  C   UNL d   1      -1.160   1.654   0.000  0.00  0.00     0.023 A 
ATOM      7  O   UNL d   1       0.992   0.368   0.000  0.00  0.00    -0.259 OA
ATOM      8  C   UNL d   1      -1.857   0.410   0.000  0.00  0.00     0.023 A 
ATOM      9  C   UNL d   1      -1.857   2.064   0.000  0.00  0.00     0.002 A 
ATOM     10  C   UNL d   1      -2.573   1.654   0.000  0.00  0.00     0.000 A 
ATOM     11  C   UNL d   1      -2.573   0.812   0.000  0.00  0.00     0.002 A 
ENDROOT
BRANCH   1  12
ATOM     12  C   UNL d   1       0.992   2.098   0.000  0.00  0.00     0.270 C 
ATOM     13  N   UNL d   1       1.704   1.696   0.000  0.00  0.00    -0.272 N 
ATOM     14  O   UNL d   1       0.969   2.948   0.000  0.00  0.00    -0.266 OA
BRANCH  13  15
ATOM     15  C   UNL d   1       1.716   0.873   0.000  0.00  0.00     0.083 C 
ATOM     16  C   UNL d   1       2.424   0.471   0.000  0.00  0.00     0.021 C 
ENDBRANCH  13  15
BRANCH  13  17
ATOM     17  C   UNL d   1       2.416   2.110   0.000  0.00  0.00     0.083 C 
ATOM     18  C   UNL d   1       3.125   1.700   0.000  0.00  0.00     0.021 C 
ENDBRANCH  13  17
ENDBRANCH   1  12
BRANCH   8  19
ATOM     19  C   UNL d   1      -1.849  -0.414   0.000  0.00  0.00     0.002 C 
BRANCH  19  20
ATOM     20  C   UNL d   1      -2.546  -0.831   0.000  0.00  0.00     0.000 C 
ATOM     21  C   UNL d   1      -2.539  -1.669   0.000  0.00  0.00     0.000 C 
ENDBRANCH  19  20
ENDBRANCH   8  19
TORSDOF 5
