REMARK  4 active torsions:
REMARK  status: ('A' for Active; 'I' for Inactive)
REMARK    1  A    between atoms: N_6  and  C_2 
REMARK    2  A    between atoms: C_7  and  C_3 
REMARK    3  A    between atoms: C_10  and  N_6 
REMARK    4  A    between atoms: O_14  and  C_11 
ROOT
ATOM      1  N   UNL d   1      -3.576   0.307   0.000  0.00  0.00    -0.221 NA
ATOM      2  C   UNL d   1      -3.103   0.979   0.000  0.00  0.00     0.194 A 
ATOM      3  C   UNL d   1      -4.352   0.557   0.000  0.00  0.00     0.090 A 
ATOM      4  S   UNL d   1      -3.603   1.624   0.000  0.00  0.00    -0.046 SA
ATOM      5  C   UNL d   1      -4.373   1.374   0.000  0.00  0.00     0.058 A 
ENDROOT
BRANCH   3   6
ATOM      6  C   UNL d   1      -5.055   0.125   0.000  0.00  0.00     0.018 A 
ATOM      7  C   UNL d   1      -5.055  -0.661   0.000  0.00  0.00     0.004 A 
ATOM      8  C   UNL d   1      -5.774  -1.083   0.000  0.00  0.00     0.024 A 
ATOM      9  C   UNL d   1      -6.450  -0.687   0.000  0.00  0.00     0.094 A 
ATOM     10  C   UNL d   1      -6.476   0.125   0.000  0.00  0.00     0.024 A 
ATOM     11  C   UNL d   1      -5.774   0.557   0.000  0.00  0.00     0.004 A 
BRANCH   9  12
ATOM     12  O   UNL d   1      -7.179  -1.130   0.000  0.00  0.00    -0.328 OA
ATOM     13  C   UNL d   1      -7.132  -1.958   0.000  0.00  0.00     0.181 C 
ENDBRANCH   9  12
ENDBRANCH   3   6
BRANCH   2  14
ATOM     14  N   UNL d   1      -2.275   0.979   0.000  0.00  0.00    -0.221 NA
BRANCH  14  15
ATOM     15  C   UNL d   1      -1.869   1.687   0.000  0.00  0.00     0.084 A 
ATOM     16  C   UNL d   1      -2.275   2.416   0.000  0.00  0.00     0.019 A 
ATOM     17  C   UNL d   1      -1.869   3.150   0.000  0.00  0.00     0.002 A 
ATOM     18  C   UNL d   1      -1.041   3.150   0.000  0.00  0.00     0.000 A 
ATOM     19  C   UNL d   1      -0.620   2.400   0.000  0.00  0.00     0.002 A 
ATOM     20  C   UNL d   1      -1.026   1.687   0.000  0.00  0.00     0.019 A 
ENDBRANCH  14  15
ENDBRANCH   2  14
TORSDOF 4
