REMARK  4 active torsions:
REMARK  status: ('A' for Active; 'I' for Inactive)
REMARK    1  A    between atoms: C_6  and  C_2 
REMARK    2  A    between atoms: C_7  and  C_5 
REMARK    3  A    between atoms: O_8  and  C_7 
REMARK    4  A    between atoms: C_9  and  O_8 
ROOT
ATOM      1  N   UNL d   1       0.656  -0.580   0.000  0.00  0.00    -0.121 NA
ATOM      2  C   UNL d   1      -0.096  -0.906   0.000  0.00  0.00     0.204 A 
ATOM      3  O   UNL d   1      -0.013  -1.733   0.000  0.00  0.00    -0.267 OA
ATOM      4  N   UNL d   1       1.207  -1.194   0.000  0.00  0.00    -0.119 NA
ATOM      5  C   UNL d   1       0.793  -1.908   0.000  0.00  0.00     0.230 A 
ENDROOT
BRANCH   5   6
ATOM      6  C   UNL d   1       1.131  -2.660   0.000  0.00  0.00     0.169 C 
BRANCH   6   7
ATOM      7  O   UNL d   1       1.954  -2.747   0.000  0.00  0.00    -0.301 OA
BRANCH   7   8
ATOM      8  C   UNL d   1       2.284  -3.507   0.000  0.00  0.00     0.100 A 
ATOM      9  C   UNL d   1       1.795  -4.171   0.000  0.00  0.00     0.025 A 
ATOM     10  C   UNL d   1       2.129  -4.923   0.000  0.00  0.00     0.002 A 
ATOM     11  C   UNL d   1       2.948  -5.015   0.000  0.00  0.00     0.000 A 
ATOM     12  C   UNL d   1       3.436  -4.346   0.000  0.00  0.00     0.002 A 
ATOM     13  C   UNL d   1       3.111  -3.587   0.000  0.00  0.00     0.025 A 
ENDBRANCH   7   8
ENDBRANCH   6   7
ENDBRANCH   5   6
BRANCH   2  14
ATOM     14  C   UNL d   1      -0.810  -0.493   0.000  0.00  0.00     0.043 A 
ATOM     15  C   UNL d   1      -0.810   0.334   0.000  0.00  0.00     0.004 A 
ATOM     16  C   UNL d   1      -1.524   0.747   0.000  0.00  0.00     0.000 A 
ATOM     17  C   UNL d   1      -2.238   0.334   0.000  0.00  0.00     0.000 A 
ATOM     18  C   UNL d   1      -2.238  -0.493   0.000  0.00  0.00     0.000 A 
ATOM     19  C   UNL d   1      -1.524  -0.906   0.000  0.00  0.00     0.004 A 
ENDBRANCH   2  14
TORSDOF 4
