REMARK  2 active torsions:
REMARK  status: ('A' for Active; 'I' for Inactive)
REMARK       I    between atoms: C_3  and  N_1 
REMARK       I    between atoms: C_4  and  N_2 
REMARK    1  A    between atoms: C_6  and  C_3 
REMARK    2  A    between atoms: C_8  and  C_4 
ROOT
ATOM      1  N   UNL d   1      -0.801   0.684   0.000  0.00  0.00    -0.270 N 
ATOM      2  N   UNL d   1       0.855   0.684   0.000  0.00  0.00    -0.269 N 
ATOM      3  C   UNL d   1      -1.623   0.684   0.000  0.00  0.00     0.265 C 
ATOM      4  C   UNL d   1       1.681   0.688   0.000  0.00  0.00     0.265 C 
ATOM      5  C   UNL d   1      -0.384   1.401   0.000  0.00  0.00     0.085 A 
ATOM      6  C   UNL d   1       0.438   1.410   0.000  0.00  0.00     0.101 A 
ATOM      7  C   UNL d   1      -0.384  -0.029   0.000  0.00  0.00     0.102 A 
ATOM      8  C   UNL d   1       0.451  -0.029   0.000  0.00  0.00     0.102 A 
ATOM      9  O   UNL d   1      -2.040   1.401   0.000  0.00  0.00    -0.267 OA
ATOM     10  O   UNL d   1       2.094   1.410   0.000  0.00  0.00    -0.267 OA
ATOM     11  C   UNL d   1      -0.801   2.123   0.000  0.00  0.00     0.021 C 
ENDROOT
BRANCH   3  12
ATOM     12  C   UNL d   1      -2.035  -0.029   0.000  0.00  0.00     0.057 A 
ATOM     13  C   UNL d   1      -2.861  -0.029   0.000  0.00  0.00     0.005 A 
ATOM     14  C   UNL d   1      -3.274  -0.743   0.000  0.00  0.00     0.000 A 
ATOM     15  C   UNL d   1      -4.100  -0.743   0.000  0.00  0.00     0.000 C 
ATOM     16  C   UNL d   1      -2.861  -1.456   0.000  0.00  0.00     0.000 A 
ATOM     17  C   UNL d   1      -2.027  -1.456   0.000  0.00  0.00     0.000 A 
ATOM     18  C   UNL d   1      -1.623  -0.743   0.000  0.00  0.00     0.005 A 
ENDBRANCH   3  12
BRANCH   4  19
ATOM     19  C   UNL d   1       2.094  -0.025   0.000  0.00  0.00     0.057 A 
ATOM     20  C   UNL d   1       2.920  -0.017   0.000  0.00  0.00     0.005 A 
ATOM     21  C   UNL d   1       3.333  -0.730   0.000  0.00  0.00     0.000 A 
ATOM     22  C   UNL d   1       4.159  -0.730   0.000  0.00  0.00     0.000 C 
ATOM     23  C   UNL d   1       2.920  -1.452   0.000  0.00  0.00     0.000 A 
ATOM     24  C   UNL d   1       2.102  -1.456   0.000  0.00  0.00     0.000 A 
ATOM     25  C   UNL d   1       1.681  -0.738   0.000  0.00  0.00     0.005 A 
ENDBRANCH   4  19
TORSDOF 2
