REMARK  2 active torsions:
REMARK  status: ('A' for Active; 'I' for Inactive)
REMARK    1  A    between atoms: C_3  and  C_1 
REMARK       I    between atoms: N_7  and  C_3 
REMARK    2  A    between atoms: C_11  and  N_7 
ROOT
ATOM      1  C   UNL d   1      -0.648   2.380   0.000  0.00  0.00     0.121 A 
ATOM      2  C   UNL d   1      -0.648   1.555   0.000  0.00  0.00     0.305 A 
ATOM      3  C   UNL d   1      -1.369   2.800   0.000  0.00  0.00     0.012 A 
ATOM      4  O   UNL d   1      -1.369   1.161   0.000  0.00  0.00    -0.273 OA
ATOM      5  C   UNL d   1      -2.069   2.380   0.000  0.00  0.00     0.023 A 
ATOM      6  C   UNL d   1      -2.069   1.555   0.000  0.00  0.00     0.103 A 
ATOM      7  O   UNL d   1       0.047   1.135   0.000  0.00  0.00    -0.259 OA
ATOM      8  C   UNL d   1      -2.794   2.800   0.000  0.00  0.00     0.002 A 
ATOM      9  C   UNL d   1      -2.794   1.161   0.000  0.00  0.00     0.025 A 
ATOM     10  C   UNL d   1      -3.484   2.380   0.000  0.00  0.00     0.000 A 
ATOM     11  C   UNL d   1      -3.484   1.555   0.000  0.00  0.00     0.002 A 
ENDROOT
BRANCH   1  12
ATOM     12  C   UNL d   1       0.067   2.800   0.000  0.00  0.00     0.284 C 
ATOM     13  N   UNL d   1       0.793   2.405   0.000  0.00  0.00    -0.208 NA
ATOM     14  O   UNL d   1       0.099   3.624   0.000  0.00  0.00    -0.265 OA
BRANCH  13  15
ATOM     15  C   UNL d   1       1.493   2.825   0.000  0.00  0.00     0.085 A 
ATOM     16  C   UNL d   1       2.214   2.437   0.000  0.00  0.00     0.019 A 
ATOM     17  C   UNL d   1       2.924   2.857   0.000  0.00  0.00     0.002 A 
ATOM     18  C   UNL d   1       2.898   3.686   0.000  0.00  0.00     0.000 A 
ATOM     19  C   UNL d   1       2.183   4.101   0.000  0.00  0.00     0.002 A 
ATOM     20  C   UNL d   1       3.583   4.106   0.000  0.00  0.00     0.000 C 
ATOM     21  C   UNL d   1       1.478   3.665   0.000  0.00  0.00     0.019 A 
ENDBRANCH  13  15
ENDBRANCH   1  12
TORSDOF 2
