REMARK  4 active torsions:
REMARK  status: ('A' for Active; 'I' for Inactive)
REMARK    1  A    between atoms: N_7  and  C_1 
REMARK    2  A    between atoms: C_12  and  N_4 
REMARK    3  A    between atoms: S_6  and  N_7 
REMARK    4  A    between atoms: C_11  and  S_6 
ROOT
ATOM      1  C   UNL d   1       4.007  -2.287   0.000  0.00  0.00     0.169 A 
ATOM      2  C   UNL d   1       4.007  -3.118   0.000  0.00  0.00     0.299 A 
ATOM      3  N   UNL d   1       2.737  -2.705   0.000  0.00  0.00    -0.238 N 
ATOM      4  N   UNL d   1       3.236  -3.375   0.000  0.00  0.00    -0.209 N 
ATOM      5  C   UNL d   1       3.262  -2.030   0.000  0.00  0.00     0.105 A 
ATOM      6  O   UNL d   1       4.698  -3.605   0.000  0.00  0.00    -0.263 OA
ATOM      7  C   UNL d   1       1.918  -2.705   0.000  0.00  0.00     0.120 C 
ATOM      8  C   UNL d   1       3.027  -1.211   0.000  0.00  0.00     0.022 C 
ENDROOT
BRANCH   1   9
ATOM      9  N   UNL d   1       4.698  -1.773   0.000  0.00  0.00    -0.152 NA
BRANCH   9  10
ATOM     10  S   UNL d   1       4.617  -0.954   0.000  0.00  0.00     0.285 S 
ATOM     11  O   UNL d   1       3.798  -1.034   0.000  0.00  0.00    -0.198 OA
ATOM     12  O   UNL d   1       5.469  -0.873   0.000  0.00  0.00    -0.198 OA
BRANCH  10  13
ATOM     13  C   UNL d   1       4.548  -0.134   0.000  0.00  0.00     0.105 A 
ATOM     14  C   UNL d   1       3.798   0.225   0.000  0.00  0.00     0.013 A 
ATOM     15  C   UNL d   1       3.718   1.055   0.000  0.00  0.00     0.001 A 
ATOM     16  C   UNL d   1       4.393   1.511   0.000  0.00  0.00     0.000 A 
ATOM     17  C   UNL d   1       5.164   1.152   0.000  0.00  0.00     0.001 A 
ATOM     18  C   UNL d   1       5.239   0.353   0.000  0.00  0.00     0.013 A 
ENDBRANCH  10  13
ENDBRANCH   9  10
ENDBRANCH   1   9
BRANCH   4  19
ATOM     19  C   UNL d   1       3.005  -4.168   0.000  0.00  0.00     0.085 A 
ATOM     20  C   UNL d   1       2.207  -4.377   0.000  0.00  0.00     0.019 A 
ATOM     21  C   UNL d   1       1.977  -5.175   0.000  0.00  0.00     0.002 A 
ATOM     22  C   UNL d   1       2.539  -5.758   0.000  0.00  0.00     0.000 A 
ATOM     23  C   UNL d   1       3.332  -5.550   0.000  0.00  0.00     0.002 A 
ATOM     24  C   UNL d   1       3.568  -4.762   0.000  0.00  0.00     0.019 A 
ENDBRANCH   4  19
TORSDOF 4
