REMARK  8 active torsions:
REMARK  status: ('A' for Active; 'I' for Inactive)
REMARK    1  A    between atoms: N_5  and  C_1 
REMARK    2  A    between atoms: C_2  and  N_5 
REMARK    3  A    between atoms: N_3  and  C_2 
REMARK       I    between atoms: C_6  and  N_3 
REMARK    4  A    between atoms: C_13  and  C_6 
REMARK    5  A    between atoms: C_9  and  C_7 
REMARK    6  A    between atoms: C_11  and  C_9 
REMARK    7  A    between atoms: O_18  and  C_11 
REMARK    8  A    between atoms: C_22  and  O_18 
ROOT
ATOM      1  C   UNL d   1       0.085   2.367   0.000  0.00  0.00     0.225 C 
ATOM      2  S   UNL d   1      -0.312   3.092   0.000  0.00  0.00    -0.037 SA
ENDROOT
BRANCH   1   3
ATOM      3  N   UNL d   1      -0.312   1.647   0.000  0.00  0.00    -0.192 NA
BRANCH   3   4
ATOM      4  C   UNL d   1      -1.123   1.647   0.000  0.00  0.00     0.196 A 
ATOM      5  N   UNL d   1      -1.710   1.075   0.000  0.00  0.00    -0.220 NA
ATOM      6  C   UNL d   1      -2.425   1.414   0.000  0.00  0.00     0.095 A 
ATOM      7  C   UNL d   1      -2.351   2.219   0.000  0.00  0.00     0.058 A 
ATOM      8  S   UNL d   1      -1.551   2.393   0.000  0.00  0.00    -0.046 SA
BRANCH   6   9
ATOM      9  C   UNL d   1      -3.193   0.995   0.000  0.00  0.00     0.088 C 
BRANCH   9  10
ATOM     10  C   UNL d   1      -3.219   0.185   0.000  0.00  0.00     0.302 C 
ATOM     11  O   UNL d   1      -3.939  -0.212   0.000  0.00  0.00    -0.259 OA
BRANCH  10  12
ATOM     12  O   UNL d   1      -2.505  -0.254   0.000  0.00  0.00    -0.271 OA
BRANCH  12  13
ATOM     13  C   UNL d   1      -1.774   0.143   0.000  0.00  0.00     0.126 C 
ATOM     14  C   UNL d   1      -1.075  -0.275   0.000  0.00  0.00     0.029 C 
ENDBRANCH  12  13
ENDBRANCH  10  12
ENDBRANCH   9  10
ENDBRANCH   6   9
ENDBRANCH   3   4
ENDBRANCH   1   3
BRANCH   1  15
ATOM     15  N   UNL d   1       0.927   2.367   0.000  0.00  0.00    -0.179 NA
ATOM     16  C   UNL d   1       1.308   1.668   0.000  0.00  0.00     0.281 C 
ATOM     17  O   UNL d   1       0.890   0.948   0.000  0.00  0.00    -0.265 OA
BRANCH  16  18
ATOM     18  C   UNL d   1       2.160   1.652   0.000  0.00  0.00     0.058 A 
ATOM     19  C   UNL d   1       2.563   0.932   0.000  0.00  0.00     0.005 A 
ATOM     20  C   UNL d   1       3.373   0.890   0.000  0.00  0.00     0.000 A 
ATOM     21  C   UNL d   1       3.812   1.604   0.000  0.00  0.00     0.000 A 
ATOM     22  C   UNL d   1       3.415   2.314   0.000  0.00  0.00     0.000 A 
ATOM     23  C   UNL d   1       4.638   1.604   0.000  0.00  0.00     0.000 C 
ATOM     24  C   UNL d   1       2.589   2.367   0.000  0.00  0.00     0.005 A 
ENDBRANCH  16  18
ENDBRANCH   1  15
TORSDOF 8
