REMARK  7 active torsions:
REMARK  status: ('A' for Active; 'I' for Inactive)
REMARK    1  A    between atoms: C_2  and  C_1 
REMARK       I    between atoms: N_8  and  C_1 
REMARK    2  A    between atoms: C_5  and  C_2 
REMARK    3  A    between atoms: C_6  and  C_2 
REMARK    4  A    between atoms: N_3  and  C_9 
REMARK    5  A    between atoms: C_13  and  N_8 
REMARK    6  A    between atoms: C_9  and  C_10 
REMARK    7  A    between atoms: C_10  and  C_13 
ROOT
ATOM      1  C   UNL d   1      -1.060   0.836   0.000  0.00  0.00     0.058 C 
ENDROOT
BRANCH   1   2
ATOM      2  C   UNL d   1      -0.221   0.826   0.000  0.00  0.00     0.279 C 
ATOM      3  O   UNL d   1       0.189   1.564   0.000  0.00  0.00    -0.265 OA
ATOM      4  N   UNL d   1       0.200   0.102   0.000  0.00  0.00    -0.206 NA
BRANCH   4   5
ATOM      5  C   UNL d   1       1.022   0.102   0.000  0.00  0.00     0.104 C 
BRANCH   5   6
ATOM      6  C   UNL d   1       1.442  -0.602   0.000  0.00  0.00     0.040 C 
BRANCH   6   7
ATOM      7  C   UNL d   1       2.257  -0.591   0.000  0.00  0.00     0.082 C 
BRANCH   7   8
ATOM      8  N   UNL d   1       2.660  -1.295   0.000  0.00  0.00    -0.299 N 
ATOM      9  C   UNL d   1       2.257  -2.019   0.000  0.00  0.00     0.107 A 
ATOM     10  C   UNL d   1       2.677  -2.733   0.000  0.00  0.00     0.142 A 
ATOM     11  O   UNL d   1       3.517  -2.719   0.000  0.00  0.00    -0.300 OA
ATOM     12  C   UNL d   1       3.926  -1.998   0.000  0.00  0.00     0.142 A 
ATOM     13  C   UNL d   1       3.499  -1.291   0.000  0.00  0.00     0.107 A 
ENDBRANCH   7   8
ENDBRANCH   6   7
ENDBRANCH   5   6
ENDBRANCH   4   5
ENDBRANCH   1   2
BRANCH   1  14
ATOM     14  C   UNL d   1      -1.466   1.550   0.000  0.00  0.00     0.005 A 
ATOM     15  C   UNL d   1      -2.289   1.529   0.000  0.00  0.00     0.000 A 
ATOM     16  C   UNL d   1      -2.716   2.233   0.000  0.00  0.00     0.000 A 
ATOM     17  C   UNL d   1      -2.278   2.989   0.000  0.00  0.00     0.000 A 
ATOM     18  C   UNL d   1      -1.449   2.978   0.000  0.00  0.00     0.000 A 
ATOM     19  C   UNL d   1      -1.036   2.264   0.000  0.00  0.00     0.000 A 
ENDBRANCH   1  14
BRANCH   1  20
ATOM     20  C   UNL d   1      -1.456   0.112   0.000  0.00  0.00     0.005 A 
ATOM     21  C   UNL d   1      -1.036  -0.588   0.000  0.00  0.00     0.000 A 
ATOM     22  C   UNL d   1      -1.435  -1.316   0.000  0.00  0.00     0.000 A 
ATOM     23  C   UNL d   1      -2.275  -1.326   0.000  0.00  0.00     0.000 A 
ATOM     24  C   UNL d   1      -2.684  -0.612   0.000  0.00  0.00     0.000 A 
ATOM     25  C   UNL d   1      -2.278   0.102   0.000  0.00  0.00     0.000 A 
ENDBRANCH   1  20
TORSDOF 7
