REMARK  5 active torsions:
REMARK  status: ('A' for Active; 'I' for Inactive)
REMARK    1  A    between atoms: C_8  and  C_1 
REMARK    2  A    between atoms: N_6  and  C_2 
REMARK    3  A    between atoms: C_12  and  C_4 
REMARK       I    between atoms: C_7  and  N_6 
REMARK    4  A    between atoms: C_9  and  C_7 
REMARK    5  A    between atoms: O_15  and  C_8 
ROOT
ATOM      1  C   UNL d   1      -1.682   1.397   0.000  0.00  0.00     0.110 A 
ATOM      2  C   UNL d   1      -2.206   0.774   0.000  0.00  0.00     0.096 A 
ATOM      3  S   UNL d   1      -0.911   1.067   0.000  0.00  0.00    -0.080 SA
ATOM      4  C   UNL d   1      -0.987   0.247   0.000  0.00  0.00     0.031 A 
ATOM      5  C   UNL d   1      -1.796   0.065   0.000  0.00  0.00     0.026 A 
ENDROOT
BRANCH   2   6
ATOM      6  N   UNL d   1      -3.026   0.866   0.000  0.00  0.00    -0.207 NA
ATOM      7  C   UNL d   1      -3.519   0.213   0.000  0.00  0.00     0.279 C 
ATOM      8  O   UNL d   1      -3.174  -0.550   0.000  0.00  0.00    -0.265 OA
BRANCH   7   9
ATOM      9  C   UNL d   1      -4.324   0.285   0.000  0.00  0.00     0.058 A 
ATOM     10  C   UNL d   1      -5.144   0.361   0.000  0.00  0.00     0.005 A 
ATOM     11  C   UNL d   1      -4.802  -0.391   0.000  0.00  0.00     0.005 A 
ENDBRANCH   7   9
ENDBRANCH   2   6
BRANCH   1  12
ATOM     12  C   UNL d   1      -1.879   2.198   0.000  0.00  0.00     0.303 C 
ATOM     13  O   UNL d   1      -2.684   2.433   0.000  0.00  0.00    -0.259 OA
BRANCH  12  14
ATOM     14  O   UNL d   1      -1.276   2.779   0.000  0.00  0.00    -0.295 OA
ATOM     15  C   UNL d   1      -0.497   2.562   0.000  0.00  0.00     0.185 C 
ENDBRANCH  12  14
ENDBRANCH   1  12
BRANCH   4  16
ATOM     16  C   UNL d   1      -0.330  -0.277   0.000  0.00  0.00     0.006 A 
ATOM     17  C   UNL d   1       0.437   0.030   0.000  0.00  0.00     0.001 A 
ATOM     18  C   UNL d   1       1.074  -0.482   0.000  0.00  0.00     0.000 A 
ATOM     19  C   UNL d   1       0.945  -1.302   0.000  0.00  0.00     0.000 A 
ATOM     20  C   UNL d   1       0.163  -1.594   0.000  0.00  0.00     0.000 A 
ATOM     21  C   UNL d   1      -0.456  -1.063   0.000  0.00  0.00     0.001 A 
ENDBRANCH   4  16
TORSDOF 5
