REMARK  2 active torsions:
REMARK  status: ('A' for Active; 'I' for Inactive)
REMARK    1  A    between atoms: C_6  and  C_4 
REMARK    2  A    between atoms: C_7  and  C_5 
ROOT
ATOM      1  O   UNL d   1      -1.284  -4.156   0.000  0.00  0.00    -0.268 OA
ATOM      2  N   UNL d   1      -0.058  -3.614   0.000  0.00  0.00    -0.121 NA
ATOM      3  N   UNL d   1      -0.609  -2.993   0.000  0.00  0.00    -0.121 NA
ATOM      4  C   UNL d   1      -1.363  -3.331   0.000  0.00  0.00     0.204 A 
ATOM      5  C   UNL d   1      -0.471  -4.319   0.000  0.00  0.00     0.204 A 
ENDROOT
BRANCH   4   6
ATOM      6  C   UNL d   1      -2.084  -2.918   0.000  0.00  0.00     0.046 A 
ATOM      7  C   UNL d   1      -2.797  -3.327   0.000  0.00  0.00     0.024 A 
ATOM      8  C   UNL d   1      -3.502  -2.918   0.000  0.00  0.00     0.099 A 
ATOM      9  N   UNL d   1      -3.502  -2.093   0.000  0.00  0.00    -0.242 NA
ATOM     10  C   UNL d   1      -2.797  -1.676   0.000  0.00  0.00     0.099 A 
ATOM     11  C   UNL d   1      -2.084  -2.093   0.000  0.00  0.00     0.024 A 
ENDBRANCH   4   6
BRANCH   5  12
ATOM     12  C   UNL d   1      -0.138  -5.082   0.000  0.00  0.00     0.043 A 
ATOM     13  C   UNL d   1      -0.625  -5.745   0.000  0.00  0.00     0.004 A 
ATOM     14  C   UNL d   1      -0.296  -6.495   0.000  0.00  0.00     0.000 A 
ATOM     15  C   UNL d   1       0.525  -6.583   0.000  0.00  0.00     0.000 A 
ATOM     16  C   UNL d   1       1.013  -5.920   0.000  0.00  0.00     0.000 A 
ATOM     17  C   UNL d   1       0.680  -5.165   0.000  0.00  0.00     0.004 A 
ENDBRANCH   5  12
TORSDOF 2
