REMARK  5 active torsions:
REMARK  status: ('A' for Active; 'I' for Inactive)
REMARK    1  A    between atoms: C_2  and  C_1 
REMARK       I    between atoms: N_3  and  C_1 
REMARK    2  A    between atoms: C_8  and  N_3 
REMARK    3  A    between atoms: N_4  and  C_9 
REMARK    4  A    between atoms: N_5  and  N_4 
REMARK    5  A    between atoms: C_10  and  N_5 
ROOT
ATOM      1  C   UNL d   1       4.839  -5.461   0.000  0.00  0.00     0.085 A 
ATOM      2  C   UNL d   1       3.411  -4.626   0.000  0.00  0.00     0.103 A 
ATOM      3  C   UNL d   1       4.839  -4.635   0.000  0.00  0.00     0.021 A 
ATOM      4  C   UNL d   1       4.121  -5.866   0.000  0.00  0.00     0.021 A 
ATOM      5  C   UNL d   1       3.411  -5.453   0.000  0.00  0.00     0.022 A 
ATOM      6  C   UNL d   1       4.125  -4.213   0.000  0.00  0.00     0.022 A 
ENDROOT
BRANCH   1   7
ATOM      7  N   UNL d   1       5.553  -5.879   0.000  0.00  0.00    -0.208 NA
ATOM      8  C   UNL d   1       5.549  -6.706   0.000  0.00  0.00     0.280 C 
ATOM      9  O   UNL d   1       4.889  -7.207   0.000  0.00  0.00    -0.265 OA
BRANCH   8  10
ATOM     10  C   UNL d   1       6.342  -6.918   0.000  0.00  0.00     0.069 A 
ATOM     11  C   UNL d   1       6.918  -6.330   0.000  0.00  0.00     0.062 A 
ATOM     12 CL   UNL d   1       6.706  -5.537   0.000  0.00  0.00    -0.082 Cl
ATOM     13  C   UNL d   1       7.720  -6.543   0.000  0.00  0.00     0.012 A 
ATOM     14  C   UNL d   1       7.933  -7.344   0.000  0.00  0.00     0.001 A 
ATOM     15  C   UNL d   1       7.344  -7.921   0.000  0.00  0.00     0.000 A 
ATOM     16  C   UNL d   1       6.555  -7.708   0.000  0.00  0.00     0.006 A 
ENDBRANCH   8  10
ENDBRANCH   1   7
BRANCH   2  17
ATOM     17  N   UNL d   1       2.697  -4.213   0.000  0.00  0.00    -0.148 NA
BRANCH  17  18
ATOM     18  N   UNL d   1       1.983  -4.626   0.000  0.00  0.00    -0.148 NA
BRANCH  18  19
ATOM     19  C   UNL d   1       1.265  -4.213   0.000  0.00  0.00     0.103 A 
ATOM     20  C   UNL d   1       0.551  -4.622   0.000  0.00  0.00     0.021 A 
ATOM     21  C   UNL d   1      -0.159  -4.213   0.000  0.00  0.00     0.002 A 
ATOM     22  C   UNL d   1      -0.159  -3.386   0.000  0.00  0.00     0.000 A 
ATOM     23  C   UNL d   1       0.551  -2.969   0.000  0.00  0.00     0.002 A 
ATOM     24  C   UNL d   1       1.265  -3.386   0.000  0.00  0.00     0.021 A 
ENDBRANCH  18  19
ENDBRANCH  17  18
ENDBRANCH   2  17
TORSDOF 5
