REMARK  2 active torsions:
REMARK  status: ('A' for Active; 'I' for Inactive)
REMARK    1  A    between atoms: S_6  and  C_1 
REMARK    2  A    between atoms: C_7  and  S_6 
ROOT
ATOM      1  C   UNL d   1       2.691   0.825   0.000  0.00  0.00     0.194 A 
ATOM      2  N   UNL d   1       2.197   1.515   0.000  0.00  0.00    -0.220 NA
ATOM      3  N   UNL d   1       2.197   0.167   0.000  0.00  0.00    -0.220 NA
ATOM      4  C   UNL d   1       1.429   1.264   0.000  0.00  0.00     0.101 A 
ATOM      5  C   UNL d   1       1.429   0.412   0.000  0.00  0.00     0.101 A 
ATOM      6  C   UNL d   1       0.685   1.650   0.000  0.00  0.00     0.021 A 
ATOM      7  C   UNL d   1       0.715   0.000   0.000  0.00  0.00     0.021 A 
ATOM      8  C   UNL d   1       0.000   0.412   0.000  0.00  0.00     0.002 A 
ATOM      9  C   UNL d   1       0.000   1.238   0.000  0.00  0.00     0.002 A 
ENDROOT
BRANCH   1  10
ATOM     10  S   UNL d   1       3.405   1.238   0.000  0.00  0.00    -0.049 SA
BRANCH  10  11
ATOM     11  C   UNL d   1       4.120   0.825   0.000  0.00  0.00     0.032 C 
ATOM     12  C   UNL d   1       4.120   0.000   0.000  0.00  0.00     0.007 C 
ATOM     13  C   UNL d   1       4.915   1.046   0.000  0.00  0.00     0.007 C 
ENDBRANCH  10  11
ENDBRANCH   1  10
TORSDOF 2
