REMARK  4 active torsions:
REMARK  status: ('A' for Active; 'I' for Inactive)
REMARK    1  A    between atoms: N_8  and  C_2 
REMARK    2  A    between atoms: C_9  and  C_3 
REMARK       I    between atoms: C_6  and  N_7 
REMARK    3  A    between atoms: C_10  and  C_6 
REMARK    4  A    between atoms: N_7  and  N_8 
ROOT
ATOM      1  C   UNL d   1       2.818   2.107   0.000  0.00  0.00     0.297 C 
ATOM      2  N   UNL d   1       1.974   2.107   0.000  0.00  0.00    -0.104 NA
ATOM      3  O   UNL d   1       3.224   2.814   0.000  0.00  0.00    -0.264 OA
ENDROOT
BRANCH   2   4
ATOM      4  N   UNL d   1       1.575   1.403   0.000  0.00  0.00    -0.119 NA
BRANCH   4   5
ATOM      5  C   UNL d   1       0.778   1.403   0.000  0.00  0.00     0.214 A 
ATOM      6  N   UNL d   1       0.223   0.782   0.000  0.00  0.00    -0.224 NA
ATOM      7  C   UNL d   1      -0.547   1.137   0.000  0.00  0.00     0.067 A 
ATOM      8  C   UNL d   1      -0.434   1.942   0.000  0.00  0.00     0.053 A 
ATOM      9  S   UNL d   1       0.363   2.107   0.000  0.00  0.00    -0.045 SA
BRANCH   7  10
ATOM     10  C   UNL d   1      -1.286   0.746   0.000  0.00  0.00     0.036 C 
ATOM     11  C   UNL d   1      -2.028   0.371   0.000  0.00  0.00     0.006 C 
ATOM     12  C   UNL d   1      -1.661   1.485   0.000  0.00  0.00     0.006 C 
ATOM     13  C   UNL d   1      -0.887   0.012   0.000  0.00  0.00     0.006 C 
ENDBRANCH   7  10
ENDBRANCH   4   5
ENDBRANCH   2   4
BRANCH   1  14
ATOM     14  C   UNL d   1       3.240   1.372   0.000  0.00  0.00     0.059 A 
ATOM     15  C   UNL d   1       2.814   0.657   0.000  0.00  0.00     0.005 A 
ATOM     16  C   UNL d   1       3.224  -0.027   0.000  0.00  0.00     0.007 A 
ATOM     17  C   UNL d   1       4.049  -0.051   0.000  0.00  0.00     0.035 A 
ATOM     18  C   UNL d   1       4.471   0.653   0.000  0.00  0.00     0.007 A 
ATOM     19 BR   UNL d   1       4.444  -0.766   0.000  0.00  0.00    -0.049 Br
ATOM     20  C   UNL d   1       4.061   1.360   0.000  0.00  0.00     0.005 A 
ENDBRANCH   1  14
TORSDOF 4
