REMARK  1 active torsions:
REMARK  status: ('A' for Active; 'I' for Inactive)
REMARK    1  A    between atoms: C_10  and  N_2 
ROOT
ATOM      1  C   UNL d   1       2.707   2.050   0.000  0.00  0.00     0.166 A 
ATOM      2  N   UNL d   1       2.211   1.383   0.000  0.00  0.00    -0.291 N 
ATOM      3  C   UNL d   1       2.211   2.707   0.000  0.00  0.00     0.117 A 
ATOM      4  C   UNL d   1       1.438   1.635   0.000  0.00  0.00     0.067 A 
ATOM      5  N   UNL d   1       3.537   2.132   0.000  0.00  0.00    -0.225 NA
ATOM      6  C   UNL d   1       1.438   2.460   0.000  0.00  0.00     0.037 A 
ATOM      7  N   UNL d   1       2.571   3.456   0.000  0.00  0.00    -0.241 NA
ATOM      8  C   UNL d   1       3.870   2.870   0.000  0.00  0.00     0.101 A 
ATOM      9  C   UNL d   1       3.374   3.537   0.000  0.00  0.00     0.099 A 
ATOM     10  C   UNL d   1       0.719   1.220   0.000  0.00  0.00     0.018 A 
ATOM     11  C   UNL d   1       0.719   2.870   0.000  0.00  0.00     0.003 A 
ATOM     12  C   UNL d   1       3.705   4.285   0.000  0.00  0.00     0.021 A 
ATOM     13  C   UNL d   1       4.671   2.959   0.000  0.00  0.00     0.021 A 
ATOM     14  C   UNL d   1       0.000   1.635   0.000  0.00  0.00     0.002 A 
ATOM     15  C   UNL d   1       0.000   2.460   0.000  0.00  0.00     0.000 A 
ATOM     16  C   UNL d   1       5.004   3.735   0.000  0.00  0.00     0.002 A 
ATOM     17  C   UNL d   1       4.535   4.397   0.000  0.00  0.00     0.002 A 
ENDROOT
BRANCH   2  18
ATOM     18  C   UNL d   1       2.460   0.613   0.000  0.00  0.00     0.066 C 
ATOM     19  C   UNL d   1       1.877   0.000   0.000  0.00  0.00     0.019 C 
ATOM     20  C   UNL d   1       3.263   0.445   0.000  0.00  0.00     0.019 C 
ENDBRANCH   2  18
TORSDOF 1
