REMARK  1 active torsions:
REMARK  status: ('A' for Active; 'I' for Inactive)
REMARK    1  A    between atoms: C_10  and  N_3 
ROOT
ATOM      1  C   UNL d   1       2.699   2.044   0.000  0.00  0.00     0.166 A 
ATOM      2  C   UNL d   1       2.204   2.699   0.000  0.00  0.00     0.117 A 
ATOM      3  N   UNL d   1       2.204   1.379   0.000  0.00  0.00    -0.289 N 
ATOM      4  N   UNL d   1       3.526   2.125   0.000  0.00  0.00    -0.225 NA
ATOM      5  N   UNL d   1       2.563   3.445   0.000  0.00  0.00    -0.241 NA
ATOM      6  C   UNL d   1       1.433   2.453   0.000  0.00  0.00     0.037 A 
ATOM      7  C   UNL d   1       1.433   1.630   0.000  0.00  0.00     0.067 A 
ATOM      8  C   UNL d   1       3.859   2.861   0.000  0.00  0.00     0.101 A 
ATOM      9  C   UNL d   1       3.364   3.526   0.000  0.00  0.00     0.099 A 
ATOM     10  C   UNL d   1       0.717   2.861   0.000  0.00  0.00     0.003 A 
ATOM     11  C   UNL d   1       0.717   1.216   0.000  0.00  0.00     0.018 A 
ATOM     12  C   UNL d   1       3.694   4.272   0.000  0.00  0.00     0.021 A 
ATOM     13  C   UNL d   1       4.657   2.950   0.000  0.00  0.00     0.021 A 
ATOM     14  C   UNL d   1       0.000   2.453   0.000  0.00  0.00     0.000 A 
ATOM     15  C   UNL d   1       0.000   1.630   0.000  0.00  0.00     0.002 A 
ATOM     16  C   UNL d   1       4.521   4.383   0.000  0.00  0.00     0.002 A 
ATOM     17  C   UNL d   1       4.989   3.723   0.000  0.00  0.00     0.002 A 
ENDROOT
BRANCH   3  18
ATOM     18  C   UNL d   1       2.453   0.611   0.000  0.00  0.00     0.082 C 
ATOM     19  C   UNL d   1       1.871   0.000   0.000  0.00  0.00     0.021 C 
ENDBRANCH   3  18
TORSDOF 1
