REMARK  3 active torsions:
REMARK  status: ('A' for Active; 'I' for Inactive)
REMARK    1  A    between atoms: C_14  and  N_3 
REMARK    2  A    between atoms: O_17  and  C_12 
REMARK    3  A    between atoms: O_16  and  C_13 
ROOT
ATOM      1  C   UNL d   1       2.707   2.050   0.000  0.00  0.00     0.166 A 
ATOM      2  C   UNL d   1       2.211   2.737   0.000  0.00  0.00     0.117 A 
ATOM      3  N   UNL d   1       2.211   1.383   0.000  0.00  0.00    -0.289 N 
ATOM      4  N   UNL d   1       3.537   2.161   0.000  0.00  0.00    -0.225 NA
ATOM      5  N   UNL d   1       2.544   3.485   0.000  0.00  0.00    -0.241 NA
ATOM      6  C   UNL d   1       1.438   2.460   0.000  0.00  0.00     0.037 A 
ATOM      7  C   UNL d   1       1.438   1.635   0.000  0.00  0.00     0.067 A 
ATOM      8  C   UNL d   1       3.870   2.905   0.000  0.00  0.00     0.103 A 
ATOM      9  C   UNL d   1       3.374   3.567   0.000  0.00  0.00     0.101 A 
ATOM     10  C   UNL d   1       4.671   2.981   0.000  0.00  0.00     0.047 A 
ATOM     11  C   UNL d   1       3.705   4.315   0.000  0.00  0.00     0.047 A 
ATOM     12  C   UNL d   1       4.535   4.426   0.000  0.00  0.00     0.118 A 
ATOM     13  C   UNL d   1       5.004   3.735   0.000  0.00  0.00     0.118 A 
ATOM     14  C   UNL d   1       0.719   2.870   0.000  0.00  0.00     0.003 A 
ATOM     15  C   UNL d   1       0.719   1.245   0.000  0.00  0.00     0.018 A 
ATOM     16  C   UNL d   1       0.000   2.460   0.000  0.00  0.00     0.000 A 
ATOM     17  C   UNL d   1       0.000   1.635   0.000  0.00  0.00     0.002 A 
ENDROOT
BRANCH   3  18
ATOM     18  C   UNL d   1       2.460   0.613   0.000  0.00  0.00     0.082 C 
ATOM     19  C   UNL d   1       1.907   0.000   0.000  0.00  0.00     0.021 C 
ENDBRANCH   3  18
BRANCH  13  20
ATOM     20  O   UNL d   1       5.809   3.816   0.000  0.00  0.00    -0.326 OA
ATOM     21  C   UNL d   1       6.306   3.152   0.000  0.00  0.00     0.181 C 
ENDBRANCH  13  20
BRANCH  12  22
ATOM     22  O   UNL d   1       4.868   5.197   0.000  0.00  0.00    -0.326 OA
ATOM     23  C   UNL d   1       4.367   5.864   0.000  0.00  0.00     0.181 C 
ENDBRANCH  12  22
TORSDOF 3
