REMARK  11 active torsions:
REMARK  status: ('A' for Active; 'I' for Inactive)
REMARK    1  A    between atoms: C_3  and  C_1 
REMARK    2  A    between atoms: N_4  and  C_1 
REMARK    3  A    between atoms: C_5  and  C_1 
REMARK       I    between atoms: C_2  and  N_4 
REMARK    4  A    between atoms: O_10  and  C_2 
REMARK    5  A    between atoms: O_7  and  C_3 
REMARK    6  A    between atoms: C_12  and  C_5 
REMARK    7  A    between atoms: C_6  and  C_12 
REMARK    8  A    between atoms: C_13  and  O_7 
REMARK    9  A    between atoms: C_15  and  O_10 
REMARK   10  A    between atoms: C_16  and  C_13 
REMARK   11  A    between atoms: C_17  and  C_15 
ROOT
ATOM      1  C   UNL d   1       0.727  -1.307   0.000  0.00  0.00     0.150 C 
ENDROOT
BRANCH   1   2
ATOM      2  C   UNL d   1       1.140  -2.021   0.000  0.00  0.00     0.318 C 
ATOM      3  O   UNL d   1       1.967  -2.021   0.000  0.00  0.00    -0.257 OA
BRANCH   2   4
ATOM      4  O   UNL d   1       0.727  -2.743   0.000  0.00  0.00    -0.270 OA
BRANCH   4   5
ATOM      5  C   UNL d   1       0.718  -3.570   0.000  0.00  0.00     0.126 C 
BRANCH   5   6
ATOM      6  C   UNL d   1       1.432  -3.983   0.000  0.00  0.00     0.025 A 
ATOM      7  C   UNL d   1       1.432  -4.802   0.000  0.00  0.00     0.002 A 
ATOM      8  C   UNL d   1       2.134  -5.215   0.000  0.00  0.00     0.000 A 
ATOM      9  C   UNL d   1       2.860  -4.810   0.000  0.00  0.00     0.000 A 
ATOM     10  C   UNL d   1       2.856  -3.975   0.000  0.00  0.00     0.000 A 
ATOM     11  C   UNL d   1       2.146  -3.570   0.000  0.00  0.00     0.002 A 
ENDBRANCH   5   6
ENDBRANCH   4   5
ENDBRANCH   2   4
ENDBRANCH   1   2
BRANCH   1  12
ATOM     12  N   UNL d   1       1.140  -0.593   0.000  0.00  0.00    -0.180 NA
ATOM     13  C   UNL d   1       1.967  -0.593   0.000  0.00  0.00     0.393 C 
ATOM     14  O   UNL d   1       2.380   0.125   0.000  0.00  0.00    -0.236 OA
BRANCH  13  15
ATOM     15  O   UNL d   1       2.380  -1.307   0.000  0.00  0.00    -0.256 OA
BRANCH  15  16
ATOM     16  C   UNL d   1       3.207  -1.307   0.000  0.00  0.00     0.128 C 
BRANCH  16  17
ATOM     17  C   UNL d   1       3.612  -0.589   0.000  0.00  0.00     0.025 A 
ATOM     18  C   UNL d   1       4.438  -0.589   0.000  0.00  0.00     0.002 A 
ATOM     19  C   UNL d   1       4.852   0.134   0.000  0.00  0.00     0.000 A 
ATOM     20  C   UNL d   1       4.438   0.848   0.000  0.00  0.00     0.000 A 
ATOM     21  C   UNL d   1       3.607   0.839   0.000  0.00  0.00     0.000 A 
ATOM     22  C   UNL d   1       3.198   0.121   0.000  0.00  0.00     0.002 A 
ENDBRANCH  16  17
ENDBRANCH  15  16
ENDBRANCH  13  15
ENDBRANCH   1  12
BRANCH   1  23
ATOM     23  C   UNL d   1      -0.100  -1.307   0.000  0.00  0.00     0.031 C 
BRANCH  23  24
ATOM     24  C   UNL d   1      -0.514  -0.593   0.000  0.00  0.00     0.072 C 
BRANCH  24  25
ATOM     25  C   UNL d   1      -1.340  -0.593   0.000  0.00  0.00     0.211 C 
ATOM     26  O   UNL d   1      -1.762  -1.307   0.000  0.00  0.00    -0.644 OA
ATOM     27  O   UNL d   1      -1.762   0.121   0.000  0.00  0.00    -0.644 OA
ENDBRANCH  24  25
ENDBRANCH  23  24
ENDBRANCH   1  23
TORSDOF 11
