REMARK  2 active torsions:
REMARK  status: ('A' for Active; 'I' for Inactive)
REMARK    1  A    between atoms: C_10  and  N_3 
REMARK    2  A    between atoms: C_15  and  C_10 
ROOT
ATOM      1  C   UNL d   1       2.691   2.802   0.000  0.00  0.00     0.166 A 
ATOM      2  C   UNL d   1       2.198   3.465   0.000  0.00  0.00     0.117 A 
ATOM      3  N   UNL d   1       2.198   2.148   0.000  0.00  0.00    -0.289 N 
ATOM      4  N   UNL d   1       3.516   2.888   0.000  0.00  0.00    -0.225 NA
ATOM      5  N   UNL d   1       2.556   4.206   0.000  0.00  0.00    -0.241 NA
ATOM      6  C   UNL d   1       1.429   3.214   0.000  0.00  0.00     0.037 A 
ATOM      7  C   UNL d   1       1.429   2.389   0.000  0.00  0.00     0.067 A 
ATOM      8  C   UNL d   1       3.848   3.627   0.000  0.00  0.00     0.101 A 
ATOM      9  C   UNL d   1       3.354   4.290   0.000  0.00  0.00     0.099 A 
ATOM     10  C   UNL d   1       0.715   3.627   0.000  0.00  0.00     0.003 A 
ATOM     11  C   UNL d   1       0.715   1.982   0.000  0.00  0.00     0.018 A 
ATOM     12  C   UNL d   1       3.683   5.031   0.000  0.00  0.00     0.021 A 
ATOM     13  C   UNL d   1       4.643   3.712   0.000  0.00  0.00     0.021 A 
ATOM     14  C   UNL d   1       0.000   3.214   0.000  0.00  0.00     0.000 A 
ATOM     15  C   UNL d   1       0.000   2.389   0.000  0.00  0.00     0.002 A 
ATOM     16  C   UNL d   1       4.975   4.481   0.000  0.00  0.00     0.002 A 
ATOM     17  C   UNL d   1       4.508   5.141   0.000  0.00  0.00     0.002 A 
ENDROOT
BRANCH   3  18
ATOM     18  C   UNL d   1       2.446   1.375   0.000  0.00  0.00     0.082 C 
BRANCH  18  19
ATOM     19  C   UNL d   1       1.866   0.771   0.000  0.00  0.00     0.019 C 
ATOM     20  C   UNL d   1       2.087   0.000   0.000  0.00  0.00     0.002 C 
ENDBRANCH  18  19
ENDBRANCH   3  18
TORSDOF 2
