REMARK  1 active torsions:
REMARK  status: ('A' for Active; 'I' for Inactive)
REMARK    1  A    between atoms: C_13  and  N_3 
ROOT
ATOM      1  C   UNL d   1       3.416   2.044   0.000  0.00  0.00     0.166 A 
ATOM      2  C   UNL d   1       2.921   2.699   0.000  0.00  0.00     0.117 A 
ATOM      3  N   UNL d   1       2.921   1.379   0.000  0.00  0.00    -0.289 N 
ATOM      4  C   UNL d   1       2.150   2.453   0.000  0.00  0.00     0.038 A 
ATOM      5  N   UNL d   1       4.243   2.125   0.000  0.00  0.00    -0.225 NA
ATOM      6  C   UNL d   1       2.150   1.630   0.000  0.00  0.00     0.067 A 
ATOM      7  N   UNL d   1       3.280   3.445   0.000  0.00  0.00    -0.241 NA
ATOM      8  C   UNL d   1       4.575   2.861   0.000  0.00  0.00     0.101 A 
ATOM      9  C   UNL d   1       4.080   3.526   0.000  0.00  0.00     0.099 A 
ATOM     10  C   UNL d   1       1.433   1.216   0.000  0.00  0.00     0.018 A 
ATOM     11  C   UNL d   1       1.433   2.861   0.000  0.00  0.00     0.015 A 
ATOM     12  C   UNL d   1       0.717   2.453   0.000  0.00  0.00     0.058 A 
ATOM     13  C   UNL d   1       0.717   1.630   0.000  0.00  0.00     0.013 A 
ATOM     14 CL   UNL d   1       0.000   2.861   0.000  0.00  0.00    -0.082 Cl
ATOM     15  C   UNL d   1       5.378   2.950   0.000  0.00  0.00     0.021 A 
ATOM     16  C   UNL d   1       4.413   4.272   0.000  0.00  0.00     0.021 A 
ATOM     17  C   UNL d   1       5.706   3.723   0.000  0.00  0.00     0.002 A 
ATOM     18  C   UNL d   1       5.240   4.383   0.000  0.00  0.00     0.002 A 
ENDROOT
BRANCH   3  19
ATOM     19  C   UNL d   1       3.172   0.611   0.000  0.00  0.00     0.082 C 
ATOM     20  C   UNL d   1       2.588   0.000   0.000  0.00  0.00     0.021 C 
ENDBRANCH   3  19
TORSDOF 1
