REMARK  0 active torsions:
REMARK  status: ('A' for Active; 'I' for Inactive)
ROOT
ATOM      1  C   UNL d   1       3.406   1.434   0.000  0.00  0.00     0.166 A 
ATOM      2  C   UNL d   1       2.912   2.092   0.000  0.00  0.00     0.117 A 
ATOM      3  N   UNL d   1       2.912   0.771   0.000  0.00  0.00    -0.288 N 
ATOM      4  C   UNL d   1       2.143   1.846   0.000  0.00  0.00     0.038 A 
ATOM      5  N   UNL d   1       4.231   1.515   0.000  0.00  0.00    -0.225 NA
ATOM      6  C   UNL d   1       2.143   1.021   0.000  0.00  0.00     0.067 A 
ATOM      7  N   UNL d   1       3.271   2.831   0.000  0.00  0.00    -0.241 NA
ATOM      8  C   UNL d   1       4.562   2.259   0.000  0.00  0.00     0.101 A 
ATOM      9  C   UNL d   1       4.069   2.912   0.000  0.00  0.00     0.099 A 
ATOM     10  C   UNL d   1       1.429   0.609   0.000  0.00  0.00     0.018 A 
ATOM     11  C   UNL d   1       1.429   2.259   0.000  0.00  0.00     0.015 A 
ATOM     12  C   UNL d   1       0.715   1.846   0.000  0.00  0.00     0.058 A 
ATOM     13  C   UNL d   1       3.163   0.000   0.000  0.00  0.00     0.101 C 
ATOM     14  C   UNL d   1       0.715   1.021   0.000  0.00  0.00     0.013 A 
ATOM     15 CL   UNL d   1       0.000   2.259   0.000  0.00  0.00    -0.082 Cl
ATOM     16  C   UNL d   1       5.362   2.340   0.000  0.00  0.00     0.021 A 
ATOM     17  C   UNL d   1       4.400   3.656   0.000  0.00  0.00     0.021 A 
ATOM     18  C   UNL d   1       5.225   3.767   0.000  0.00  0.00     0.002 A 
ATOM     19  C   UNL d   1       5.689   3.104   0.000  0.00  0.00     0.002 A 
ENDROOT
TORSDOF 0
