REMARK  7 active torsions:
REMARK  status: ('A' for Active; 'I' for Inactive)
REMARK    1  A    between atoms: S_2  and  N_1 
REMARK    2  A    between atoms: C_3  and  N_1 
REMARK       I    between atoms: C_4  and  N_1 
REMARK    3  A    between atoms: C_10  and  S_2 
REMARK    4  A    between atoms: C_15  and  C_4 
REMARK    5  A    between atoms: C_6  and  O_8 
REMARK    6  A    between atoms: C_18  and  C_6 
REMARK    7  A    between atoms: O_8  and  C_7 
ROOT
ATOM      1  C   UNL d   1      -4.470   2.703   0.000  0.00  0.00     0.078 A 
ATOM      2  C   UNL d   1      -4.221   1.922   0.000  0.00  0.00     0.019 A 
ATOM      3  C   UNL d   1      -2.874   2.291   0.000  0.00  0.00     0.103 A 
ATOM      4  C   UNL d   1      -3.441   1.716   0.000  0.00  0.00     0.024 A 
ATOM      5  C   UNL d   1      -3.904   3.286   0.000  0.00  0.00     0.020 A 
ATOM      6  C   UNL d   1      -3.115   3.080   0.000  0.00  0.00     0.026 A 
ATOM      7  C   UNL d   1      -4.805   1.339   0.000  0.00  0.00     0.002 A 
ATOM      8  C   UNL d   1      -3.192   0.927   0.000  0.00  0.00     0.002 A 
ATOM      9  C   UNL d   1      -4.556   0.558   0.000  0.00  0.00     0.000 A 
ATOM     10  C   UNL d   1      -3.775   0.352   0.000  0.00  0.00     0.000 A 
ENDROOT
BRANCH   1  11
ATOM     11  N   UNL d   1      -5.294   2.909   0.000  0.00  0.00    -0.198 N 
ATOM     12  C   UNL d   1      -5.869   2.291   0.000  0.00  0.00     0.274 C 
ATOM     13  O   UNL d   1      -5.628   1.510   0.000  0.00  0.00    -0.266 OA
BRANCH  11  14
ATOM     14  S   UNL d   1      -5.551   3.698   0.000  0.00  0.00     0.274 S 
ATOM     15  O   UNL d   1      -6.375   3.441   0.000  0.00  0.00    -0.200 OA
ATOM     16  O   UNL d   1      -4.762   3.938   0.000  0.00  0.00    -0.200 OA
BRANCH  14  17
ATOM     17  C   UNL d   1      -5.791   4.521   0.000  0.00  0.00     0.104 A 
ATOM     18  C   UNL d   1      -5.251   5.088   0.000  0.00  0.00     0.013 A 
ATOM     19  C   UNL d   1      -5.457   5.912   0.000  0.00  0.00     0.001 A 
ATOM     20  C   UNL d   1      -6.246   6.117   0.000  0.00  0.00     0.000 A 
ATOM     21  C   UNL d   1      -6.864   5.500   0.000  0.00  0.00     0.001 A 
ATOM     22  C   UNL d   1      -6.409   6.941   0.000  0.00  0.00     0.000 C 
ATOM     23  C   UNL d   1      -6.615   4.676   0.000  0.00  0.00     0.013 A 
ENDBRANCH  14  17
ENDBRANCH  11  14
BRANCH  12  24
ATOM     24  C   UNL d   1      -6.658   2.497   0.000  0.00  0.00     0.060 A 
ATOM     25  C   UNL d   1      -7.233   1.879   0.000  0.00  0.00     0.025 A 
ATOM     26  C   UNL d   1      -8.022   2.050   0.000  0.00  0.00     0.099 A 
ATOM     27  N   UNL d   1      -8.280   2.823   0.000  0.00  0.00    -0.242 NA
ATOM     28  C   UNL d   1      -7.722   3.441   0.000  0.00  0.00     0.099 A 
ATOM     29  C   UNL d   1      -6.941   3.286   0.000  0.00  0.00     0.025 A 
ENDBRANCH  12  24
ENDBRANCH   1  11
BRANCH   3  30
ATOM     30  O   UNL d   1      -2.050   2.085   0.000  0.00  0.00    -0.273 OA
BRANCH  30  31
ATOM     31  C   UNL d   1      -1.750   1.304   0.000  0.00  0.00     0.300 C 
ATOM     32  O   UNL d   1      -0.970   1.133   0.000  0.00  0.00    -0.259 OA
BRANCH  31  33
ATOM     33  C   UNL d   1      -2.291   0.686   0.000  0.00  0.00     0.067 A 
ATOM     34  C   UNL d   1      -3.115   0.815   0.000  0.00  0.00     0.026 A 
ATOM     35  C   UNL d   1      -3.646   0.146   0.000  0.00  0.00     0.099 A 
ATOM     36  N   UNL d   1      -3.363  -0.592   0.000  0.00  0.00    -0.242 NA
ATOM     37  C   UNL d   1      -2.574  -0.755   0.000  0.00  0.00     0.099 A 
ATOM     38  C   UNL d   1      -2.050  -0.103   0.000  0.00  0.00     0.026 A 
ENDBRANCH  31  33
ENDBRANCH  30  31
ENDBRANCH   3  30
TORSDOF 7
