REMARK  4 active torsions:
REMARK  status: ('A' for Active; 'I' for Inactive)
REMARK    1  A    between atoms: C_4  and  C_3 
REMARK    2  A    between atoms: C_5  and  C_4 
REMARK    3  A    between atoms: C_9  and  C_5 
REMARK    4  A    between atoms: C_13  and  C_9 
ROOT
ATOM      1  N   UNL d   1       2.831   0.000   0.000  0.00  0.00    -0.234 NA
ATOM      2  C   UNL d   1       3.546   0.412   0.000  0.00  0.00     0.138 A 
ATOM      3  C   UNL d   1       3.546   1.238   0.000  0.00  0.00     0.029 A 
ATOM      4  C   UNL d   1       2.116   0.412   0.000  0.00  0.00     0.082 A 
ATOM      5  C   UNL d   1       2.116   1.238   0.000  0.00  0.00     0.018 A 
ATOM      6  C   UNL d   1       2.831   1.596   0.000  0.00  0.00     0.004 A 
ATOM      7  C   UNL d   1       1.402   1.596   0.000  0.00  0.00     0.002 A 
ATOM      8  C   UNL d   1       1.402   0.000   0.000  0.00  0.00     0.019 A 
ATOM      9 CL   UNL d   1       4.260   0.000   0.000  0.00  0.00    -0.061 Cl
ATOM     10  C   UNL d   1       0.688   1.238   0.000  0.00  0.00     0.000 A 
ATOM     11  C   UNL d   1       0.688   0.412   0.000  0.00  0.00     0.002 A 
ATOM     12  C   UNL d   1       0.000   1.596   0.000  0.00  0.00     0.000 C 
ENDROOT
BRANCH   3  13
ATOM     13  C   UNL d   1       4.260   1.596   0.000  0.00  0.00     0.006 C 
BRANCH  13  14
ATOM     14  C   UNL d   1       5.085   1.596   0.000  0.00  0.00     0.042 C 
BRANCH  14  15
ATOM     15  C   UNL d   1       5.665   2.173   0.000  0.00  0.00     0.196 C 
ATOM     16  O   UNL d   1       6.463   1.957   0.000  0.00  0.00    -0.287 OA
BRANCH  15  17
ATOM     17  C   UNL d   1       5.468   2.964   0.000  0.00  0.00     0.039 A 
ATOM     18  C   UNL d   1       6.050   3.546   0.000  0.00  0.00     0.003 A 
ATOM     19  C   UNL d   1       5.829   4.341   0.000  0.00  0.00     0.000 A 
ATOM     20  C   UNL d   1       5.031   4.562   0.000  0.00  0.00     0.000 A 
ATOM     21  C   UNL d   1       4.452   3.987   0.000  0.00  0.00     0.000 A 
ATOM     22  C   UNL d   1       4.673   3.185   0.000  0.00  0.00     0.003 A 
ENDBRANCH  15  17
ENDBRANCH  14  15
ENDBRANCH  13  14
ENDBRANCH   3  13
TORSDOF 4
