REMARK  3 active torsions:
REMARK  status: ('A' for Active; 'I' for Inactive)
REMARK    1  A    between atoms: N_6  and  S_1 
REMARK    2  A    between atoms: C_11  and  S_1 
REMARK    3  A    between atoms: C_2  and  N_6 
ROOT
ATOM      1  C   UNL d   1      -1.339   0.534   0.000  0.00  0.00     0.106 A 
ATOM      2  C   UNL d   1       0.005   0.146   0.000  0.00  0.00     0.110 A 
ATOM      3  C   UNL d   1      -0.561   0.740   0.000  0.00  0.00     0.090 A 
ATOM      4  C   UNL d   1      -0.194  -0.632   0.000  0.00  0.00     0.217 A 
ATOM      5  C   UNL d   1      -1.550  -0.265   0.000  0.00  0.00     0.035 A 
ATOM      6  C   UNL d   1      -0.972  -0.842   0.000  0.00  0.00     0.099 A 
ATOM      7  O   UNL d   1       0.394  -1.231   0.000  0.00  0.00    -0.285 OA
ATOM      8 CL   UNL d   1       0.864   0.351   0.000  0.00  0.00    -0.078 Cl
ATOM      9 CL   UNL d   1      -0.340   1.550   0.000  0.00  0.00    -0.080 Cl
ATOM     10 CL   UNL d   1      -1.209  -1.668   0.000  0.00  0.00    -0.079 Cl
ENDROOT
BRANCH   1  11
ATOM     11  N   UNL d   1      -1.906   1.128   0.000  0.00  0.00    -0.158 NA
BRANCH  11  12
ATOM     12  S   UNL d   1      -2.716   0.923   0.000  0.00  0.00     0.285 S 
ATOM     13  O   UNL d   1      -2.916   1.728   0.000  0.00  0.00    -0.198 OA
ATOM     14  O   UNL d   1      -2.505   0.092   0.000  0.00  0.00    -0.198 OA
BRANCH  12  15
ATOM     15  C   UNL d   1      -3.542   0.691   0.000  0.00  0.00     0.105 A 
ATOM     16  C   UNL d   1      -3.774  -0.113   0.000  0.00  0.00     0.013 A 
ATOM     17  C   UNL d   1      -4.579  -0.324   0.000  0.00  0.00     0.001 A 
ATOM     18  C   UNL d   1      -5.146   0.275   0.000  0.00  0.00     0.000 A 
ATOM     19  C   UNL d   1      -4.941   1.053   0.000  0.00  0.00     0.001 A 
ATOM     20  C   UNL d   1      -4.109   1.290   0.000  0.00  0.00     0.013 A 
ENDBRANCH  12  15
ENDBRANCH  11  12
ENDBRANCH   1  11
TORSDOF 3
