REMARK  3 active torsions:
REMARK  status: ('A' for Active; 'I' for Inactive)
REMARK    1  A    between atoms: C_7  and  C_2 
REMARK    2  A    between atoms: N_5  and  C_8 
REMARK    3  A    between atoms: C_9  and  C_7 
ROOT
ATOM      1  C   UNL d   1       4.729  -2.025   0.000  0.00  0.00     0.127 A 
ATOM      2  C   UNL d   1       4.242  -1.354   0.000  0.00  0.00     0.023 A 
ATOM      3  C   UNL d   1       4.579  -0.604   0.000  0.00  0.00     0.002 A 
ATOM      4  C   UNL d   1       5.542  -1.942   0.000  0.00  0.00     0.024 A 
ATOM      5  C   UNL d   1       5.400  -0.517   0.000  0.00  0.00     0.000 A 
ATOM      6  C   UNL d   1       5.879  -1.192   0.000  0.00  0.00     0.002 A 
ENDROOT
BRANCH   2   7
ATOM      7  C   UNL d   1       3.425  -1.442   0.000  0.00  0.00     0.013 C 
BRANCH   7   8
ATOM      8  C   UNL d   1       2.938  -0.775   0.000  0.00  0.00     0.092 A 
ATOM      9  C   UNL d   1       2.112  -0.775   0.000  0.00  0.00     0.288 A 
ATOM     10  N   UNL d   1       1.863   0.013   0.000  0.00  0.00    -0.163 NA
ATOM     11  O   UNL d   1       1.629  -1.442   0.000  0.00  0.00    -0.265 OA
ATOM     12  C   UNL d   1       2.525   0.496   0.000  0.00  0.00     0.313 A 
ATOM     13  S   UNL d   1       3.192   0.013   0.000  0.00  0.00    -0.021 SA
ATOM     14  O   UNL d   1       2.525   1.321   0.000  0.00  0.00    -0.258 OA
ENDBRANCH   7   8
ENDBRANCH   2   7
BRANCH   1  15
ATOM     15  N   UNL d   1       4.388  -2.779   0.000  0.00  0.00    -0.114 N 
ATOM     16  O   UNL d   1       3.567  -2.867   0.000  0.00  0.00    -0.532 OA
ATOM     17  O   UNL d   1       4.875  -3.450   0.000  0.00  0.00    -0.532 OA
ENDBRANCH   1  15
TORSDOF 3
