REMARK  2 active torsions:
REMARK  status: ('A' for Active; 'I' for Inactive)
REMARK    1  A    between atoms: C_6  and  N_1 
REMARK    2  A    between atoms: C_7  and  C_6 
ROOT
ATOM      1  N   UNL d   1      -1.352   2.417   0.000  0.00  0.00    -0.268 N 
ATOM      2  C   UNL d   1      -2.417   2.417   0.000  0.00  0.00     0.265 A 
ATOM      3  C   UNL d   1      -1.178   1.632   0.000  0.00  0.00     0.067 A 
ATOM      4  C   UNL d   1      -2.591   1.632   0.000  0.00  0.00     0.058 A 
ATOM      5  C   UNL d   1      -1.893   1.218   0.000  0.00  0.00     0.021 A 
ATOM      6  O   UNL d   1      -3.027   2.984   0.000  0.00  0.00    -0.267 OA
ATOM      7  C   UNL d   1      -1.893   0.393   0.000  0.00  0.00     0.002 A 
ATOM      8  C   UNL d   1      -0.465   1.218   0.000  0.00  0.00     0.018 A 
ATOM      9  C   UNL d   1      -3.311   1.218   0.000  0.00  0.00     0.005 A 
ATOM     10  C   UNL d   1      -0.465   0.393   0.000  0.00  0.00     0.002 A 
ATOM     11  C   UNL d   1      -3.311   0.393   0.000  0.00  0.00     0.000 A 
ATOM     12  C   UNL d   1      -2.591  -0.025   0.000  0.00  0.00     0.000 A 
ATOM     13  C   UNL d   1      -1.178  -0.025   0.000  0.00  0.00     0.000 A 
ENDROOT
BRANCH   1  14
ATOM     14  C   UNL d   1      -0.741   2.984   0.000  0.00  0.00     0.154 C 
BRANCH  14  15
ATOM     15  C   UNL d   1       0.044   2.715   0.000  0.00  0.00     0.230 C 
ATOM     16  O   UNL d   1       0.636   3.271   0.000  0.00  0.00    -0.643 OA
ATOM     17  O   UNL d   1       0.218   1.930   0.000  0.00  0.00    -0.643 OA
ENDBRANCH  14  15
ENDBRANCH   1  14
TORSDOF 2
