REMARK  4 active torsions:
REMARK  status: ('A' for Active; 'I' for Inactive)
REMARK    1  A    between atoms: N_4  and  S_1 
REMARK    2  A    between atoms: C_5  and  S_1 
REMARK    3  A    between atoms: C_3  and  C_9 
REMARK    4  A    between atoms: C_14  and  N_4 
ROOT
ATOM      1  S   UNL d   1      -1.708  -0.287   0.000  0.00  0.00     0.285 S 
ATOM      2  O   UNL d   1      -1.496   0.508   0.000  0.00  0.00    -0.198 OA
ATOM      3  O   UNL d   1      -1.712  -1.113   0.000  0.00  0.00    -0.198 OA
ENDROOT
BRANCH   1   4
ATOM      4  N   UNL d   1      -1.133  -0.875   0.000  0.00  0.00    -0.158 NA
BRANCH   4   5
ATOM      5  C   UNL d   1      -0.333  -0.667   0.000  0.00  0.00     0.094 A 
ATOM      6  C   UNL d   1       0.250  -1.254   0.000  0.00  0.00     0.021 A 
ATOM      7  C   UNL d   1       1.042  -1.042   0.000  0.00  0.00     0.020 A 
ATOM      8  C   UNL d   1       1.262  -0.242   0.000  0.00  0.00     0.002 A 
ATOM      9  C   UNL d   1       0.688   0.338   0.000  0.00  0.00     0.002 A 
ATOM     10  C   UNL d   1      -0.113   0.133   0.000  0.00  0.00     0.020 A 
BRANCH   7  11
ATOM     11  C   UNL d   1       1.625  -1.629   0.000  0.00  0.00     0.088 A 
ATOM     12  N   UNL d   1       3.054  -1.629   0.000  0.00  0.00    -0.238 NA
ATOM     13  C   UNL d   1       3.054  -2.467   0.000  0.00  0.00     0.111 A 
ATOM     14  C   UNL d   1       3.767  -2.879   0.000  0.00  0.00     0.028 C 
ATOM     15  S   UNL d   1       2.342  -2.888   0.000  0.00  0.00    -0.066 SA
ATOM     16  C   UNL d   1       1.625  -2.462   0.000  0.00  0.00     0.056 A 
ENDBRANCH   7  11
ENDBRANCH   4   5
ENDBRANCH   1   4
BRANCH   1  17
ATOM     17  C   UNL d   1      -2.508  -0.492   0.000  0.00  0.00     0.105 A 
ATOM     18  C   UNL d   1      -2.725  -1.288   0.000  0.00  0.00     0.013 A 
ATOM     19  C   UNL d   1      -3.533  -1.492   0.000  0.00  0.00     0.001 A 
ATOM     20  C   UNL d   1      -3.746  -2.292   0.000  0.00  0.00     0.000 A 
ATOM     21  C   UNL d   1      -4.108  -0.904   0.000  0.00  0.00     0.000 A 
ATOM     22  C   UNL d   1      -4.546  -2.492   0.000  0.00  0.00     0.000 A 
ATOM     23  C   UNL d   1      -5.125  -1.904   0.000  0.00  0.00     0.000 A 
ATOM     24  C   UNL d   1      -4.908  -1.113   0.000  0.00  0.00     0.000 A 
ATOM     25  C   UNL d   1      -3.883  -0.113   0.000  0.00  0.00     0.001 A 
ATOM     26  C   UNL d   1      -3.087   0.096   0.000  0.00  0.00     0.013 A 
ENDBRANCH   1  17
TORSDOF 4
