REMARK  4 active torsions:
REMARK  status: ('A' for Active; 'I' for Inactive)
REMARK    1  A    between atoms: C_12  and  C_2 
REMARK       I    between atoms: C_3  and  N_8 
REMARK    2  A    between atoms: C_5  and  C_3 
REMARK    3  A    between atoms: C_9  and  C_4 
REMARK    4  A    between atoms: N_8  and  C_13 
ROOT
ATOM      1  C   UNL d   1       1.471  -3.096   0.000  0.00  0.00     0.018 A 
ATOM      2  C   UNL d   1       0.489  -1.772   0.000  0.00  0.00     0.085 A 
ATOM      3  C   UNL d   1       0.652  -3.188   0.000  0.00  0.00     0.003 A 
ATOM      4  C   UNL d   1       1.809  -2.336   0.000  0.00  0.00     0.003 A 
ATOM      5  C   UNL d   1       1.308  -1.671   0.000  0.00  0.00     0.019 A 
ATOM      6  C   UNL d   1       0.163  -2.532   0.000  0.00  0.00     0.019 A 
ENDROOT
BRANCH   1   7
ATOM      7  C   UNL d   1       1.968  -3.765   0.000  0.00  0.00     0.088 A 
ATOM      8  N   UNL d   1       2.787  -3.761   0.000  0.00  0.00    -0.239 NA
ATOM      9  C   UNL d   1       3.050  -4.538   0.000  0.00  0.00     0.111 A 
ATOM     10  S   UNL d   1       2.386  -5.031   0.000  0.00  0.00    -0.066 SA
ATOM     11  C   UNL d   1       1.722  -4.551   0.000  0.00  0.00     0.056 A 
BRANCH   9  12
ATOM     12  C   UNL d   1       3.840  -4.789   0.000  0.00  0.00     0.024 A 
ATOM     13  C   UNL d   1       4.016  -5.595   0.000  0.00  0.00     0.002 A 
ATOM     14  C   UNL d   1       4.814  -5.842   0.000  0.00  0.00     0.000 A 
ATOM     15  C   UNL d   1       5.420  -5.282   0.000  0.00  0.00     0.000 A 
ATOM     16  C   UNL d   1       5.240  -4.467   0.000  0.00  0.00     0.000 A 
ATOM     17  C   UNL d   1       4.454  -4.224   0.000  0.00  0.00     0.002 A 
ENDBRANCH   9  12
ENDBRANCH   1   7
BRANCH   2  18
ATOM     18  N   UNL d   1      -0.008  -1.107   0.000  0.00  0.00    -0.208 NA
ATOM     19  C   UNL d   1      -0.827  -1.203   0.000  0.00  0.00     0.280 C 
ATOM     20  O   UNL d   1      -1.325  -0.539   0.000  0.00  0.00    -0.265 OA
BRANCH  19  21
ATOM     21  C   UNL d   1      -1.162  -1.968   0.000  0.00  0.00     0.069 A 
ATOM     22  C   UNL d   1      -1.976  -2.047   0.000  0.00  0.00     0.062 A 
ATOM     23 CL   UNL d   1      -2.465  -1.383   0.000  0.00  0.00    -0.082 Cl
ATOM     24  C   UNL d   1      -2.307  -2.800   0.000  0.00  0.00     0.012 A 
ATOM     25  C   UNL d   1      -1.826  -3.464   0.000  0.00  0.00     0.001 A 
ATOM     26  C   UNL d   1      -1.011  -3.376   0.000  0.00  0.00     0.000 A 
ATOM     27  C   UNL d   1      -0.673  -2.624   0.000  0.00  0.00     0.006 A 
ENDBRANCH  19  21
ENDBRANCH   2  18
TORSDOF 4
