REMARK  4 active torsions:
REMARK  status: ('A' for Active; 'I' for Inactive)
REMARK    1  A    between atoms: N_4  and  S_1 
REMARK    2  A    between atoms: C_6  and  S_1 
REMARK    3  A    between atoms: N_3  and  C_2 
REMARK    4  A    between atoms: C_7  and  N_4 
ROOT
ATOM      1  S   UNL d   1      -2.718  -1.291   0.000  0.00  0.00     0.285 S 
ATOM      2  O   UNL d   1      -2.301  -0.549   0.000  0.00  0.00    -0.198 OA
ATOM      3  O   UNL d   1      -3.163  -1.999   0.000  0.00  0.00    -0.198 OA
ENDROOT
BRANCH   1   4
ATOM      4  N   UNL d   1      -3.454  -0.862   0.000  0.00  0.00    -0.158 NA
BRANCH   4   5
ATOM      5  C   UNL d   1      -3.454  -0.022   0.000  0.00  0.00     0.094 A 
ATOM      6  C   UNL d   1      -2.718   0.373   0.000  0.00  0.00     0.023 A 
ATOM      7  C   UNL d   1      -2.718   1.214   0.000  0.00  0.00     0.044 A 
ATOM      8  C   UNL d   1      -3.454   1.609   0.000  0.00  0.00     0.196 A 
ATOM      9  C   UNL d   1      -4.168   1.214   0.000  0.00  0.00     0.044 A 
ATOM     10  O   UNL d   1      -3.454   2.455   0.000  0.00  0.00    -0.287 OA
ATOM     11  C   UNL d   1      -4.168   0.373   0.000  0.00  0.00     0.023 A 
ENDBRANCH   4   5
ENDBRANCH   1   4
BRANCH   1  12
ATOM     12  C   UNL d   1      -2.004  -1.713   0.000  0.00  0.00     0.107 A 
ATOM     13  C   UNL d   1      -1.296  -1.291   0.000  0.00  0.00     0.037 A 
ATOM     14  C   UNL d   1      -0.588  -1.713   0.000  0.00  0.00     0.138 A 
ATOM     15  C   UNL d   1      -0.588  -2.526   0.000  0.00  0.00     0.080 A 
ATOM     16  C   UNL d   1      -1.296  -2.949   0.000  0.00  0.00     0.014 A 
ATOM     17 CL   UNL d   1       0.132  -2.949   0.000  0.00  0.00    -0.081 Cl
ATOM     18  C   UNL d   1      -2.004  -2.526   0.000  0.00  0.00     0.014 A 
BRANCH  14  19
ATOM     19  N   UNL d   1       0.132  -1.291   0.000  0.00  0.00    -0.113 N 
ATOM     20  O   UNL d   1       0.132  -0.467   0.000  0.00  0.00    -0.532 OA
ATOM     21  O   UNL d   1       0.840  -1.686   0.000  0.00  0.00    -0.532 OA
ENDBRANCH  14  19
ENDBRANCH   1  12
TORSDOF 4
