REMARK  5 active torsions:
REMARK  status: ('A' for Active; 'I' for Inactive)
REMARK    1  A    between atoms: C_5  and  C_1 
REMARK       I    between atoms: N_7  and  C_5 
REMARK    2  A    between atoms: C_10  and  N_7 
REMARK    3  A    between atoms: S_15  and  C_14 
REMARK    4  A    between atoms: C_20  and  S_15 
REMARK    5  A    between atoms: C_16  and  C_20 
ROOT
ATOM      1  N   UNL d   1       4.562  -5.180   0.000  0.00  0.00    -0.191 NA
ATOM      2  C   UNL d   1       4.290  -4.391   0.000  0.00  0.00     0.102 C 
ATOM      3  C   UNL d   1       4.014  -3.614   0.000  0.00  0.00     0.085 C 
ENDROOT
BRANCH   3   4
ATOM      4  C   UNL d   1       3.208  -3.459   0.000  0.00  0.00     0.046 C 
BRANCH   4   5
ATOM      5  S   UNL d   1       2.937  -2.674   0.000  0.00  0.00    -0.084 SA
BRANCH   5   6
ATOM      6  C   UNL d   1       2.122  -2.519   0.000  0.00  0.00     0.047 A 
ATOM      7  C   UNL d   1       1.855  -1.742   0.000  0.00  0.00     0.091 A 
ATOM      8  C   UNL d   1       1.044  -1.579   0.000  0.00  0.00     0.020 A 
ATOM      9  C   UNL d   1       0.501  -2.197   0.000  0.00  0.00     0.002 A 
ATOM     10  C   UNL d   1       0.769  -2.983   0.000  0.00  0.00     0.001 A 
ATOM     11  C   UNL d   1       1.579  -3.137   0.000  0.00  0.00     0.008 A 
BRANCH   7  12
ATOM     12  N   UNL d   1       2.398  -1.120   0.000  0.00  0.00    -0.206 NA
ATOM     13  C   UNL d   1       3.200  -1.282   0.000  0.00  0.00     0.302 C 
ATOM     14  O   UNL d   1       3.471  -2.059   0.000  0.00  0.00    -0.263 OA
BRANCH  13  15
ATOM     15  C   UNL d   1       3.751  -0.656   0.000  0.00  0.00     0.161 A 
ATOM     16  C   UNL d   1       3.497   0.121   0.000  0.00  0.00     0.072 A 
ATOM     17  C   UNL d   1       4.052   0.735   0.000  0.00  0.00     0.200 A 
ATOM     18  O   UNL d   1       3.801   1.525   0.000  0.00  0.00    -0.286 OA
ATOM     19  C   UNL d   1       4.854   0.560   0.000  0.00  0.00     0.062 A 
ATOM     20  C   UNL d   1       5.113  -0.217   0.000  0.00  0.00     0.103 A 
ATOM     21  C   UNL d   1       5.414   1.174   0.000  0.00  0.00     0.005 A 
ATOM     22  O   UNL d   1       4.553  -0.831   0.000  0.00  0.00    -0.302 OA
ATOM     23  C   UNL d   1       5.919  -0.401   0.000  0.00  0.00     0.025 A 
ATOM     24  C   UNL d   1       6.471   0.213   0.000  0.00  0.00     0.002 A 
ATOM     25  C   UNL d   1       6.216   0.998   0.000  0.00  0.00     0.000 A 
ENDBRANCH  13  15
ENDBRANCH   7  12
ENDBRANCH   5   6
ENDBRANCH   4   5
ENDBRANCH   3   4
TORSDOF 5
