REMARK  3 active torsions:
REMARK  status: ('A' for Active; 'I' for Inactive)
REMARK    1  A    between atoms: N_3  and  S_1 
REMARK    2  A    between atoms: C_9  and  S_1 
REMARK    3  A    between atoms: C_2  and  N_3 
ROOT
ATOM      1  C   UNL d   1       1.925   0.440   0.000  0.00  0.00     0.157 A 
ATOM      2  C   UNL d   1       2.328   1.155   0.000  0.00  0.00     0.102 A 
ATOM      3  C   UNL d   1       3.153   1.155   0.000  0.00  0.00     0.110 A 
ATOM      4  C   UNL d   1       3.575   0.440   0.000  0.00  0.00     0.207 A 
ATOM      5  C   UNL d   1       2.328  -0.261   0.000  0.00  0.00     0.035 A 
ATOM      6  C   UNL d   1       3.153  -0.261   0.000  0.00  0.00     0.042 A 
ATOM      7 CL   UNL d   1       1.925   1.870   0.000  0.00  0.00    -0.079 Cl
ATOM      8 CL   UNL d   1       3.575   1.870   0.000  0.00  0.00    -0.078 Cl
ATOM      9  O   UNL d   1       4.400   0.440   0.000  0.00  0.00    -0.286 OA
ATOM     10  C   UNL d   1       1.925  -0.976   0.000  0.00  0.00     0.003 A 
ATOM     11  C   UNL d   1       3.575  -0.976   0.000  0.00  0.00     0.003 A 
ATOM     12  C   UNL d   1       3.153  -1.691   0.000  0.00  0.00     0.000 A 
ATOM     13  C   UNL d   1       2.328  -1.691   0.000  0.00  0.00     0.000 A 
ENDROOT
BRANCH   1  14
ATOM     14  N   UNL d   1       1.100   0.440   0.000  0.00  0.00    -0.316 NA
BRANCH  14  15
ATOM     15  S   UNL d   1       0.275   0.440   0.000  0.00  0.00     0.327 S 
ATOM     16  O   UNL d   1       0.275  -0.371   0.000  0.00  0.00    -0.186 OA
ATOM     17  O   UNL d   1       0.280   1.265   0.000  0.00  0.00    -0.186 OA
BRANCH  15  18
ATOM     18  C   UNL d   1      -0.545   0.440   0.000  0.00  0.00     0.116 A 
ATOM     19  C   UNL d   1      -0.958  -0.261   0.000  0.00  0.00     0.014 A 
ATOM     20  C   UNL d   1      -1.783  -0.261   0.000  0.00  0.00     0.001 A 
ATOM     21  C   UNL d   1      -2.195   0.454   0.000  0.00  0.00     0.000 A 
ATOM     22  C   UNL d   1      -1.783   1.169   0.000  0.00  0.00     0.001 A 
ATOM     23  C   UNL d   1      -3.025   0.435   0.000  0.00  0.00     0.000 C 
ATOM     24  C   UNL d   1      -0.949   1.169   0.000  0.00  0.00     0.014 A 
ENDBRANCH  15  18
ENDBRANCH  14  15
ENDBRANCH   1  14
TORSDOF 3
