REMARK  2 active torsions:
REMARK  status: ('A' for Active; 'I' for Inactive)
REMARK       I    between atoms: C_2  and  N_4 
REMARK       I    between atoms: N_7  and  C_2 
REMARK    1  A    between atoms: N_4  and  C_8 
REMARK    2  A    between atoms: C_12  and  N_7 
ROOT
ATOM      1  C   UNL d   1       2.683  -0.465   0.000  0.00  0.00     0.369 C 
ATOM      2  N   UNL d   1       2.097   0.108   0.000  0.00  0.00    -0.190 NA
ATOM      3  N   UNL d   1       3.476  -0.249   0.000  0.00  0.00    -0.191 NA
ATOM      4  O   UNL d   1       2.471  -1.262   0.000  0.00  0.00    -0.242 OA
ENDROOT
BRANCH   2   5
ATOM      5  C   UNL d   1       1.308  -0.104   0.000  0.00  0.00     0.098 A 
ATOM      6  C   UNL d   1       1.549  -0.897   0.000  0.00  0.00     0.118 A 
ATOM      7  S   UNL d   1       0.872  -1.370   0.000  0.00  0.00     0.213 S 
ATOM      8  O   UNL d   1       1.582  -1.782   0.000  0.00  0.00    -0.217 OA
ATOM      9  O   UNL d   1       0.154  -1.773   0.000  0.00  0.00    -0.217 OA
ATOM     10  C   UNL d   1       0.212  -0.876   0.000  0.00  0.00     0.100 A 
ATOM     11  C   UNL d   1       0.478  -0.091   0.000  0.00  0.00     0.032 A 
ENDBRANCH   2   5
BRANCH   3  12
ATOM     12  C   UNL d   1       4.061  -0.827   0.000  0.00  0.00     0.086 A 
ATOM     13  C   UNL d   1       3.850  -1.624   0.000  0.00  0.00     0.019 A 
ATOM     14  C   UNL d   1       4.427  -2.197   0.000  0.00  0.00     0.002 A 
ATOM     15  C   UNL d   1       5.224  -1.985   0.000  0.00  0.00     0.000 A 
ATOM     16  C   UNL d   1       5.436  -1.188   0.000  0.00  0.00     0.002 A 
ATOM     17  C   UNL d   1       4.851  -0.611   0.000  0.00  0.00     0.019 A 
ENDBRANCH   3  12
TORSDOF 2
