REMARK  4 active torsions:
REMARK  status: ('A' for Active; 'I' for Inactive)
REMARK    1  A    between atoms: C_8  and  N_1 
REMARK    2  A    between atoms: C_7  and  C_2 
REMARK    3  A    between atoms: C_9  and  C_7 
REMARK    4  A    between atoms: C_17  and  C_8 
ROOT
ATOM      1  N   UNL d   1      -0.012   0.647   0.000  0.00  0.00    -0.224 N 
ATOM      2  C   UNL d   1       1.413   0.647   0.000  0.00  0.00     0.117 A 
ATOM      3  C   UNL d   1       0.698   0.230   0.000  0.00  0.00     0.273 A 
ATOM      4  C   UNL d   1      -0.012   1.459   0.000  0.00  0.00     0.359 A 
ATOM      5  N   UNL d   1       0.698   1.863   0.000  0.00  0.00    -0.153 NA
ATOM      6  C   UNL d   1       1.413   1.459   0.000  0.00  0.00     0.288 A 
ATOM      7  O   UNL d   1      -0.715   1.877   0.000  0.00  0.00    -0.244 OA
ATOM      8  O   UNL d   1       0.698  -0.585   0.000  0.00  0.00    -0.266 OA
ATOM      9  O   UNL d   1       2.118   1.877   0.000  0.00  0.00    -0.265 OA
ENDROOT
BRANCH   1  10
ATOM     10  C   UNL d   1      -0.724   0.230   0.000  0.00  0.00     0.087 C 
BRANCH  10  11
ATOM     11  C   UNL d   1      -1.438   0.647   0.000  0.00  0.00     0.018 A 
ATOM     12  C   UNL d   1      -1.438   1.459   0.000  0.00  0.00     0.002 A 
ATOM     13  C   UNL d   1      -2.151   1.877   0.000  0.00  0.00     0.000 A 
ATOM     14  C   UNL d   1      -2.865   1.459   0.000  0.00  0.00     0.000 A 
ATOM     15  C   UNL d   1      -2.865   0.647   0.000  0.00  0.00     0.000 A 
ATOM     16  C   UNL d   1      -2.151   0.230   0.000  0.00  0.00     0.002 A 
ENDBRANCH  10  11
ENDBRANCH   1  10
BRANCH   2  17
ATOM     17  C   UNL d   1       2.137   0.230   0.000  0.00  0.00     0.034 C 
BRANCH  17  18
ATOM     18  C   UNL d   1       2.137  -0.585   0.000  0.00  0.00     0.100 A 
ATOM     19  O   UNL d   1       1.531  -1.144   0.000  0.00  0.00    -0.305 OA
ATOM     20  C   UNL d   1       1.868  -1.875   0.000  0.00  0.00     0.123 A 
ATOM     21  C   UNL d   1       2.673  -1.803   0.000  0.00  0.00     0.029 A 
ATOM     22  C   UNL d   1       2.849  -1.002   0.000  0.00  0.00     0.027 A 
ENDBRANCH  17  18
ENDBRANCH   2  17
TORSDOF 4
