REMARK  4 active torsions:
REMARK  status: ('A' for Active; 'I' for Inactive)
REMARK    1  A    between atoms: C_8  and  C_1 
REMARK    2  A    between atoms: N_4  and  C_2 
REMARK       I    between atoms: C_6  and  N_4 
REMARK    3  A    between atoms: C_9  and  C_6 
REMARK    4  A    between atoms: O_16  and  C_8 
ROOT
ATOM      1  C   UNL d   1      -2.001   1.141   0.000  0.00  0.00     0.110 A 
ATOM      2  C   UNL d   1      -1.480   1.792   0.000  0.00  0.00     0.096 A 
ATOM      3  S   UNL d   1      -2.730   1.438   0.000  0.00  0.00    -0.080 SA
ATOM      4  C   UNL d   1      -1.901   2.464   0.000  0.00  0.00     0.024 A 
ATOM      5  C   UNL d   1      -2.704   2.266   0.000  0.00  0.00     0.031 A 
ATOM      6  C   UNL d   1      -1.683   3.267   0.000  0.00  0.00     0.002 A 
ATOM      7  C   UNL d   1      -3.277   2.839   0.000  0.00  0.00     0.006 A 
ATOM      8  C   UNL d   1      -2.251   3.840   0.000  0.00  0.00     0.000 A 
ATOM      9  C   UNL d   1      -3.058   3.621   0.000  0.00  0.00     0.001 A 
ENDROOT
BRANCH   2  10
ATOM     10  N   UNL d   1      -0.651   1.745   0.000  0.00  0.00    -0.207 NA
ATOM     11  C   UNL d   1      -0.203   2.449   0.000  0.00  0.00     0.285 C 
ATOM     12  O   UNL d   1      -0.604   3.167   0.000  0.00  0.00    -0.265 OA
BRANCH  11  13
ATOM     13  C   UNL d   1       0.610   2.433   0.000  0.00  0.00     0.087 A 
ATOM     14  S   UNL d   1       1.063   1.745   0.000  0.00  0.00    -0.082 SA
ATOM     15  C   UNL d   1       1.849   1.954   0.000  0.00  0.00     0.036 A 
ATOM     16  C   UNL d   1       1.881   2.792   0.000  0.00  0.00     0.008 A 
ATOM     17  C   UNL d   1       1.125   3.079   0.000  0.00  0.00     0.012 A 
ENDBRANCH  11  13
ENDBRANCH   2  10
BRANCH   1  18
ATOM     18  C   UNL d   1      -1.829   0.313   0.000  0.00  0.00     0.303 C 
ATOM     19  O   UNL d   1      -2.464  -0.208   0.000  0.00  0.00    -0.259 OA
BRANCH  18  20
ATOM     20  O   UNL d   1      -1.058   0.042   0.000  0.00  0.00    -0.295 OA
ATOM     21  C   UNL d   1      -0.432   0.563   0.000  0.00  0.00     0.185 C 
ENDBRANCH  18  20
ENDBRANCH   1  18
TORSDOF 4
