REMARK  4 active torsions:
REMARK  status: ('A' for Active; 'I' for Inactive)
REMARK    1  A    between atoms: S_2  and  N_1 
REMARK    2  A    between atoms: C_10  and  S_2 
REMARK    3  A    between atoms: C_7  and  C_4 
REMARK    4  A    between atoms: C_12  and  C_5 
ROOT
ATOM      1  N   UNL d   1       2.639   2.912   0.000  0.00  0.00    -0.152 N 
ATOM      2  N   UNL d   1       1.866   3.162   0.000  0.00  0.00    -0.155 NA
ATOM      3  C   UNL d   1       1.866   3.987   0.000  0.00  0.00     0.110 A 
ATOM      4  C   UNL d   1       3.133   3.575   0.000  0.00  0.00     0.096 A 
ATOM      5  C   UNL d   1       2.639   4.260   0.000  0.00  0.00     0.041 A 
ENDROOT
BRANCH   1   6
ATOM      6  S   UNL d   1       2.887   2.148   0.000  0.00  0.00     0.286 S 
ATOM      7  O   UNL d   1       2.062   2.259   0.000  0.00  0.00    -0.198 OA
ATOM      8  O   UNL d   1       2.418   1.458   0.000  0.00  0.00    -0.198 OA
BRANCH   6   9
ATOM      9  C   UNL d   1       3.300   1.434   0.000  0.00  0.00     0.105 A 
ATOM     10  C   UNL d   1       2.887   0.719   0.000  0.00  0.00     0.013 A 
ATOM     11  C   UNL d   1       3.300   0.000   0.000  0.00  0.00     0.001 A 
ATOM     12  C   UNL d   1       4.125   0.000   0.000  0.00  0.00     0.000 A 
ATOM     13  C   UNL d   1       4.537   0.719   0.000  0.00  0.00     0.001 A 
ATOM     14  C   UNL d   1       4.125   1.434   0.000  0.00  0.00     0.013 A 
ENDBRANCH   6   9
ENDBRANCH   1   6
BRANCH   4  15
ATOM     15  C   UNL d   1       3.958   3.575   0.000  0.00  0.00     0.019 A 
ATOM     16  C   UNL d   1       4.370   2.853   0.000  0.00  0.00     0.002 A 
ATOM     17  C   UNL d   1       5.166   2.853   0.000  0.00  0.00     0.007 A 
ATOM     18  C   UNL d   1       5.608   3.575   0.000  0.00  0.00     0.035 A 
ATOM     19  C   UNL d   1       5.166   4.289   0.000  0.00  0.00     0.007 A 
ATOM     20 BR   UNL d   1       6.433   3.575   0.000  0.00  0.00    -0.049 Br
ATOM     21  C   UNL d   1       4.370   4.289   0.000  0.00  0.00     0.002 A 
ENDBRANCH   4  15
BRANCH   3  22
ATOM     22  C   UNL d   1       1.208   4.481   0.000  0.00  0.00     0.049 A 
ATOM     23  S   UNL d   1       0.412   4.230   0.000  0.00  0.00    -0.085 SA
ATOM     24  C   UNL d   1       0.000   4.920   0.000  0.00  0.00     0.035 A 
ATOM     25  C   UNL d   1       0.412   5.554   0.000  0.00  0.00     0.007 A 
ATOM     26  C   UNL d   1       1.181   5.306   0.000  0.00  0.00     0.009 A 
ENDBRANCH   3  22
TORSDOF 4
