REMARK  6 active torsions:
REMARK  status: ('A' for Active; 'I' for Inactive)
REMARK    1  A    between atoms: S_2  and  N_1 
REMARK    2  A    between atoms: C_11  and  S_2 
REMARK    3  A    between atoms: C_6  and  C_4 
REMARK    4  A    between atoms: C_12  and  C_5 
REMARK    5  A    between atoms: O_14  and  C_8 
REMARK    6  A    between atoms: O_16  and  C_13 
ROOT
ATOM      1  N   UNL d   1       2.888   2.912   0.000  0.00  0.00    -0.152 N 
ATOM      2  N   UNL d   1       2.087   3.163   0.000  0.00  0.00    -0.155 NA
ATOM      3  C   UNL d   1       3.381   3.575   0.000  0.00  0.00     0.098 A 
ATOM      4  C   UNL d   1       2.087   3.987   0.000  0.00  0.00     0.104 A 
ATOM      5  C   UNL d   1       2.888   4.231   0.000  0.00  0.00     0.041 A 
ENDROOT
BRANCH   3   6
ATOM      6  C   UNL d   1       4.206   3.575   0.000  0.00  0.00     0.043 A 
ATOM      7  C   UNL d   1       4.619   4.290   0.000  0.00  0.00     0.118 A 
ATOM      8  C   UNL d   1       5.444   4.290   0.000  0.00  0.00     0.116 A 
ATOM      9  C   UNL d   1       5.829   3.575   0.000  0.00  0.00     0.026 A 
ATOM     10  C   UNL d   1       5.444   2.853   0.000  0.00  0.00     0.002 A 
ATOM     11  C   UNL d   1       4.619   2.853   0.000  0.00  0.00     0.004 A 
BRANCH   7  12
ATOM     12  O   UNL d   1       4.206   5.004   0.000  0.00  0.00    -0.326 OA
ATOM     13  C   UNL d   1       4.619   5.718   0.000  0.00  0.00     0.181 C 
ENDBRANCH   7  12
BRANCH   8  14
ATOM     14  O   UNL d   1       5.829   5.004   0.000  0.00  0.00    -0.326 OA
ATOM     15  C   UNL d   1       5.444   5.718   0.000  0.00  0.00     0.181 C 
ENDBRANCH   8  14
ENDBRANCH   3   6
BRANCH   1  16
ATOM     16  S   UNL d   1       3.133   2.119   0.000  0.00  0.00     0.286 S 
ATOM     17  O   UNL d   1       2.721   1.404   0.000  0.00  0.00    -0.198 OA
ATOM     18  O   UNL d   1       3.958   2.038   0.000  0.00  0.00    -0.198 OA
BRANCH  16  19
ATOM     19  C   UNL d   1       3.546   1.404   0.000  0.00  0.00     0.105 A 
ATOM     20  C   UNL d   1       3.133   0.719   0.000  0.00  0.00     0.013 A 
ATOM     21  C   UNL d   1       3.546   0.000   0.000  0.00  0.00     0.001 A 
ATOM     22  C   UNL d   1       4.371   0.000   0.000  0.00  0.00     0.000 A 
ATOM     23  C   UNL d   1       4.783   0.719   0.000  0.00  0.00     0.001 A 
ATOM     24  C   UNL d   1       4.371   1.404   0.000  0.00  0.00     0.013 A 
ENDBRANCH  16  19
ENDBRANCH   1  16
BRANCH   4  25
ATOM     25  C   UNL d   1       1.429   4.452   0.000  0.00  0.00     0.019 A 
ATOM     26  C   UNL d   1       1.512   5.277   0.000  0.00  0.00     0.002 A 
ATOM     27  C   UNL d   1       0.850   5.775   0.000  0.00  0.00     0.000 A 
ATOM     28  C   UNL d   1       0.106   5.444   0.000  0.00  0.00     0.000 A 
ATOM     29  C   UNL d   1       0.000   4.619   0.000  0.00  0.00     0.000 A 
ATOM     30  C   UNL d   1       0.688   4.125   0.000  0.00  0.00     0.002 A 
ENDBRANCH   4  25
TORSDOF 6
