REMARK  5 active torsions:
REMARK  status: ('A' for Active; 'I' for Inactive)
REMARK    1  A    between atoms: N_2  and  S_1 
REMARK    2  A    between atoms: C_9  and  S_1 
REMARK    3  A    between atoms: C_8  and  N_2 
REMARK       I    between atoms: C_14  and  N_2 
REMARK    4  A    between atoms: C_17  and  C_3 
REMARK    5  A    between atoms: N_6  and  C_5 
ROOT
ATOM      1  N   UNL d   1      -3.486   4.330   0.000  0.00  0.00    -0.198 N 
ATOM      2  C   UNL d   1      -3.457   5.167   0.000  0.00  0.00     0.274 C 
ATOM      3  O   UNL d   1      -2.721   5.557   0.000  0.00  0.00    -0.266 OA
ATOM      4  C   UNL d   1      -4.150   5.622   0.000  0.00  0.00     0.067 C 
ENDROOT
BRANCH   1   5
ATOM      5  S   UNL d   1      -4.244   3.955   0.000  0.00  0.00     0.274 S 
ATOM      6  O   UNL d   1      -3.868   3.226   0.000  0.00  0.00    -0.200 OA
ATOM      7  O   UNL d   1      -4.626   4.713   0.000  0.00  0.00    -0.200 OA
BRANCH   5   8
ATOM      8  C   UNL d   1      -4.972   3.572   0.000  0.00  0.00     0.106 A 
ATOM      9  C   UNL d   1      -5.016   2.771   0.000  0.00  0.00     0.037 A 
ATOM     10  C   UNL d   1      -5.737   2.360   0.000  0.00  0.00     0.138 A 
ATOM     11  C   UNL d   1      -6.466   2.851   0.000  0.00  0.00     0.080 A 
ATOM     12  C   UNL d   1      -6.401   3.673   0.000  0.00  0.00     0.014 A 
ATOM     13 CL   UNL d   1      -7.224   2.504   0.000  0.00  0.00    -0.081 Cl
ATOM     14  C   UNL d   1      -5.665   4.020   0.000  0.00  0.00     0.014 A 
BRANCH  10  15
ATOM     15  N   UNL d   1      -5.773   1.530   0.000  0.00  0.00    -0.113 N 
ATOM     16  O   UNL d   1      -5.045   1.119   0.000  0.00  0.00    -0.532 OA
ATOM     17  O   UNL d   1      -6.466   1.119   0.000  0.00  0.00    -0.532 OA
ENDBRANCH  10  15
ENDBRANCH   5   8
ENDBRANCH   1   5
BRANCH   1  18
ATOM     18  C   UNL d   1      -2.793   3.890   0.000  0.00  0.00     0.078 A 
ATOM     19  C   UNL d   1      -2.100   4.265   0.000  0.00  0.00     0.021 A 
ATOM     20  C   UNL d   1      -1.378   3.846   0.000  0.00  0.00     0.029 A 
ATOM     21  C   UNL d   1      -0.606   4.092   0.000  0.00  0.00     0.064 A 
ATOM     22  C   UNL d   1      -1.378   3.024   0.000  0.00  0.00     0.100 A 
ATOM     23  C   UNL d   1      -0.123   3.435   0.000  0.00  0.00     0.103 A 
ATOM     24  C   UNL d   1       0.700   3.399   0.000  0.00  0.00     0.027 C 
ATOM     25  O   UNL d   1      -0.606   2.771   0.000  0.00  0.00    -0.307 OA
ATOM     26  C   UNL d   1      -2.100   2.598   0.000  0.00  0.00     0.026 A 
ATOM     27  C   UNL d   1      -2.793   3.024   0.000  0.00  0.00     0.020 A 
BRANCH  21  28
ATOM     28  C   UNL d   1      -0.339   4.886   0.000  0.00  0.00     0.198 C 
ATOM     29  O   UNL d   1      -0.859   5.514   0.000  0.00  0.00    -0.286 OA
ATOM     30  C   UNL d   1       0.498   5.023   0.000  0.00  0.00     0.045 C 
ENDBRANCH  21  28
ENDBRANCH   1  18
TORSDOF 5
