REMARK  4 active torsions:
REMARK  status: ('A' for Active; 'I' for Inactive)
REMARK    1  A    between atoms: C_2  and  S_1 
REMARK    2  A    between atoms: N_3  and  S_1 
REMARK    3  A    between atoms: C_14  and  N_3 
REMARK       I    between atoms: C_7  and  N_8 
REMARK    4  A    between atoms: N_8  and  C_15 
ROOT
ATOM      1  S   UNL d   1      -0.202   1.205   0.000  0.00  0.00     0.285 S 
ATOM      2  O   UNL d   1      -0.202   2.038   0.000  0.00  0.00    -0.198 OA
ATOM      3  O   UNL d   1      -0.213   0.376   0.000  0.00  0.00    -0.198 OA
ENDROOT
BRANCH   1   4
ATOM      4  C   UNL d   1       0.639   1.216   0.000  0.00  0.00     0.105 A 
ATOM      5  C   UNL d   1       1.049   1.912   0.000  0.00  0.00     0.013 A 
ATOM      6  C   UNL d   1       1.874   1.912   0.000  0.00  0.00     0.001 A 
ATOM      7  C   UNL d   1       2.281   2.657   0.000  0.00  0.00     0.000 A 
ATOM      8  C   UNL d   1       2.296   1.216   0.000  0.00  0.00     0.000 A 
ATOM      9  C   UNL d   1       3.102   2.688   0.000  0.00  0.00     0.000 A 
ATOM     10  C   UNL d   1       3.539   1.958   0.000  0.00  0.00     0.000 A 
ATOM     11  C   UNL d   1       3.129   1.228   0.000  0.00  0.00     0.000 A 
ATOM     12  C   UNL d   1       1.870   0.475   0.000  0.00  0.00     0.001 A 
ATOM     13  C   UNL d   1       1.049   0.498   0.000  0.00  0.00     0.013 A 
ENDBRANCH   1   4
BRANCH   1  14
ATOM     14  N   UNL d   1      -1.034   1.205   0.000  0.00  0.00    -0.158 NA
BRANCH  14  15
ATOM     15  C   UNL d   1      -1.433   0.487   0.000  0.00  0.00     0.094 A 
ATOM     16  C   UNL d   1      -2.254   0.521   0.000  0.00  0.00     0.021 A 
ATOM     17  C   UNL d   1      -2.688  -0.198   0.000  0.00  0.00     0.021 A 
ATOM     18  C   UNL d   1      -2.281  -0.916   0.000  0.00  0.00     0.085 A 
ATOM     19  C   UNL d   1      -1.456  -0.916   0.000  0.00  0.00     0.021 A 
ATOM     20  C   UNL d   1      -1.034  -0.217   0.000  0.00  0.00     0.021 A 
BRANCH  18  21
ATOM     21  N   UNL d   1      -2.722  -1.642   0.000  0.00  0.00    -0.208 NA
ATOM     22  C   UNL d   1      -3.570  -1.623   0.000  0.00  0.00     0.279 C 
ATOM     23  O   UNL d   1      -3.980  -0.901   0.000  0.00  0.00    -0.265 OA
ATOM     24  C   UNL d   1      -3.969  -2.327   0.000  0.00  0.00     0.068 C 
ENDBRANCH  18  21
ENDBRANCH  14  15
ENDBRANCH   1  14
TORSDOF 4
