REMARK  4 active torsions:
REMARK  status: ('A' for Active; 'I' for Inactive)
REMARK    1  A    between atoms: N_2  and  C_9 
REMARK    2  A    between atoms: C_11  and  C_5 
REMARK    3  A    between atoms: C_6  and  C_7 
REMARK       I    between atoms: C_7  and  N_10 
REMARK    4  A    between atoms: N_10  and  C_21 
ROOT
ATOM      1  C   UNL d   1       1.800  -2.087   0.000  0.00  0.00     0.019 A 
ATOM      2  C   UNL d   1       1.379  -2.800   0.000  0.00  0.00     0.003 A 
ATOM      3  C   UNL d   1       2.625  -2.087   0.000  0.00  0.00     0.003 A 
ATOM      4  C   UNL d   1       2.617  -3.517   0.000  0.00  0.00     0.085 A 
ATOM      5  C   UNL d   1       3.029  -2.804   0.000  0.00  0.00     0.019 A 
ATOM      6  C   UNL d   1       1.792  -3.513   0.000  0.00  0.00     0.019 A 
ENDROOT
BRANCH   4   7
ATOM      7  N   UNL d   1       3.025  -4.237   0.000  0.00  0.00    -0.208 NA
ATOM      8  C   UNL d   1       2.604  -4.950   0.000  0.00  0.00     0.281 C 
ATOM      9  O   UNL d   1       3.017  -5.667   0.000  0.00  0.00    -0.265 OA
BRANCH   8  10
ATOM     10  C   UNL d   1       1.779  -4.942   0.000  0.00  0.00     0.080 A 
ATOM     11  C   UNL d   1       1.367  -5.654   0.000  0.00  0.00     0.131 A 
ATOM     12  C   UNL d   1       0.542  -5.642   0.000  0.00  0.00     0.024 A 
ATOM     13  C   UNL d   1       0.138  -4.929   0.000  0.00  0.00     0.002 A 
ATOM     14  C   UNL d   1       0.554  -4.217   0.000  0.00  0.00     0.000 A 
ATOM     15  C   UNL d   1       1.379  -4.225   0.000  0.00  0.00     0.006 A 
BRANCH  11  16
ATOM     16  N   UNL d   1       1.779  -6.375   0.000  0.00  0.00    -0.114 N 
ATOM     17  O   UNL d   1       1.367  -7.088   0.000  0.00  0.00    -0.532 OA
ATOM     18  O   UNL d   1       2.604  -6.379   0.000  0.00  0.00    -0.532 OA
ENDBRANCH  11  16
ENDBRANCH   8  10
ENDBRANCH   4   7
BRANCH   1  19
ATOM     19  C   UNL d   1       1.392  -1.367   0.000  0.00  0.00     0.101 A 
ATOM     20  N   UNL d   1       1.725  -0.617   0.000  0.00  0.00    -0.227 NA
ATOM     21  C   UNL d   1       1.117  -0.067   0.000  0.00  0.00     0.148 A 
ATOM     22  N   UNL d   1       0.404  -0.479   0.000  0.00  0.00    -0.288 N 
ATOM     23  C   UNL d   1       1.117   0.758   0.000  0.00  0.00     0.037 A 
ATOM     24  C   UNL d   1      -0.308  -0.067   0.000  0.00  0.00     0.082 A 
ATOM     25  C   UNL d   1       0.575  -1.279   0.000  0.00  0.00     0.101 A 
ATOM     26  C   UNL d   1      -0.308   0.758   0.000  0.00  0.00     0.019 A 
ATOM     27  C   UNL d   1       0.404   1.171   0.000  0.00  0.00     0.005 A 
ENDBRANCH   1  19
TORSDOF 4
