REMARK  3 active torsions:
REMARK  status: ('A' for Active; 'I' for Inactive)
REMARK       I    between atoms: C_3  and  N_1 
REMARK    1  A    between atoms: C_5  and  C_3 
REMARK    2  A    between atoms: C_9  and  C_4 
REMARK    3  A    between atoms: C_14  and  C_6 
ROOT
ATOM      1  N   UNL d   1       3.354   3.376   0.000  0.00  0.00    -0.193 N 
ATOM      2  N   UNL d   1       2.556   3.133   0.000  0.00  0.00    -0.162 NA
ATOM      3  C   UNL d   1       3.987   2.853   0.000  0.00  0.00     0.303 C 
ATOM      4  C   UNL d   1       2.087   3.818   0.000  0.00  0.00     0.109 A 
ATOM      5  C   UNL d   1       3.354   4.206   0.000  0.00  0.00     0.088 A 
ATOM      6  C   UNL d   1       2.581   4.481   0.000  0.00  0.00     0.041 A 
ATOM      7  O   UNL d   1       4.783   3.133   0.000  0.00  0.00    -0.263 OA
ENDROOT
BRANCH   3   8
ATOM      8  C   UNL d   1       3.877   2.062   0.000  0.00  0.00     0.158 A 
ATOM      9  O   UNL d   1       4.481   1.486   0.000  0.00  0.00    -0.296 OA
ATOM     10  C   UNL d   1       4.125   0.744   0.000  0.00  0.00     0.134 A 
ATOM     11 BR   UNL d   1       4.537   0.000   0.000  0.00  0.00    -0.022 Br
ATOM     12  C   UNL d   1       3.325   0.855   0.000  0.00  0.00     0.034 A 
ATOM     13  C   UNL d   1       3.163   1.650   0.000  0.00  0.00     0.032 A 
ENDBRANCH   3   8
BRANCH   5  14
ATOM     14  C   UNL d   1       3.683   4.427   0.000  0.00  0.00     0.018 A 
ATOM     15  C   UNL d   1       3.683   5.252   0.000  0.00  0.00     0.002 A 
ATOM     16  C   UNL d   1       4.400   5.638   0.000  0.00  0.00     0.000 A 
ATOM     17  C   UNL d   1       5.114   5.252   0.000  0.00  0.00     0.000 A 
ATOM     18  C   UNL d   1       5.114   4.427   0.000  0.00  0.00     0.000 A 
ATOM     19  C   UNL d   1       5.829   5.638   0.000  0.00  0.00     0.000 C 
ATOM     20  C   UNL d   1       4.400   4.014   0.000  0.00  0.00     0.002 A 
ENDBRANCH   5  14
BRANCH   4  21
ATOM     21  C   UNL d   1       1.262   3.848   0.000  0.00  0.00     0.049 A 
ATOM     22  S   UNL d   1       0.795   3.185   0.000  0.00  0.00    -0.085 SA
ATOM     23  C   UNL d   1       0.000   3.465   0.000  0.00  0.00     0.035 A 
ATOM     24  C   UNL d   1       0.000   4.290   0.000  0.00  0.00     0.007 A 
ATOM     25  C   UNL d   1       0.795   4.508   0.000  0.00  0.00     0.009 A 
ENDBRANCH   4  21
TORSDOF 3
