REMARK  8 active torsions:
REMARK  status: ('A' for Active; 'I' for Inactive)
REMARK    1  A    between atoms: C_7  and  C_1 
REMARK    2  A    between atoms: S_2  and  N_8 
REMARK    3  A    between atoms: C_11  and  S_2 
REMARK    4  A    between atoms: O_17  and  C_7 
REMARK    5  A    between atoms: N_8  and  C_13 
REMARK    6  A    between atoms: C_22  and  O_17 
REMARK    7  A    between atoms: O_19  and  C_23 
REMARK    8  A    between atoms: C_23  and  C_22 
ROOT
ATOM      1  C   UNL d   1      -3.331   1.494   0.000  0.00  0.00     0.088 A 
ATOM      2  C   UNL d   1      -2.841   0.833   0.000  0.00  0.00     0.105 A 
ATOM      3  C   UNL d   1      -4.109   1.237   0.000  0.00  0.00     0.031 A 
ATOM      4  O   UNL d   1      -3.331   0.156   0.000  0.00  0.00    -0.307 OA
ATOM      5  C   UNL d   1      -4.109   0.412   0.000  0.00  0.00     0.100 A 
ATOM      6  C   UNL d   1      -4.825   1.650   0.000  0.00  0.00     0.022 A 
ATOM      7  C   UNL d   1      -5.533   1.237   0.000  0.00  0.00     0.094 A 
ATOM      8  C   UNL d   1      -4.825   0.000   0.000  0.00  0.00     0.026 A 
ATOM      9  C   UNL d   1      -5.533   0.412   0.000  0.00  0.00     0.022 A 
ATOM     10  C   UNL d   1      -2.023   0.786   0.000  0.00  0.00     0.027 C 
ENDROOT
BRANCH   7  11
ATOM     11  N   UNL d   1      -6.280   1.681   0.000  0.00  0.00    -0.158 NA
BRANCH  11  12
ATOM     12  S   UNL d   1      -6.280   2.514   0.000  0.00  0.00     0.285 S 
ATOM     13  O   UNL d   1      -5.455   2.545   0.000  0.00  0.00    -0.198 OA
ATOM     14  O   UNL d   1      -7.136   2.514   0.000  0.00  0.00    -0.198 OA
BRANCH  12  15
ATOM     15  C   UNL d   1      -6.319   3.362   0.000  0.00  0.00     0.105 A 
ATOM     16  C   UNL d   1      -5.603   3.774   0.000  0.00  0.00     0.013 A 
ATOM     17  C   UNL d   1      -5.603   4.599   0.000  0.00  0.00     0.001 A 
ATOM     18  C   UNL d   1      -6.319   5.012   0.000  0.00  0.00     0.000 A 
ATOM     19  C   UNL d   1      -7.027   4.599   0.000  0.00  0.00     0.001 A 
ATOM     20  C   UNL d   1      -7.027   3.774   0.000  0.00  0.00     0.013 A 
ENDBRANCH  12  15
ENDBRANCH  11  12
ENDBRANCH   7  11
BRANCH   1  21
ATOM     21  C   UNL d   1      -3.027   2.280   0.000  0.00  0.00     0.302 C 
ATOM     22  O   UNL d   1      -2.210   2.428   0.000  0.00  0.00    -0.259 OA
BRANCH  21  23
ATOM     23  O   UNL d   1      -3.564   2.918   0.000  0.00  0.00    -0.269 OA
BRANCH  23  24
ATOM     24  C   UNL d   1      -3.292   3.704   0.000  0.00  0.00     0.152 C 
BRANCH  24  25
ATOM     25  C   UNL d   1      -3.821   4.335   0.000  0.00  0.00     0.143 C 
BRANCH  25  26
ATOM     26  O   UNL d   1      -3.564   5.129   0.000  0.00  0.00    -0.324 OA
ATOM     27  C   UNL d   1      -4.109   5.720   0.000  0.00  0.00     0.182 C 
ENDBRANCH  25  26
ENDBRANCH  24  25
ENDBRANCH  23  24
ENDBRANCH  21  23
ENDBRANCH   1  21
TORSDOF 8
