REMARK  1 active torsions:
REMARK  status: ('A' for Active; 'I' for Inactive)
REMARK    1  A    between atoms: C_2  and  C_1 
ROOT
ATOM      1  C   UNL d   1      -0.217  -0.127   0.000  0.00  0.00     0.089 A 
ATOM      2  C   UNL d   1      -0.217  -0.948   0.000  0.00  0.00     0.302 A 
ATOM      3  C   UNL d   1      -0.935   0.293   0.000  0.00  0.00     0.009 A 
ATOM      4  O   UNL d   1      -0.935  -1.358   0.000  0.00  0.00    -0.273 OA
ATOM      5  C   UNL d   1      -1.649  -0.127   0.000  0.00  0.00     0.023 A 
ATOM      6  C   UNL d   1      -1.649  -0.948   0.000  0.00  0.00     0.103 A 
ATOM      7  O   UNL d   1       0.508  -1.348   0.000  0.00  0.00    -0.259 OA
ATOM      8  C   UNL d   1      -2.365   0.293   0.000  0.00  0.00     0.002 A 
ATOM      9  C   UNL d   1      -2.365  -1.358   0.000  0.00  0.00     0.025 A 
ATOM     10  C   UNL d   1      -3.078  -0.127   0.000  0.00  0.00     0.000 A 
ATOM     11  C   UNL d   1      -3.078  -0.948   0.000  0.00  0.00     0.002 A 
ENDROOT
BRANCH   1  12
ATOM     12  C   UNL d   1       0.508   0.283   0.000  0.00  0.00     0.140 A 
ATOM     13  S   UNL d   1       1.292   0.037   0.000  0.00  0.00    -0.024 SA
ATOM     14  C   UNL d   1       1.761   0.704   0.000  0.00  0.00     0.236 A 
ATOM     15  N   UNL d   1       2.597   0.730   0.000  0.00  0.00    -0.118 N 
ATOM     16  N   UNL d   1       1.292   1.361   0.000  0.00  0.00    -0.119 NA
ATOM     17  N   UNL d   1       0.508   1.114   0.000  0.00  0.00    -0.139 NA
ENDBRANCH   1  12
TORSDOF 1
