REMARK  9 active torsions:
REMARK  status: ('A' for Active; 'I' for Inactive)
REMARK    1  A    between atoms: N_6  and  S_1 
REMARK    2  A    between atoms: C_12  and  S_1 
REMARK    3  A    between atoms: C_2  and  C_3 
REMARK    4  A    between atoms: C_4  and  C_2 
REMARK    5  A    between atoms: C_5  and  C_2 
REMARK    6  A    between atoms: O_14  and  C_4 
REMARK    7  A    between atoms: C_9  and  C_5 
REMARK    8  A    between atoms: C_7  and  N_6 
REMARK    9  A    between atoms: C_29  and  O_14 
ROOT
ATOM      1  C   UNL d   1      -2.231   3.114   0.000  0.00  0.00     0.049 A 
ATOM      2  C   UNL d   1      -1.511   1.884   0.000  0.00  0.00     0.094 A 
ATOM      3  C   UNL d   1      -1.511   3.526   0.000  0.00  0.00     0.196 A 
ATOM      4  C   UNL d   1      -2.231   2.296   0.000  0.00  0.00     0.023 A 
ATOM      5  C   UNL d   1      -0.785   3.114   0.000  0.00  0.00     0.040 A 
ATOM      6  C   UNL d   1      -0.785   2.296   0.000  0.00  0.00     0.021 A 
ATOM      7  O   UNL d   1      -1.511   4.351   0.000  0.00  0.00    -0.287 OA
ATOM      8  C   UNL d   1      -0.098   3.566   0.000  0.00  0.00     0.003 A 
ATOM      9  C   UNL d   1      -0.072   1.878   0.000  0.00  0.00     0.002 A 
ATOM     10  C   UNL d   1       0.654   3.095   0.000  0.00  0.00     0.000 A 
ATOM     11  C   UNL d   1       0.654   2.296   0.000  0.00  0.00     0.000 A 
ENDROOT
BRANCH   2  12
ATOM     12  N   UNL d   1      -1.544   1.040   0.000  0.00  0.00    -0.158 NA
BRANCH  12  13
ATOM     13  S   UNL d   1      -2.270   0.661   0.000  0.00  0.00     0.285 S 
ATOM     14  O   UNL d   1      -1.884  -0.085   0.000  0.00  0.00    -0.198 OA
ATOM     15  O   UNL d   1      -2.669   1.387   0.000  0.00  0.00    -0.198 OA
BRANCH  13  16
ATOM     16  C   UNL d   1      -3.016   0.255   0.000  0.00  0.00     0.105 A 
ATOM     17  C   UNL d   1      -3.055  -0.556   0.000  0.00  0.00     0.013 A 
ATOM     18  C   UNL d   1      -3.768  -0.942   0.000  0.00  0.00     0.001 A 
ATOM     19  C   UNL d   1      -3.788  -1.753   0.000  0.00  0.00     0.000 A 
ATOM     20  C   UNL d   1      -4.495  -0.497   0.000  0.00  0.00     0.000 A 
ATOM     21  C   UNL d   1      -4.547  -2.179   0.000  0.00  0.00     0.000 A 
ATOM     22  C   UNL d   1      -5.254  -1.734   0.000  0.00  0.00     0.000 A 
ATOM     23  C   UNL d   1      -5.234  -0.890   0.000  0.00  0.00     0.000 A 
ATOM     24  C   UNL d   1      -4.429   0.314   0.000  0.00  0.00     0.001 A 
ATOM     25  C   UNL d   1      -3.710   0.700   0.000  0.00  0.00     0.013 A 
ENDBRANCH  13  16
ENDBRANCH  12  13
ENDBRANCH   2  12
BRANCH   1  26
ATOM     26  C   UNL d   1      -2.957   3.526   0.000  0.00  0.00     0.110 C 
BRANCH  26  27
ATOM     27  C   UNL d   1      -2.925   4.351   0.000  0.00  0.00     0.303 C 
ATOM     28  O   UNL d   1      -2.198   4.743   0.000  0.00  0.00    -0.259 OA
BRANCH  27  29
ATOM     29  O   UNL d   1      -3.644   4.743   0.000  0.00  0.00    -0.273 OA
BRANCH  29  30
ATOM     30  C   UNL d   1      -3.644   5.568   0.000  0.00  0.00     0.103 C 
ATOM     31  C   UNL d   1      -4.338   5.967   0.000  0.00  0.00     0.027 C 
ATOM     32  C   UNL d   1      -2.925   5.967   0.000  0.00  0.00     0.027 C 
ENDBRANCH  29  30
ENDBRANCH  27  29
ENDBRANCH  26  27
BRANCH  26  33
ATOM     33  C   UNL d   1      -3.683   3.114   0.000  0.00  0.00     0.272 C 
ATOM     34  O   UNL d   1      -4.370   3.526   0.000  0.00  0.00    -0.282 OA
BRANCH  33  35
ATOM     35  C   UNL d   1      -3.683   2.296   0.000  0.00  0.00     0.456 C 
ATOM     36  F   UNL d   1      -4.527   2.329   0.000  0.00  0.00    -0.163 F 
ATOM     37  F   UNL d   1      -2.859   2.296   0.000  0.00  0.00    -0.163 F 
ATOM     38  F   UNL d   1      -3.710   1.485   0.000  0.00  0.00    -0.163 F 
ENDBRANCH  33  35
ENDBRANCH  26  33
ENDBRANCH   1  26
TORSDOF 9
