REMARK  8 active torsions:
REMARK  status: ('A' for Active; 'I' for Inactive)
REMARK    1  A    between atoms: C_4  and  C_1 
REMARK    2  A    between atoms: C_2  and  C_15 
REMARK    3  A    between atoms: C_3  and  C_2 
REMARK    4  A    between atoms: C_16  and  C_4 
REMARK    5  A    between atoms: O_14  and  C_9 
REMARK    6  A    between atoms: S_13  and  C_16 
REMARK    7  A    between atoms: C_15  and  S_13 
REMARK    8  A    between atoms: C_17  and  O_14 
ROOT
ATOM      1  C   UNL d   1      -0.436   1.504   0.000  0.00  0.00     0.040 A 
ATOM      2  C   UNL d   1      -1.150   1.914   0.000  0.00  0.00     0.005 A 
ATOM      3  C   UNL d   1      -0.436   0.674   0.000  0.00  0.00     0.005 A 
ATOM      4  C   UNL d   1      -1.865   0.674   0.000  0.00  0.00     0.100 A 
ATOM      5  C   UNL d   1      -1.865   1.504   0.000  0.00  0.00     0.025 A 
ATOM      6  C   UNL d   1      -1.150   0.264   0.000  0.00  0.00     0.025 A 
ENDROOT
BRANCH   1   7
ATOM      7  C   UNL d   1       0.278   1.931   0.000  0.00  0.00     0.202 C 
ATOM      8  O   UNL d   1       0.278   2.754   0.000  0.00  0.00    -0.286 OA
BRANCH   7   9
ATOM      9  C   UNL d   1       1.005   1.517   0.000  0.00  0.00     0.077 C 
BRANCH   9  10
ATOM     10  S   UNL d   1       1.005   0.674   0.000  0.00  0.00    -0.082 SA
BRANCH  10  11
ATOM     11  C   UNL d   1       1.719   0.264   0.000  0.00  0.00     0.042 C 
BRANCH  11  12
ATOM     12  C   UNL d   1       1.719  -0.559   0.000  0.00  0.00     0.077 C 
BRANCH  12  13
ATOM     13  C   UNL d   1       2.433  -0.975   0.000  0.00  0.00     0.211 C 
ATOM     14  O   UNL d   1       3.147  -0.559   0.000  0.00  0.00    -0.644 OA
ATOM     15  O   UNL d   1       2.433  -1.798   0.000  0.00  0.00    -0.644 OA
ENDBRANCH  12  13
ENDBRANCH  11  12
ENDBRANCH  10  11
ENDBRANCH   9  10
ENDBRANCH   7   9
ENDBRANCH   1   7
BRANCH   4  16
ATOM     16  O   UNL d   1      -2.595   0.248   0.000  0.00  0.00    -0.305 OA
BRANCH  16  17
ATOM     17  C   UNL d   1      -3.309   0.661   0.000  0.00  0.00     0.123 C 
ATOM     18  C   UNL d   1      -4.023   0.248   0.000  0.00  0.00     0.029 C 
ENDBRANCH  16  17
ENDBRANCH   4  16
TORSDOF 8
