REMARK  4 active torsions:
REMARK  status: ('A' for Active; 'I' for Inactive)
REMARK    1  A    between atoms: C_4  and  C_1 
REMARK    2  A    between atoms: N_8  and  C_4 
REMARK    3  A    between atoms: C_12  and  C_4 
REMARK    4  A    between atoms: C_5  and  N_8 
ROOT
ATOM      1  C   UNL d   1       4.816  -3.521   0.000  0.00  0.00     0.085 C 
ENDROOT
BRANCH   1   2
ATOM      2  C   UNL d   1       4.567  -4.309   0.000  0.00  0.00     0.037 A 
ATOM      3  C   UNL d   1       5.064  -4.981   0.000  0.00  0.00     0.083 A 
ATOM      4  N   UNL d   1       4.583  -5.641   0.000  0.00  0.00    -0.245 NA
ATOM      5  C   UNL d   1       5.890  -4.977   0.000  0.00  0.00     0.021 C 
ATOM      6  C   UNL d   1       3.799  -5.380   0.000  0.00  0.00     0.081 A 
ATOM      7  C   UNL d   1       3.799  -4.567   0.000  0.00  0.00     0.021 A 
ATOM      8  C   UNL d   1       3.086  -5.803   0.000  0.00  0.00     0.019 A 
ATOM      9  C   UNL d   1       3.086  -4.160   0.000  0.00  0.00     0.002 A 
ATOM     10  C   UNL d   1       2.368  -4.567   0.000  0.00  0.00     0.000 A 
ATOM     11  C   UNL d   1       2.368  -5.380   0.000  0.00  0.00     0.002 A 
ENDBRANCH   1   2
BRANCH   1  12
ATOM     12  N   UNL d   1       5.574  -3.335   0.000  0.00  0.00    -0.221 NA
BRANCH  12  13
ATOM     13  C   UNL d   1       5.774  -2.588   0.000  0.00  0.00     0.194 A 
ATOM     14  N   UNL d   1       6.508  -2.294   0.000  0.00  0.00    -0.219 NA
ATOM     15  C   UNL d   1       6.458  -1.543   0.000  0.00  0.00     0.108 A 
ATOM     16  C   UNL d   1       5.711  -1.344   0.000  0.00  0.00     0.059 A 
ATOM     17  S   UNL d   1       5.280  -1.991   0.000  0.00  0.00    -0.046 SA
ENDBRANCH  12  13
ENDBRANCH   1  12
BRANCH   1  18
ATOM     18  C   UNL d   1       4.268  -2.903   0.000  0.00  0.00     0.021 A 
ATOM     19  C   UNL d   1       3.463  -3.086   0.000  0.00  0.00     0.022 A 
ATOM     20  C   UNL d   1       2.903  -2.476   0.000  0.00  0.00     0.099 A 
ATOM     21  N   UNL d   1       3.152  -1.692   0.000  0.00  0.00    -0.242 NA
ATOM     22  C   UNL d   1       3.961  -1.510   0.000  0.00  0.00     0.099 A 
ATOM     23  C   UNL d   1       4.517  -2.119   0.000  0.00  0.00     0.022 A 
ENDBRANCH   1  18
TORSDOF 4
