REMARK  1 active torsions:
REMARK  status: ('A' for Active; 'I' for Inactive)
REMARK    1  A    between atoms: C_11  and  C_9 
ROOT
ATOM      1  N   UNL d   1      -2.601   0.415   0.000  0.00  0.00    -0.253 N 
ATOM      2  C   UNL d   1      -2.151   1.101   0.000  0.00  0.00     0.182 A 
ATOM      3  C   UNL d   1      -2.205  -0.330   0.000  0.00  0.00     0.267 A 
ATOM      4  N   UNL d   1      -2.651   1.733   0.000  0.00  0.00    -0.221 NA
ATOM      5  S   UNL d   1      -1.333   1.081   0.000  0.00  0.00    -0.050 SA
ATOM      6  C   UNL d   1      -1.391  -0.372   0.000  0.00  0.00     0.068 A 
ATOM      7  C   UNL d   1      -3.380   0.636   0.000  0.00  0.00     0.086 A 
ATOM      8  C   UNL d   1      -3.438   1.454   0.000  0.00  0.00     0.100 A 
ATOM      9  C   UNL d   1      -0.942   0.357   0.000  0.00  0.00     0.037 A 
ATOM     10  O   UNL d   1      -2.651  -1.058   0.000  0.00  0.00    -0.267 OA
ATOM     11  C   UNL d   1      -4.089   0.171   0.000  0.00  0.00     0.019 A 
ATOM     12  C   UNL d   1      -4.159   1.826   0.000  0.00  0.00     0.021 A 
ATOM     13  C   UNL d   1      -4.810   0.558   0.000  0.00  0.00     0.002 A 
ATOM     14  C   UNL d   1      -4.857   1.361   0.000  0.00  0.00     0.002 A 
ENDROOT
BRANCH   9  15
ATOM     15  C   UNL d   1      -0.105   0.430   0.000  0.00  0.00     0.006 A 
ATOM     16  C   UNL d   1       0.248   1.175   0.000  0.00  0.00     0.001 A 
ATOM     17  C   UNL d   1       1.085   1.252   0.000  0.00  0.00     0.000 A 
ATOM     18  C   UNL d   1       1.550   0.578   0.000  0.00  0.00     0.000 A 
ATOM     19  C   UNL d   1       1.198  -0.186   0.000  0.00  0.00     0.000 A 
ATOM     20  C   UNL d   1       0.376  -0.260   0.000  0.00  0.00     0.001 A 
ENDBRANCH   9  15
TORSDOF 1
