REMARK  6 active torsions:
REMARK  status: ('A' for Active; 'I' for Inactive)
REMARK    1  A    between atoms: C_9  and  C_2 
REMARK    2  A    between atoms: N_3  and  C_7 
REMARK       I    between atoms: C_8  and  N_14 
REMARK    3  A    between atoms: C_10  and  C_8 
REMARK    4  A    between atoms: C_13  and  C_10 
REMARK    5  A    between atoms: C_19  and  C_13 
REMARK    6  A    between atoms: N_14  and  C_20 
ROOT
ATOM      1  C   UNL d   1      -5.478   1.392   0.000  0.00  0.00     0.041 A 
ATOM      2  C   UNL d   1      -4.877   0.836   0.000  0.00  0.00     0.005 A 
ATOM      3  C   UNL d   1      -5.335   2.195   0.000  0.00  0.00     0.005 A 
ATOM      4  C   UNL d   1      -3.954   1.909   0.000  0.00  0.00     0.085 A 
ATOM      5  C   UNL d   1      -4.097   1.129   0.000  0.00  0.00     0.019 A 
ATOM      6  C   UNL d   1      -4.558   2.462   0.000  0.00  0.00     0.019 A 
ENDROOT
BRANCH   4   7
ATOM      7  N   UNL d   1      -3.166   2.151   0.000  0.00  0.00    -0.208 NA
ATOM      8  C   UNL d   1      -2.561   1.583   0.000  0.00  0.00     0.279 C 
ATOM      9  O   UNL d   1      -2.767   0.791   0.000  0.00  0.00    -0.265 OA
BRANCH   8  10
ATOM     10  C   UNL d   1      -1.770   1.821   0.000  0.00  0.00     0.062 C 
BRANCH  10  11
ATOM     11  C   UNL d   1      -1.162   1.275   0.000  0.00  0.00     0.005 C 
BRANCH  11  12
ATOM     12  C   UNL d   1      -0.352   1.513   0.000  0.00  0.00     0.002 A 
ATOM     13  C   UNL d   1       0.245   0.942   0.000  0.00  0.00     0.024 A 
ATOM     14  C   UNL d   1       1.055   1.187   0.000  0.00  0.00     0.127 A 
ATOM     15  C   UNL d   1       1.231   1.997   0.000  0.00  0.00     0.024 A 
ATOM     16  C   UNL d   1       0.619   2.550   0.000  0.00  0.00     0.002 A 
ATOM     17  C   UNL d   1      -0.176   2.316   0.000  0.00  0.00     0.000 A 
BRANCH  14  18
ATOM     18  N   UNL d   1       1.660   0.634   0.000  0.00  0.00    -0.114 N 
ATOM     19  O   UNL d   1       1.565  -0.202   0.000  0.00  0.00    -0.532 OA
ATOM     20  O   UNL d   1       2.462   0.836   0.000  0.00  0.00    -0.532 OA
ENDBRANCH  14  18
ENDBRANCH  11  12
ENDBRANCH  10  11
ENDBRANCH   8  10
ENDBRANCH   4   7
BRANCH   1  21
ATOM     21  C   UNL d   1      -6.259   1.110   0.000  0.00  0.00     0.182 A 
ATOM     22  N   UNL d   1      -6.599   0.352   0.000  0.00  0.00    -0.220 NA
ATOM     23  C   UNL d   1      -7.413   0.436   0.000  0.00  0.00     0.106 A 
ATOM     24  C   UNL d   1      -7.578   1.242   0.000  0.00  0.00     0.119 A 
ATOM     25  C   UNL d   1      -8.029  -0.121   0.000  0.00  0.00     0.021 A 
ATOM     26  C   UNL d   1      -8.358   1.495   0.000  0.00  0.00     0.026 A 
ATOM     27  O   UNL d   1      -6.885   1.638   0.000  0.00  0.00    -0.288 OA
ATOM     28  C   UNL d   1      -8.974   0.967   0.000  0.00  0.00     0.002 A 
ATOM     29  C   UNL d   1      -8.820   0.143   0.000  0.00  0.00     0.002 A 
ENDBRANCH   1  21
TORSDOF 6
