REMARK  4 active torsions:
REMARK  status: ('A' for Active; 'I' for Inactive)
REMARK    1  A    between atoms: C_3  and  C_1 
REMARK    2  A    between atoms: C_7  and  C_3 
REMARK    3  A    between atoms: N_9  and  C_4 
REMARK    4  A    between atoms: C_8  and  C_7 
ROOT
ATOM      1  C   UNL d   1      -2.197   1.952   0.000  0.00  0.00     0.106 C 
ATOM      2  C   UNL d   1      -2.197   2.750   0.000  0.00  0.00     0.104 C 
ATOM      3  N   UNL d   1      -2.214   3.574   0.000  0.00  0.00    -0.191 NA
ENDROOT
BRANCH   1   4
ATOM      4  C   UNL d   1      -2.896   1.514   0.000  0.00  0.00     0.172 A 
ATOM      5  N   UNL d   1      -2.982   0.717   0.000  0.00  0.00    -0.225 NA
ATOM      6  C   UNL d   1      -3.780   0.528   0.000  0.00  0.00     0.101 A 
ATOM      7  C   UNL d   1      -4.192  -0.193   0.000  0.00  0.00     0.021 A 
ATOM      8  C   UNL d   1      -4.192   1.248   0.000  0.00  0.00     0.101 A 
ATOM      9  C   UNL d   1      -5.015  -0.210   0.000  0.00  0.00     0.002 A 
ATOM     10  C   UNL d   1      -5.427   0.528   0.000  0.00  0.00     0.002 A 
ATOM     11  C   UNL d   1      -5.015   1.248   0.000  0.00  0.00     0.021 A 
ATOM     12  N   UNL d   1      -3.638   1.849   0.000  0.00  0.00    -0.225 NA
ENDBRANCH   1   4
BRANCH   1  13
ATOM     13  C   UNL d   1      -1.476   1.540   0.000  0.00  0.00     0.038 C 
BRANCH  13  14
ATOM     14  C   UNL d   1      -0.755   1.952   0.000  0.00  0.00     0.103 A 
ATOM     15  O   UNL d   1       0.030   1.699   0.000  0.00  0.00    -0.290 OA
ATOM     16  C   UNL d   1       0.502   2.364   0.000  0.00  0.00     0.168 A 
ATOM     17  C   UNL d   1       0.030   3.020   0.000  0.00  0.00     0.045 A 
ATOM     18  C   UNL d   1      -0.755   2.776   0.000  0.00  0.00     0.028 A 
BRANCH  16  19
ATOM     19  N   UNL d   1       1.326   2.420   0.000  0.00  0.00    -0.281 N 
ATOM     20  C   UNL d   1       1.780   1.746   0.000  0.00  0.00     0.109 A 
ATOM     21  C   UNL d   1       2.604   1.802   0.000  0.00  0.00     0.142 A 
ATOM     22  O   UNL d   1       2.952   2.544   0.000  0.00  0.00    -0.300 OA
ATOM     23  C   UNL d   1       2.501   3.226   0.000  0.00  0.00     0.142 A 
ATOM     24  C   UNL d   1       1.678   3.162   0.000  0.00  0.00     0.109 A 
ENDBRANCH  16  19
ENDBRANCH  13  14
ENDBRANCH   1  13
TORSDOF 4
