REMARK  2 active torsions:
REMARK  status: ('A' for Active; 'I' for Inactive)
REMARK    1  A    between atoms: N_2  and  S_1 
REMARK    2  A    between atoms: C_3  and  S_1 
ROOT
ATOM      1  N   UNL d   1       0.165   1.068   0.000  0.00  0.00    -0.229 N 
ATOM      2  C   UNL d   1       0.862   0.643   0.000  0.00  0.00     0.092 A 
ATOM      3  C   UNL d   1       1.578   1.053   0.000  0.00  0.00     0.018 A 
ATOM      4  C   UNL d   1       0.165   1.895   0.000  0.00  0.00     0.092 A 
ATOM      5  C   UNL d   1       1.578   1.895   0.000  0.00  0.00     0.003 A 
ATOM      6  C   UNL d   1       0.862   2.297   0.000  0.00  0.00     0.020 A 
ATOM      7  C   UNL d   1       2.297   0.643   0.000  0.00  0.00     0.002 A 
ATOM      8  C   UNL d   1       2.297   2.297   0.000  0.00  0.00     0.000 A 
ATOM      9  C   UNL d   1       3.002   1.057   0.000  0.00  0.00     0.000 A 
ATOM     10  C   UNL d   1       3.002   1.884   0.000  0.00  0.00     0.000 A 
ENDROOT
BRANCH   1  11
ATOM     11  S   UNL d   1      -0.571   0.643   0.000  0.00  0.00     0.277 S 
ATOM     12  O   UNL d   1      -0.149  -0.084   0.000  0.00  0.00    -0.199 OA
ATOM     13  O   UNL d   1      -0.996   1.363   0.000  0.00  0.00    -0.199 OA
BRANCH  11  14
ATOM     14  C   UNL d   1      -1.287   0.249   0.000  0.00  0.00     0.133 A 
ATOM     15  S   UNL d   1      -1.363  -0.555   0.000  0.00  0.00    -0.074 SA
ATOM     16  C   UNL d   1      -2.202  -0.750   0.000  0.00  0.00     0.036 A 
ATOM     17  C   UNL d   1      -2.631  -0.015   0.000  0.00  0.00     0.008 A 
ATOM     18  C   UNL d   1      -2.079   0.582   0.000  0.00  0.00     0.020 A 
ENDBRANCH  11  14
ENDBRANCH   1  11
TORSDOF 2
