REMARK  2 active torsions:
REMARK  status: ('A' for Active; 'I' for Inactive)
REMARK    1  A    between atoms: C_3  and  C_1 
REMARK       I    between atoms: N_6  and  C_3 
REMARK    2  A    between atoms: C_12  and  N_6 
ROOT
ATOM      1  C   UNL d   1      -4.189   2.327   0.000  0.00  0.00     0.008 A 
ATOM      2  S   UNL d   1      -5.393   1.796   0.000  0.00  0.00    -0.086 SA
ATOM      3  C   UNL d   1      -4.603   1.621   0.000  0.00  0.00     0.030 A 
ATOM      4  C   UNL d   1      -5.476   2.593   0.000  0.00  0.00     0.035 A 
ATOM      5  C   UNL d   1      -2.948   1.600   0.000  0.00  0.00     0.085 A 
ATOM      6  C   UNL d   1      -3.362   2.314   0.000  0.00  0.00     0.020 A 
ATOM      7  C   UNL d   1      -4.734   2.938   0.000  0.00  0.00     0.007 A 
ATOM      8  C   UNL d   1      -4.189   0.886   0.000  0.00  0.00     0.008 A 
ATOM      9  C   UNL d   1      -3.362   0.886   0.000  0.00  0.00     0.020 A 
ENDROOT
BRANCH   5  10
ATOM     10  N   UNL d   1      -2.120   1.600   0.000  0.00  0.00    -0.208 NA
ATOM     11  C   UNL d   1      -1.707   0.886   0.000  0.00  0.00     0.285 C 
ATOM     12  O   UNL d   1      -2.120   0.176   0.000  0.00  0.00    -0.265 OA
BRANCH  11  13
ATOM     13  C   UNL d   1      -0.886   0.886   0.000  0.00  0.00     0.088 A 
ATOM     14  S   UNL d   1      -0.390   0.203   0.000  0.00  0.00    -0.071 SA
ATOM     15  C   UNL d   1       0.397   0.455   0.000  0.00  0.00     0.087 A 
ATOM     16 CL   UNL d   1       1.024   0.000   0.000  0.00  0.00    -0.075 Cl
ATOM     17  C   UNL d   1       0.386   1.321   0.000  0.00  0.00     0.019 A 
ATOM     18  C   UNL d   1      -0.390   1.572   0.000  0.00  0.00     0.013 A 
ENDBRANCH  11  13
ENDBRANCH   5  10
TORSDOF 2
