REMARK  3 active torsions:
REMARK  status: ('A' for Active; 'I' for Inactive)
REMARK    1  A    between atoms: C_2  and  N_1 
REMARK    2  A    between atoms: C_5  and  C_8 
REMARK       I    between atoms: N_6  and  C_5 
REMARK    3  A    between atoms: C_13  and  N_6 
ROOT
ATOM      1  C   UNL d   1       1.440  -0.149   0.000  0.00  0.00     0.070 A 
ATOM      2  C   UNL d   1       0.611  -0.153   0.000  0.00  0.00     0.022 A 
ATOM      3  C   UNL d   1       0.198   0.557   0.000  0.00  0.00     0.059 A 
ATOM      4  C   UNL d   1       1.861   0.578   0.000  0.00  0.00     0.018 A 
ATOM      5  C   UNL d   1       0.599   1.271   0.000  0.00  0.00     0.005 A 
ATOM      6  C   UNL d   1       1.436   1.284   0.000  0.00  0.00     0.002 A 
ENDROOT
BRANCH   3   7
ATOM      7  C   UNL d   1      -0.627   0.557   0.000  0.00  0.00     0.279 C 
ATOM      8  N   UNL d   1      -1.040   1.271   0.000  0.00  0.00    -0.208 NA
ATOM      9  O   UNL d   1      -1.040  -0.153   0.000  0.00  0.00    -0.265 OA
BRANCH   8  10
ATOM     10  C   UNL d   1      -1.878   1.271   0.000  0.00  0.00     0.085 A 
ATOM     11  C   UNL d   1      -2.291   1.981   0.000  0.00  0.00     0.020 A 
ATOM     12  C   UNL d   1      -3.120   2.002   0.000  0.00  0.00     0.008 A 
ATOM     13  C   UNL d   1      -3.677   2.621   0.000  0.00  0.00     0.007 A 
ATOM     14  C   UNL d   1      -3.537   1.288   0.000  0.00  0.00     0.030 A 
ATOM     15  C   UNL d   1      -4.416   2.278   0.000  0.00  0.00     0.035 A 
ATOM     16  S   UNL d   1      -4.354   1.469   0.000  0.00  0.00    -0.086 SA
ATOM     17  C   UNL d   1      -3.120   0.557   0.000  0.00  0.00     0.008 A 
ATOM     18  C   UNL d   1      -2.291   0.557   0.000  0.00  0.00     0.020 A 
ENDBRANCH   8  10
ENDBRANCH   3   7
BRANCH   1  19
ATOM     19  N   UNL d   1       1.861  -0.859   0.000  0.00  0.00    -0.242 N 
ATOM     20  C   UNL d   1       2.674  -0.970   0.000  0.00  0.00     0.267 A 
ATOM     21  C   UNL d   1       2.852  -1.762   0.000  0.00  0.00     0.066 A 
ATOM     22  O   UNL d   1       3.269  -0.334   0.000  0.00  0.00    -0.267 OA
ATOM     23  C   UNL d   1       2.146  -2.159   0.000  0.00  0.00     0.066 A 
ATOM     24  C   UNL d   1       1.564  -1.622   0.000  0.00  0.00     0.267 A 
ATOM     25  O   UNL d   1       0.710  -1.837   0.000  0.00  0.00    -0.267 OA
ENDBRANCH   1  19
TORSDOF 3
