REMARK  0 active torsions:
REMARK  status: ('A' for Active; 'I' for Inactive)
ROOT
ATOM      1  N   UNL d   1      -1.881   2.569   0.000  0.00  0.00    -0.248 N 
ATOM      2  C   UNL d   1      -1.881   1.754   0.000  0.00  0.00     0.208 A 
ATOM      3  C   UNL d   1      -2.616   2.998   0.000  0.00  0.00     0.268 A 
ATOM      4  C   UNL d   1      -3.304   2.597   0.000  0.00  0.00     0.074 A 
ATOM      5  N   UNL d   1      -2.616   1.353   0.000  0.00  0.00    -0.218 NA
ATOM      6  C   UNL d   1      -3.304   1.777   0.000  0.00  0.00     0.088 A 
ATOM      7  S   UNL d   1      -1.169   1.315   0.000  0.00  0.00    -0.038 SA
ATOM      8  O   UNL d   1      -2.616   3.828   0.000  0.00  0.00    -0.267 OA
ATOM      9  C   UNL d   1      -1.155   3.012   0.000  0.00  0.00     0.104 C 
ATOM     10  C   UNL d   1      -4.030   3.012   0.000  0.00  0.00     0.006 A 
ATOM     11  C   UNL d   1      -4.040   1.353   0.000  0.00  0.00     0.019 A 
ATOM     12  C   UNL d   1      -4.747   2.602   0.000  0.00  0.00     0.000 A 
ATOM     13  C   UNL d   1      -4.747   1.777   0.000  0.00  0.00     0.002 A 
ENDROOT
TORSDOF 0
