REMARK  2 active torsions:
REMARK  status: ('A' for Active; 'I' for Inactive)
REMARK    1  A    between atoms: C_6  and  N_1 
REMARK    2  A    between atoms: C_7  and  C_6 
ROOT
ATOM      1  N   UNL d   1      -1.315   0.751   0.000  0.00  0.00    -0.236 N 
ATOM      2  C   UNL d   1      -1.786   1.412   0.000  0.00  0.00     0.267 A 
ATOM      3  C   UNL d   1      -1.786   0.093   0.000  0.00  0.00     0.267 A 
ATOM      4  C   UNL d   1      -2.565   1.165   0.000  0.00  0.00     0.061 A 
ATOM      5  C   UNL d   1      -2.565   0.341   0.000  0.00  0.00     0.061 A 
ATOM      6  O   UNL d   1      -1.530   2.212   0.000  0.00  0.00    -0.267 OA
ATOM      7  O   UNL d   1      -1.530  -0.710   0.000  0.00  0.00    -0.267 OA
ATOM      8  C   UNL d   1      -3.283  -0.065   0.000  0.00  0.00     0.005 A 
ATOM      9  C   UNL d   1      -3.283   1.571   0.000  0.00  0.00     0.005 A 
ATOM     10  C   UNL d   1      -4.005   1.165   0.000  0.00  0.00     0.000 A 
ATOM     11  C   UNL d   1      -4.005   0.341   0.000  0.00  0.00     0.000 A 
ENDROOT
BRANCH   1  12
ATOM     12  C   UNL d   1      -0.483   0.775   0.000  0.00  0.00     0.134 C 
ATOM     13  C   UNL d   1      -0.069   1.473   0.000  0.00  0.00     0.026 C 
BRANCH  12  14
ATOM     14  C   UNL d   1      -0.069   0.049   0.000  0.00  0.00     0.228 C 
ATOM     15  O   UNL d   1       0.767   0.049   0.000  0.00  0.00    -0.643 OA
ATOM     16  O   UNL d   1      -0.483  -0.670   0.000  0.00  0.00    -0.643 OA
ENDBRANCH  12  14
ENDBRANCH   1  12
TORSDOF 2
