REMARK  5 active torsions:
REMARK  status: ('A' for Active; 'I' for Inactive)
REMARK    1  A    between atoms: C_7  and  C_1 
REMARK    2  A    between atoms: C_10  and  C_6 
REMARK    3  A    between atoms: O_18  and  C_7 
REMARK    4  A    between atoms: N_8  and  C_10 
REMARK    5  A    between atoms: C_23  and  O_18 
ROOT
ATOM      1  C   UNL d   1       2.862   1.321   0.000  0.00  0.00     0.081 A 
ATOM      2  C   UNL d   1       3.342   0.650   0.000  0.00  0.00     0.069 A 
ATOM      3  C   UNL d   1       2.067   1.062   0.000  0.00  0.00     0.027 A 
ATOM      4  N   UNL d   1       2.862  -0.017   0.000  0.00  0.00    -0.304 N 
ATOM      5  C   UNL d   1       2.067   0.237   0.000  0.00  0.00     0.065 A 
ATOM      6  C   UNL d   1       1.363   1.475   0.000  0.00  0.00     0.058 A 
ATOM      7  C   UNL d   1       1.363  -0.179   0.000  0.00  0.00     0.021 A 
ATOM      8  C   UNL d   1       0.650   1.062   0.000  0.00  0.00     0.197 A 
ATOM      9  C   UNL d   1       0.650   0.233   0.000  0.00  0.00     0.044 A 
ATOM     10  C   UNL d   1       4.175   0.658   0.000  0.00  0.00     0.019 C 
ATOM     11  C   UNL d   1       3.117  -0.804   0.000  0.00  0.00     0.099 C 
ATOM     12  O   UNL d   1      -0.071   1.475   0.000  0.00  0.00    -0.286 OA
ENDROOT
BRANCH   6  13
ATOM     13  C   UNL d   1       1.367   2.300   0.000  0.00  0.00     0.083 C 
BRANCH  13  14
ATOM     14  N   UNL d   1       0.650   2.712   0.000  0.00  0.00    -0.302 N 
ATOM     15  C   UNL d   1       0.650   3.533   0.000  0.00  0.00     0.080 A 
ATOM     16  C   UNL d   1      -0.071   3.946   0.000  0.00  0.00     0.019 A 
ATOM     17  C   UNL d   1      -0.783   3.533   0.000  0.00  0.00     0.003 A 
ATOM     18  C   UNL d   1      -0.783   2.708   0.000  0.00  0.00     0.019 A 
ATOM     19  C   UNL d   1      -1.496   3.946   0.000  0.00  0.00     0.000 C 
ATOM     20  C   UNL d   1      -0.062   2.296   0.000  0.00  0.00     0.080 A 
ENDBRANCH  13  14
ENDBRANCH   6  13
BRANCH   1  21
ATOM     21  C   UNL d   1       3.112   2.108   0.000  0.00  0.00     0.302 C 
ATOM     22  O   UNL d   1       2.554   2.721   0.000  0.00  0.00    -0.259 OA
BRANCH  21  23
ATOM     23  O   UNL d   1       3.917   2.275   0.000  0.00  0.00    -0.271 OA
BRANCH  23  24
ATOM     24  C   UNL d   1       4.175   3.062   0.000  0.00  0.00     0.126 C 
ATOM     25  C   UNL d   1       4.979   3.233   0.000  0.00  0.00     0.029 C 
ENDBRANCH  23  24
ENDBRANCH  21  23
ENDBRANCH   1  21
TORSDOF 5
