REMARK  3 active torsions:
REMARK  status: ('A' for Active; 'I' for Inactive)
REMARK    1  A    between atoms: S_7  and  C_1 
REMARK    2  A    between atoms: C_16  and  N_2 
REMARK    3  A    between atoms: C_4  and  S_7 
ROOT
ATOM      1  S   UNL d   1       0.119   1.543   0.000  0.00  0.00    -0.028 SA
ENDROOT
BRANCH   1   2
ATOM      2  C   UNL d   1       0.119   0.680   0.000  0.00  0.00     0.117 A 
ATOM      3  C   UNL d   1      -0.595   0.278   0.000  0.00  0.00     0.048 A 
ATOM      4  C   UNL d   1      -0.595  -0.556   0.000  0.00  0.00     0.114 A 
ATOM      5  C   UNL d   1      -1.384   0.516   0.000  0.00  0.00     0.010 A 
ATOM      6  S   UNL d   1      -1.384  -0.794   0.000  0.00  0.00    -0.068 SA
ATOM      7  N   UNL d   1       0.119  -0.958   0.000  0.00  0.00    -0.217 NA
ATOM      8  C   UNL d   1      -1.861  -0.104   0.000  0.00  0.00     0.031 A 
ATOM      9  C   UNL d   1      -2.719  -0.079   0.000  0.00  0.00     0.007 C 
ATOM     10  C   UNL d   1       0.853  -0.556   0.000  0.00  0.00     0.200 A 
ATOM     11  N   UNL d   1       0.853   0.278   0.000  0.00  0.00    -0.217 NA
ATOM     12  C   UNL d   1      -1.667   1.325   0.000  0.00  0.00     0.001 C 
ENDBRANCH   1   2
BRANCH   1  13
ATOM     13  C   UNL d   1       0.853   1.945   0.000  0.00  0.00     0.220 A 
ATOM     14  N   UNL d   1       1.607   1.543   0.000  0.00  0.00    -0.186 N 
ATOM     15  N   UNL d   1       2.208   2.109   0.000  0.00  0.00    -0.038 NA
ATOM     16  N   UNL d   1       1.846   2.853   0.000  0.00  0.00    -0.022 NA
ATOM     17  N   UNL d   1       1.017   2.754   0.000  0.00  0.00    -0.101 NA
BRANCH  14  18
ATOM     18  C   UNL d   1       1.607   0.709   0.000  0.00  0.00     0.087 A 
ATOM     19  C   UNL d   1       1.017   0.372   0.000  0.00  0.00     0.019 A 
ATOM     20  C   UNL d   1       1.012  -0.437   0.000  0.00  0.00     0.002 A 
ATOM     21  C   UNL d   1       1.727  -0.893   0.000  0.00  0.00     0.000 A 
ATOM     22  C   UNL d   1       2.282  -0.556   0.000  0.00  0.00     0.002 A 
ATOM     23  C   UNL d   1       2.322   0.253   0.000  0.00  0.00     0.019 A 
ENDBRANCH  14  18
ENDBRANCH   1  13
TORSDOF 3
