REMARK  9 active torsions:
REMARK  status: ('A' for Active; 'I' for Inactive)
REMARK    1  A    between atoms: C_17  and  N_4 
REMARK    2  A    between atoms: S_16  and  C_7 
REMARK    3  A    between atoms: S_15  and  C_8 
REMARK    4  A    between atoms: C_11  and  C_19 
REMARK    5  A    between atoms: C_22  and  S_15 
REMARK    6  A    between atoms: C_19  and  S_16 
REMARK    7  A    between atoms: C_20  and  C_22 
REMARK    8  A    between atoms: O_25  and  C_20 
REMARK    9  A    between atoms: C_29  and  O_25 
ROOT
ATOM      1  N   UNL d   1       0.018   1.313   0.000  0.00  0.00    -0.269 N 
ATOM      2  C   UNL d   1       0.691   1.810   0.000  0.00  0.00     0.201 A 
ATOM      3  C   UNL d   1      -0.650   1.787   0.000  0.00  0.00     0.177 A 
ATOM      4  N   UNL d   1       0.433   2.595   0.000  0.00  0.00    -0.121 NA
ATOM      5  N   UNL d   1      -0.393   2.568   0.000  0.00  0.00    -0.127 NA
ENDROOT
BRANCH   3   6
ATOM      6  C   UNL d   1      -1.390   1.444   0.000  0.00  0.00     0.078 C 
BRANCH   6   7
ATOM      7  S   UNL d   1      -1.476   0.618   0.000  0.00  0.00    -0.045 SA
BRANCH   7   8
ATOM      8  C   UNL d   1      -2.234   0.253   0.000  0.00  0.00     0.198 A 
ATOM      9  N   UNL d   1      -2.925   0.727   0.000  0.00  0.00    -0.183 NA
ATOM     10  C   UNL d   1      -3.665   0.379   0.000  0.00  0.00     0.283 A 
ATOM     11  C   UNL d   1      -3.751  -0.438   0.000  0.00  0.00     0.082 A 
ATOM     12  O   UNL d   1      -4.356   0.880   0.000  0.00  0.00    -0.265 OA
ATOM     13  C   UNL d   1      -3.083  -0.921   0.000  0.00  0.00     0.117 A 
ATOM     14  C   UNL d   1      -4.401  -0.921   0.000  0.00  0.00     0.013 A 
ATOM     15  N   UNL d   1      -2.325  -0.596   0.000  0.00  0.00    -0.214 NA
ATOM     16  S   UNL d   1      -3.317  -1.697   0.000  0.00  0.00    -0.068 SA
ATOM     17  C   UNL d   1      -4.139  -1.697   0.000  0.00  0.00     0.031 A 
ATOM     18  C   UNL d   1      -4.816  -2.171   0.000  0.00  0.00     0.006 A 
ATOM     19  C   UNL d   1      -5.484  -1.720   0.000  0.00  0.00     0.001 A 
ATOM     20  C   UNL d   1      -5.222  -0.921   0.000  0.00  0.00     0.001 A 
ENDBRANCH   7   8
ENDBRANCH   6   7
ENDBRANCH   3   6
BRANCH   1  21
ATOM     21  C   UNL d   1       0.059   0.487   0.000  0.00  0.00     0.067 A 
ATOM     22  C   UNL d   1      -0.632   0.036   0.000  0.00  0.00     0.018 A 
ATOM     23  C   UNL d   1      -0.564  -0.812   0.000  0.00  0.00     0.002 A 
ATOM     24  C   UNL d   1       0.167  -1.178   0.000  0.00  0.00     0.000 A 
ATOM     25  C   UNL d   1       0.867  -0.722   0.000  0.00  0.00     0.002 A 
ATOM     26  C   UNL d   1       0.817   0.104   0.000  0.00  0.00     0.018 A 
ENDBRANCH   1  21
BRANCH   2  27
ATOM     27  S   UNL d   1       1.517   1.593   0.000  0.00  0.00    -0.042 SA
BRANCH  27  28
ATOM     28  C   UNL d   1       1.711   0.794   0.000  0.00  0.00     0.107 C 
BRANCH  28  29
ATOM     29  C   UNL d   1       2.510   0.555   0.000  0.00  0.00     0.307 C 
ATOM     30  O   UNL d   1       2.708  -0.248   0.000  0.00  0.00    -0.258 OA
BRANCH  29  31
ATOM     31  O   UNL d   1       3.092   1.137   0.000  0.00  0.00    -0.271 OA
BRANCH  31  32
ATOM     32  C   UNL d   1       2.902   1.945   0.000  0.00  0.00     0.126 C 
ATOM     33  C   UNL d   1       3.485   2.528   0.000  0.00  0.00     0.029 C 
ENDBRANCH  31  32
ENDBRANCH  29  31
ENDBRANCH  28  29
ENDBRANCH  27  28
ENDBRANCH   2  27
TORSDOF 9
