REMARK  2 active torsions:
REMARK  status: ('A' for Active; 'I' for Inactive)
REMARK    1  A    between atoms: N_2  and  N_1 
REMARK    2  A    between atoms: N_8  and  C_10 
ROOT
ATOM      1  N   UNL d   1       1.217  -0.004   0.000  0.00  0.00    -0.171 N 
ATOM      2  C   UNL d   1       0.741   0.660   0.000  0.00  0.00     0.283 A 
ATOM      3  C   UNL d   1      -0.054   0.400   0.000  0.00  0.00     0.085 A 
ATOM      4  C   UNL d   1       0.741  -0.678   0.000  0.00  0.00     0.282 A 
ATOM      5  C   UNL d   1      -0.054  -0.436   0.000  0.00  0.00     0.064 A 
ATOM      6  C   UNL d   1      -0.768   0.808   0.000  0.00  0.00     0.131 A 
ATOM      7  O   UNL d   1       1.024   1.437   0.000  0.00  0.00    -0.265 OA
ATOM      8  O   UNL d   1       1.024  -1.473   0.000  0.00  0.00    -0.265 OA
ATOM      9  C   UNL d   1      -0.768  -0.849   0.000  0.00  0.00     0.005 A 
ATOM     10  C   UNL d   1      -1.478   0.400   0.000  0.00  0.00     0.024 A 
ATOM     11  C   UNL d   1      -1.478  -0.418   0.000  0.00  0.00     0.002 A 
ENDROOT
BRANCH   1  12
ATOM     12  N   UNL d   1       2.035  -0.094   0.000  0.00  0.00    -0.189 N 
ATOM     13  C   UNL d   1       2.533  -0.741   0.000  0.00  0.00     0.169 A 
ATOM     14  S   UNL d   1       3.306  -0.463   0.000  0.00  0.00    -0.051 SA
ATOM     15  S   UNL d   1       2.295  -1.563   0.000  0.00  0.00    -0.050 SA
ATOM     16  C   UNL d   1       3.288   0.359   0.000  0.00  0.00     0.100 A 
ATOM     17  C   UNL d   1       2.511   0.593   0.000  0.00  0.00     0.287 A 
ATOM     18  O   UNL d   1       2.250   1.370   0.000  0.00  0.00    -0.265 OA
ENDBRANCH   1  12
BRANCH   6  19
ATOM     19  N   UNL d   1      -0.768   1.653   0.000  0.00  0.00    -0.114 N 
ATOM     20  O   UNL d   1      -0.054   2.062   0.000  0.00  0.00    -0.532 OA
ATOM     21  O   UNL d   1      -1.478   2.062   0.000  0.00  0.00    -0.532 OA
ENDBRANCH   6  19
TORSDOF 2
