REMARK  6 active torsions:
REMARK  status: ('A' for Active; 'I' for Inactive)
REMARK    1  A    between atoms: C_4  and  N_1 
REMARK    2  A    between atoms: C_3  and  C_2 
REMARK    3  A    between atoms: S_6  and  C_11 
REMARK    4  A    between atoms: C_7  and  S_6 
REMARK    5  A    between atoms: C_8  and  C_10 
REMARK    6  A    between atoms: C_11  and  C_8 
ROOT
ATOM      1  C   UNL d   1       0.917   1.040   0.000  0.00  0.00     0.202 C 
ATOM      2  O   UNL d   1       1.337   1.758   0.000  0.00  0.00    -0.286 OA
ENDROOT
BRANCH   1   3
ATOM      3  C   UNL d   1       1.330   0.323   0.000  0.00  0.00     0.040 A 
ATOM      4  C   UNL d   1       0.917  -0.392   0.000  0.00  0.00     0.005 A 
ATOM      5  C   UNL d   1       1.348  -1.091   0.000  0.00  0.00     0.024 A 
ATOM      6  C   UNL d   1       2.179  -1.091   0.000  0.00  0.00     0.127 A 
ATOM      7  C   UNL d   1       2.581  -0.373   0.000  0.00  0.00     0.024 A 
ATOM      8  C   UNL d   1       2.146   0.323   0.000  0.00  0.00     0.005 A 
BRANCH   6   9
ATOM      9  N   UNL d   1       2.624  -1.809   0.000  0.00  0.00    -0.114 N 
ATOM     10  O   UNL d   1       2.218  -2.526   0.000  0.00  0.00    -0.532 OA
ATOM     11  O   UNL d   1       3.462  -1.772   0.000  0.00  0.00    -0.532 OA
ENDBRANCH   6   9
ENDBRANCH   1   3
BRANCH   1  12
ATOM     12  C   UNL d   1       0.102   1.040   0.000  0.00  0.00     0.077 C 
BRANCH  12  13
ATOM     13  S   UNL d   1      -0.323   0.323   0.000  0.00  0.00    -0.083 SA
BRANCH  13  14
ATOM     14  C   UNL d   1      -1.171   0.323   0.000  0.00  0.00     0.035 A 
ATOM     15  C   UNL d   1      -1.566   1.044   0.000  0.00  0.00     0.070 A 
ATOM     16  C   UNL d   1      -2.403   1.044   0.000  0.00  0.00     0.007 A 
ATOM     17  C   UNL d   1      -2.824   0.323   0.000  0.00  0.00     0.000 A 
ATOM     18  C   UNL d   1      -2.410  -0.381   0.000  0.00  0.00     0.001 A 
ATOM     19  C   UNL d   1      -1.584  -0.381   0.000  0.00  0.00     0.007 A 
BRANCH  15  20
ATOM     20  C   UNL d   1      -1.142   1.780   0.000  0.00  0.00     0.211 C 
ATOM     21  O   UNL d   1      -1.566   2.497   0.000  0.00  0.00    -0.644 OA
ATOM     22  O   UNL d   1      -0.315   1.794   0.000  0.00  0.00    -0.644 OA
ENDBRANCH  15  20
ENDBRANCH  13  14
ENDBRANCH  12  13
ENDBRANCH   1  12
TORSDOF 6
