REMARK  1 active torsions:
REMARK  status: ('A' for Active; 'I' for Inactive)
REMARK    1  A    between atoms: C_12  and  N_1 
ROOT
ATOM      1  N   UNL d   1       0.563  -0.108   0.000  0.00  0.00    -0.244 N 
ATOM      2  C   UNL d   1       0.124   0.565   0.000  0.00  0.00     0.251 A 
ATOM      3  C   UNL d   1      -0.013  -0.707   0.000  0.00  0.00     0.260 A 
ATOM      4  C   UNL d   1      -0.747  -0.394   0.000  0.00  0.00     0.033 A 
ATOM      5  C   UNL d   1      -0.664   0.401   0.000  0.00  0.00     0.125 A 
ATOM      6  C   UNL d   1      -3.079  -0.063   0.000  0.00  0.00     0.068 A 
ATOM      7  C   UNL d   1      -1.431   0.081   0.000  0.00  0.00    -0.010 A 
ATOM      8  C   UNL d   1      -1.764  -0.659   0.000  0.00  0.00    -0.007 A 
ATOM      9  C   UNL d   1      -2.587  -0.727   0.000  0.00  0.00    -0.015 A 
ATOM     10  C   UNL d   1      -2.708   0.674   0.000  0.00  0.00    -0.015 A 
ATOM     11  C   UNL d   1      -1.890   0.747   0.000  0.00  0.00    -0.007 A 
ATOM     12  O   UNL d   1       0.424   1.151   0.000  0.00  0.00    -0.271 OA
ATOM     13  O   UNL d   1       0.214  -1.365   0.000  0.00  0.00    -0.267 OA
ATOM     14  C   UNL d   1      -1.542   1.491   0.000  0.00  0.00    -0.001 A 
ATOM     15  C   UNL d   1      -1.292  -1.325   0.000  0.00  0.00    -0.001 A 
ATOM     16  C   UNL d   1      -2.945  -1.486   0.000  0.00  0.00    -0.004 A 
ATOM     17  C   UNL d   1      -3.180   1.345   0.000  0.00  0.00    -0.004 A 
ATOM     18  C   UNL d   1      -2.029   2.163   0.000  0.00  0.00    -0.000 A 
ATOM     19  C   UNL d   1      -1.655  -2.092   0.000  0.00  0.00    -0.000 A 
ATOM     20  C   UNL d   1      -2.481  -2.160   0.000  0.00  0.00    -0.000 A 
ATOM     21  C   UNL d   1      -2.829   2.087   0.000  0.00  0.00    -0.000 A 
ENDROOT
BRANCH   1  22
ATOM     22  C   UNL d   1       1.423  -0.169   0.000  0.00  0.00     0.089 A 
ATOM     23  C   UNL d   1       1.797  -0.949   0.000  0.00  0.00     0.117 A 
ATOM     24  N   UNL d   1       2.667  -1.017   0.000  0.00  0.00    -0.241 NA
ATOM     25  C   UNL d   1       3.167  -0.295   0.000  0.00  0.00     0.099 A 
ATOM     26  C   UNL d   1       2.786   0.482   0.000  0.00  0.00     0.022 A 
ATOM     27  C   UNL d   1       1.910   0.545   0.000  0.00  0.00     0.021 A 
ENDBRANCH   1  22
TORSDOF 1
