REMARK  3 active torsions:
REMARK  status: ('A' for Active; 'I' for Inactive)
REMARK    1  A    between atoms: C_10  and  N_1 
REMARK    2  A    between atoms: C_11  and  C_14 
REMARK    3  A    between atoms: O_20  and  C_11 
ROOT
ATOM      1  N   UNL d   1       0.814   0.566   0.000  0.00  0.00    -0.242 N 
ATOM      2  C   UNL d   1       0.350   1.228   0.000  0.00  0.00     0.267 A 
ATOM      3  C   UNL d   1       0.350  -0.115   0.000  0.00  0.00     0.267 A 
ATOM      4  C   UNL d   1      -0.442   0.962   0.000  0.00  0.00     0.061 A 
ATOM      5  C   UNL d   1      -0.442   0.147   0.000  0.00  0.00     0.061 A 
ATOM      6  C   UNL d   1      -1.155  -0.276   0.000  0.00  0.00     0.005 A 
ATOM      7  C   UNL d   1      -1.155   1.380   0.000  0.00  0.00     0.005 A 
ATOM      8  C   UNL d   1      -1.859   0.147   0.000  0.00  0.00     0.000 A 
ATOM      9  C   UNL d   1      -1.859   0.962   0.000  0.00  0.00     0.000 A 
ATOM     10  O   UNL d   1       0.640   2.002   0.000  0.00  0.00    -0.267 OA
ATOM     11  O   UNL d   1       0.612  -0.916   0.000  0.00  0.00    -0.267 OA
ATOM     12  C   UNL d   1      -2.590  -0.294   0.000  0.00  0.00     0.000 C 
ATOM     13  C   UNL d   1      -2.590   1.403   0.000  0.00  0.00     0.000 C 
ENDROOT
BRANCH   1  14
ATOM     14  C   UNL d   1       1.633   0.497   0.000  0.00  0.00     0.070 A 
ATOM     15  C   UNL d   1       1.988  -0.253   0.000  0.00  0.00     0.018 A 
ATOM     16  C   UNL d   1       2.802  -0.336   0.000  0.00  0.00     0.007 A 
ATOM     17  C   UNL d   1       3.262   0.345   0.000  0.00  0.00     0.063 A 
ATOM     18  C   UNL d   1       2.913   1.100   0.000  0.00  0.00     0.007 A 
ATOM     19  C   UNL d   1       2.098   1.159   0.000  0.00  0.00     0.018 A 
BRANCH  17  20
ATOM     20  C   UNL d   1       4.104   0.276   0.000  0.00  0.00     0.296 C 
ATOM     21  O   UNL d   1       4.569   0.939   0.000  0.00  0.00    -0.259 OA
BRANCH  20  22
ATOM     22  O   UNL d   1       4.436  -0.474   0.000  0.00  0.00    -0.296 OA
ATOM     23  C   UNL d   1       5.250  -0.557   0.000  0.00  0.00     0.185 C 
ENDBRANCH  20  22
ENDBRANCH  17  20
ENDBRANCH   1  14
TORSDOF 3
