REMARK  4 active torsions:
REMARK  status: ('A' for Active; 'I' for Inactive)
REMARK    1  A    between atoms: C_15  and  O_20 
REMARK    2  A    between atoms: C_16  and  O_21 
REMARK    3  A    between atoms: O_20  and  C_18 
REMARK    4  A    between atoms: O_21  and  C_19 
ROOT
ATOM      1  C   UNL d   1      -0.893   0.132   0.000  0.00  0.00     0.161 A 
ATOM      2  O   UNL d   1      -0.426  -0.467   0.000  0.00  0.00    -0.291 OA
ATOM      3  C   UNL d   1      -0.176   0.547   0.000  0.00  0.00     0.033 A 
ATOM      4  C   UNL d   1      -1.606   0.547   0.000  0.00  0.00     0.033 A 
ATOM      5  C   UNL d   1      -1.687  -0.180   0.000  0.00  0.00     0.016 A 
ATOM      6  C   UNL d   1      -0.779  -0.996   0.000  0.00  0.00     0.296 A 
ATOM      7  C   UNL d   1      -0.176   1.378   0.000  0.00  0.00     0.101 A 
ATOM      8  C   UNL d   1      -1.606   1.378   0.000  0.00  0.00     0.101 A 
ATOM      9  O   UNL d   1      -0.893   1.793   0.000  0.00  0.00    -0.307 OA
ATOM     10  C   UNL d   1      -1.452  -0.882   0.000  0.00  0.00     0.062 A 
ATOM     11  C   UNL d   1      -2.322   1.793   0.000  0.00  0.00     0.049 A 
ATOM     12  C   UNL d   1       0.533   1.793   0.000  0.00  0.00     0.049 A 
ATOM     13  C   UNL d   1       0.533   0.132   0.000  0.00  0.00     0.003 A 
ATOM     14  C   UNL d   1      -2.322   0.132   0.000  0.00  0.00     0.003 A 
ATOM     15  O   UNL d   1      -0.441  -1.587   0.000  0.00  0.00    -0.259 OA
ATOM     16  C   UNL d   1      -3.039   1.378   0.000  0.00  0.00     0.105 A 
ATOM     17  C   UNL d   1       1.250   1.378   0.000  0.00  0.00     0.105 A 
ATOM     18  C   UNL d   1       1.250   0.547   0.000  0.00  0.00     0.025 A 
ATOM     19  C   UNL d   1      -3.039   0.547   0.000  0.00  0.00     0.025 A 
ATOM     20  C   UNL d   1      -2.470   0.000   0.000  0.00  0.00    -0.001 A 
ATOM     21  C   UNL d   1      -1.951  -1.514   0.000  0.00  0.00     0.005 A 
ATOM     22  C   UNL d   1      -3.010  -0.599   0.000  0.00  0.00    -0.000 A 
ATOM     23  C   UNL d   1      -2.745  -1.356   0.000  0.00  0.00     0.000 A 
ENDROOT
BRANCH  17  24
ATOM     24  O   UNL d   1       1.724   1.672   0.000  0.00  0.00    -0.273 OA
BRANCH  24  25
ATOM     25  C   UNL d   1       2.319   1.452   0.000  0.00  0.00     0.300 C 
ATOM     26  O   UNL d   1       2.275   0.882   0.000  0.00  0.00    -0.259 OA
ATOM     27  C   UNL d   1       2.910   1.826   0.000  0.00  0.00     0.074 C 
ENDBRANCH  24  25
ENDBRANCH  17  24
BRANCH  16  28
ATOM     28  O   UNL d   1      -3.524   1.672   0.000  0.00  0.00    -0.273 OA
BRANCH  28  29
ATOM     29  C   UNL d   1      -4.068   1.650   0.000  0.00  0.00     0.300 C 
ATOM     30  O   UNL d   1      -4.189   1.033   0.000  0.00  0.00    -0.259 OA
ATOM     31  C   UNL d   1      -4.483   2.135   0.000  0.00  0.00     0.074 C 
ENDBRANCH  28  29
ENDBRANCH  16  28
TORSDOF 4
