REMARK  2 active torsions:
REMARK  status: ('A' for Active; 'I' for Inactive)
REMARK       I    between atoms: C_2  and  N_1 
REMARK    1  A    between atoms: C_4  and  C_2 
REMARK    2  A    between atoms: C_6  and  C_7 
ROOT
ATOM      1  C   UNL d   1      -0.671  -0.844   0.000  0.00  0.00     0.057 A 
ATOM      2  C   UNL d   1       0.508  -2.014   0.000  0.00  0.00    -0.023 A 
ATOM      3  C   UNL d   1       0.131  -0.620   0.000  0.00  0.00     0.004 A 
ATOM      4  C   UNL d   1      -0.895  -1.627   0.000  0.00  0.00     0.004 A 
ATOM      5  C   UNL d   1       0.732  -1.230   0.000  0.00  0.00    -0.004 A 
ATOM      6  C   UNL d   1      -0.294  -2.237   0.000  0.00  0.00    -0.004 A 
ENDROOT
BRANCH   1   7
ATOM      7  C   UNL d   1      -1.254  -0.266   0.000  0.00  0.00     0.267 C 
ATOM      8  N   UNL d   1      -1.030   0.541   0.000  0.00  0.00    -0.240 N 
ATOM      9  C   UNL d   1      -0.224   0.764   0.000  0.00  0.00     0.267 A 
ATOM     10  C   UNL d   1      -1.678   1.058   0.000  0.00  0.00     0.086 A 
ATOM     11  O   UNL d   1       0.354   0.093   0.000  0.00  0.00    -0.267 OA
ATOM     12  C   UNL d   1       0.131   1.506   0.000  0.00  0.00     0.061 A 
ATOM     13  C   UNL d   1      -0.275   2.261   0.000  0.00  0.00     0.005 A 
ATOM     14  C   UNL d   1      -1.030   2.400   0.000  0.00  0.00     0.002 A 
ATOM     15  C   UNL d   1      -1.678   1.883   0.000  0.00  0.00     0.019 A 
ATOM     16  O   UNL d   1      -2.037  -0.466   0.000  0.00  0.00    -0.267 OA
ENDBRANCH   1   7
BRANCH   2  17
ATOM     17  C   UNL d   1       1.095  -2.592   0.000  0.00  0.00     0.019 C 
ATOM     18  C   UNL d   1       1.678  -2.014   0.000  0.00  0.00     0.004 C 
ATOM     19  C   UNL d   1       1.678  -3.174   0.000  0.00  0.00     0.004 C 
ATOM     20  C   UNL d   1       0.508  -3.174   0.000  0.00  0.00     0.004 C 
ENDBRANCH   2  17
TORSDOF 2
