REMARK  2 active torsions:
REMARK  status: ('A' for Active; 'I' for Inactive)
REMARK    1  A    between atoms: C_12  and  N_1 
REMARK    2  A    between atoms: N_6  and  C_13 
ROOT
ATOM      1  N   UNL d   1      -0.681   0.013   0.000  0.00  0.00    -0.242 N 
ATOM      2  C   UNL d   1      -1.234   0.705   0.000  0.00  0.00     0.263 A 
ATOM      3  C   UNL d   1      -1.096  -0.654   0.000  0.00  0.00     0.263 A 
ATOM      4  C   UNL d   1      -1.929  -0.507   0.000  0.00  0.00     0.039 A 
ATOM      5  C   UNL d   1      -2.065   0.250   0.000  0.00  0.00     0.039 A 
ATOM      6  C   UNL d   1      -2.789   0.553   0.000  0.00  0.00     0.049 A 
ATOM      7  C   UNL d   1      -2.580  -1.009   0.000  0.00  0.00     0.049 A 
ATOM      8  C   UNL d   1      -3.432   0.079   0.000  0.00  0.00    -0.026 A 
ATOM      9  C   UNL d   1      -3.318  -0.719   0.000  0.00  0.00    -0.026 A 
ATOM     10  C   UNL d   1      -2.293  -0.130   0.000  0.00  0.00     0.018 A 
ATOM     11  O   UNL d   1      -0.779  -1.411   0.000  0.00  0.00    -0.267 OA
ATOM     12  O   UNL d   1      -1.129   1.414   0.000  0.00  0.00    -0.267 OA
ENDROOT
BRANCH   1  13
ATOM     13  C   UNL d   1       0.141   0.013   0.000  0.00  0.00     0.070 A 
ATOM     14  C   UNL d   1       0.556   0.730   0.000  0.00  0.00     0.019 A 
ATOM     15  C   UNL d   1       1.387   0.738   0.000  0.00  0.00     0.018 A 
ATOM     16  C   UNL d   1       1.810   0.013   0.000  0.00  0.00     0.096 A 
ATOM     17  C   UNL d   1       1.387  -0.695   0.000  0.00  0.00     0.018 A 
ATOM     18  C   UNL d   1       0.553  -0.695   0.000  0.00  0.00     0.019 A 
BRANCH  16  19
ATOM     19  N   UNL d   1       2.629   0.008   0.000  0.00  0.00     0.037 NA
ATOM     20  O   UNL d   1       2.095   0.627   0.000  0.00  0.00    -0.084 OA
ATOM     21  O   UNL d   1       3.486   0.163   0.000  0.00  0.00    -0.084 OA
ENDBRANCH  16  19
ENDBRANCH   1  13
TORSDOF 2
