REMARK  6 active torsions:
REMARK  status: ('A' for Active; 'I' for Inactive)
REMARK    1  A    between atoms: S_2  and  C_1 
REMARK    2  A    between atoms: N_3  and  S_2 
REMARK    3  A    between atoms: C_17  and  N_3 
REMARK    4  A    between atoms: C_4  and  C_12 
REMARK    5  A    between atoms: O_20  and  C_4 
REMARK    6  A    between atoms: C_23  and  O_20 
ROOT
ATOM      1  S   UNL d   1      -1.341   0.366   0.000  0.00  0.00     0.153 S 
ATOM      2  O   UNL d   1      -2.147   0.366   0.000  0.00  0.00    -0.232 OA
ENDROOT
BRANCH   1   3
ATOM      3  C   UNL d   1      -1.297   1.075   0.000  0.00  0.00     0.108 A 
ATOM      4  C   UNL d   1      -0.606   0.817   0.000  0.00  0.00     0.023 A 
ATOM      5  C   UNL d   1      -0.074   1.493   0.000  0.00  0.00     0.024 A 
ATOM      6  C   UNL d   1      -0.074   2.272   0.000  0.00  0.00     0.009 A 
ATOM      7  C   UNL d   1      -0.750   1.197   0.000  0.00  0.00    -0.027 A 
ATOM      8  C   UNL d   1      -0.861   2.568   0.000  0.00  0.00     0.024 A 
ATOM      9  C   UNL d   1      -1.326   2.039   0.000  0.00  0.00     0.023 A 
ATOM     10  C   UNL d   1      -1.615   2.257   0.000  0.00  0.00    -0.027 A 
ATOM     11  C   UNL d   1      -1.615   1.493   0.000  0.00  0.00    -0.012 A 
ATOM     12  C   UNL d   1      -2.172   0.817   0.000  0.00  0.00    -0.013 A 
ENDBRANCH   1   3
BRANCH   1  13
ATOM     13  N   UNL d   1      -0.927  -0.358   0.000  0.00  0.00    -0.185 NA
BRANCH  13  14
ATOM     14  C   UNL d   1      -0.089  -0.358   0.000  0.00  0.00     0.091 A 
ATOM     15  C   UNL d   1       0.325   0.384   0.000  0.00  0.00     0.020 A 
ATOM     16  C   UNL d   1       1.112   0.384   0.000  0.00  0.00     0.007 A 
ATOM     17  C   UNL d   1       1.533  -0.325   0.000  0.00  0.00     0.064 A 
ATOM     18  C   UNL d   1       1.142  -1.053   0.000  0.00  0.00     0.007 A 
ATOM     19  C   UNL d   1       0.325  -1.053   0.000  0.00  0.00     0.020 A 
BRANCH  17  20
ATOM     20  C   UNL d   1       2.383  -0.310   0.000  0.00  0.00     0.300 C 
ATOM     21  O   UNL d   1       2.797  -1.020   0.000  0.00  0.00    -0.259 OA
BRANCH  20  22
ATOM     22  O   UNL d   1       2.764   0.417   0.000  0.00  0.00    -0.271 OA
BRANCH  22  23
ATOM     23  C   UNL d   1       3.595   0.417   0.000  0.00  0.00     0.126 C 
ATOM     24  C   UNL d   1       3.990   1.149   0.000  0.00  0.00     0.029 C 
ENDBRANCH  22  23
ENDBRANCH  20  22
ENDBRANCH  17  20
ENDBRANCH  13  14
ENDBRANCH   1  13
TORSDOF 6
