REMARK  6 active torsions:
REMARK  status: ('A' for Active; 'I' for Inactive)
REMARK    1  A    between atoms: N_2  and  C_1 
REMARK    2  A    between atoms: N_3  and  C_1 
REMARK    3  A    between atoms: C_8  and  N_3 
REMARK    4  A    between atoms: C_5  and  O_7 
REMARK    5  A    between atoms: C_17  and  C_6 
REMARK    6  A    between atoms: O_7  and  C_9 
ROOT
ATOM      1  N   UNL d   1       0.533   1.454   0.000  0.00  0.00    -0.219 NA
ENDROOT
BRANCH   1   2
ATOM      2  C   UNL d   1      -0.190   1.862   0.000  0.00  0.00     0.206 C 
ATOM      3  S   UNL d   1      -0.190   2.686   0.000  0.00  0.00    -0.038 SA
BRANCH   2   4
ATOM      4  N   UNL d   1      -0.905   1.438   0.000  0.00  0.00    -0.282 N 
ATOM      5  C   UNL d   1      -1.619   1.841   0.000  0.00  0.00     0.066 A 
ATOM      6  C   UNL d   1      -2.338   1.438   0.000  0.00  0.00     0.018 A 
ATOM      7  C   UNL d   1      -2.338   0.602   0.000  0.00  0.00     0.003 A 
ATOM      8  C   UNL d   1      -1.619   0.214   0.000  0.00  0.00     0.019 A 
ATOM      9  C   UNL d   1      -0.905   0.626   0.000  0.00  0.00     0.082 A 
BRANCH   5  10
ATOM     10  C   UNL d   1      -1.619   2.686   0.000  0.00  0.00     0.018 C 
ATOM     11  C   UNL d   1      -2.322   3.085   0.000  0.00  0.00     0.002 C 
ENDBRANCH   5  10
ENDBRANCH   2   4
ENDBRANCH   1   2
BRANCH   1  12
ATOM     12  C   UNL d   1       1.248   1.862   0.000  0.00  0.00     0.084 A 
ATOM     13  C   UNL d   1       1.248   2.698   0.000  0.00  0.00     0.021 A 
ATOM     14  C   UNL d   1       1.942   3.110   0.000  0.00  0.00     0.026 A 
ATOM     15  C   UNL d   1       2.682   2.698   0.000  0.00  0.00     0.105 A 
ATOM     16  C   UNL d   1       2.682   1.862   0.000  0.00  0.00     0.026 A 
ATOM     17  C   UNL d   1       1.967   1.454   0.000  0.00  0.00     0.021 A 
BRANCH  15  18
ATOM     18  O   UNL d   1       3.396   3.110   0.000  0.00  0.00    -0.260 OA
BRANCH  18  19
ATOM     19  C   UNL d   1       4.119   2.698   0.000  0.00  0.00     0.391 C 
ATOM     20  F   UNL d   1       4.834   3.110   0.000  0.00  0.00    -0.145 F 
ATOM     21  F   UNL d   1       4.119   1.862   0.000  0.00  0.00    -0.145 F 
ENDBRANCH  18  19
ENDBRANCH  15  18
ENDBRANCH   1  12
TORSDOF 6
