REMARK  2 active torsions:
REMARK  status: ('A' for Active; 'I' for Inactive)
REMARK       I    between atoms: C_3  and  N_1 
REMARK       I    between atoms: C_4  and  N_2 
REMARK    1  A    between atoms: C_5  and  C_3 
REMARK    2  A    between atoms: C_6  and  C_4 
ROOT
ATOM      1  N   UNL d   1       0.580   3.272   0.000  0.00  0.00    -0.270 N 
ATOM      2  N   UNL d   1       2.230   3.280   0.000  0.00  0.00    -0.269 N 
ATOM      3  C   UNL d   1      -0.235   3.272   0.000  0.00  0.00     0.271 C 
ATOM      4  C   UNL d   1       3.045   3.294   0.000  0.00  0.00     0.271 C 
ATOM      5  C   UNL d   1       0.998   2.553   0.000  0.00  0.00     0.085 A 
ATOM      6  C   UNL d   1       1.812   2.568   0.000  0.00  0.00     0.101 A 
ATOM      7  C   UNL d   1       0.976   3.998   0.000  0.00  0.00     0.102 A 
ATOM      8  C   UNL d   1       1.812   3.998   0.000  0.00  0.00     0.102 A 
ATOM      9  O   UNL d   1      -0.653   3.998   0.000  0.00  0.00    -0.266 OA
ATOM     10  O   UNL d   1       3.455   2.590   0.000  0.00  0.00    -0.266 OA
ATOM     11  C   UNL d   1       0.580   1.841   0.000  0.00  0.00     0.021 C 
ENDROOT
BRANCH   3  12
ATOM     12  C   UNL d   1      -0.660   2.568   0.000  0.00  0.00     0.086 A 
ATOM     13  S   UNL d   1      -0.807   1.753   0.000  0.00  0.00    -0.082 SA
ATOM     14  C   UNL d   1      -1.621   1.643   0.000  0.00  0.00     0.036 A 
ATOM     15  C   UNL d   1      -1.981   2.392   0.000  0.00  0.00     0.008 A 
ATOM     16  C   UNL d   1      -1.379   2.964   0.000  0.00  0.00     0.012 A 
ENDBRANCH   3  12
BRANCH   4  17
ATOM     17  C   UNL d   1       3.617   3.888   0.000  0.00  0.00     0.086 A 
ATOM     18  S   UNL d   1       4.409   4.116   0.000  0.00  0.00    -0.082 SA
ATOM     19  C   UNL d   1       4.431   4.945   0.000  0.00  0.00     0.036 A 
ATOM     20  C   UNL d   1       3.639   5.216   0.000  0.00  0.00     0.008 A 
ATOM     21  C   UNL d   1       3.155   4.556   0.000  0.00  0.00     0.012 A 
ENDBRANCH   4  17
TORSDOF 2
