REMARK  6 active torsions:
REMARK  status: ('A' for Active; 'I' for Inactive)
REMARK    1  A    between atoms: C_3  and  S_1 
REMARK    2  A    between atoms: N_5  and  S_1 
REMARK    3  A    between atoms: S_2  and  N_6 
REMARK    4  A    between atoms: C_4  and  S_2 
REMARK    5  A    between atoms: O_25  and  C_15 
REMARK    6  A    between atoms: O_26  and  C_16 
ROOT
ATOM      1  N   UNL d   1      -0.864   0.100   0.000  0.00  0.00    -0.226 N 
ATOM      2  N   UNL d   1       0.781   0.163   0.000  0.00  0.00    -0.226 N 
ATOM      3  C   UNL d   1      -0.488   0.835   0.000  0.00  0.00     0.111 A 
ATOM      4  C   UNL d   1       0.393  -0.568   0.000  0.00  0.00     0.111 A 
ATOM      5  C   UNL d   1       0.342   0.864   0.000  0.00  0.00     0.111 A 
ATOM      6  C   UNL d   1      -0.426  -0.601   0.000  0.00  0.00     0.111 A 
ENDROOT
BRANCH   1   7
ATOM      7  S   UNL d   1      -1.699   0.071   0.000  0.00  0.00     0.273 S 
ATOM      8  O   UNL d   1      -2.079  -0.664   0.000  0.00  0.00    -0.200 OA
ATOM      9  O   UNL d   1      -2.138   0.764   0.000  0.00  0.00    -0.200 OA
BRANCH   7  10
ATOM     10  C   UNL d   1      -2.526   0.046   0.000  0.00  0.00     0.126 A 
ATOM     11  C   UNL d   1      -2.914  -0.676   0.000  0.00  0.00     0.106 A 
ATOM     12  C   UNL d   1      -3.741  -0.693   0.000  0.00  0.00     0.025 A 
ATOM     13  C   UNL d   1      -4.171   0.013   0.000  0.00  0.00     0.002 A 
ATOM     14  C   UNL d   1      -3.770   0.739   0.000  0.00  0.00     0.001 A 
ATOM     15  C   UNL d   1      -2.952   0.760   0.000  0.00  0.00     0.015 A 
ATOM     16  C   UNL d   1      -4.205   1.449   0.000  0.00  0.00     0.000 C 
BRANCH  11  17
ATOM     17  O   UNL d   1      -2.488  -1.378   0.000  0.00  0.00    -0.327 OA
ATOM     18  C   UNL d   1      -1.662  -1.357   0.000  0.00  0.00     0.181 C 
ENDBRANCH  11  17
ENDBRANCH   7  10
ENDBRANCH   1   7
BRANCH   2  19
ATOM     19  S   UNL d   1       1.607   0.196   0.000  0.00  0.00     0.273 S 
ATOM     20  O   UNL d   1       2.046  -0.505   0.000  0.00  0.00    -0.200 OA
ATOM     21  O   UNL d   1       1.996   0.923   0.000  0.00  0.00    -0.200 OA
BRANCH  19  22
ATOM     22  C   UNL d   1       2.434   0.196   0.000  0.00  0.00     0.126 A 
ATOM     23  C   UNL d   1       2.843  -0.518   0.000  0.00  0.00     0.106 A 
ATOM     24  C   UNL d   1       3.662  -0.518   0.000  0.00  0.00     0.025 A 
ATOM     25  C   UNL d   1       4.075   0.196   0.000  0.00  0.00     0.002 A 
ATOM     26  C   UNL d   1       3.662   0.910   0.000  0.00  0.00     0.001 A 
ATOM     27  C   UNL d   1       2.835   0.902   0.000  0.00  0.00     0.015 A 
ATOM     28  C   UNL d   1       4.063   1.624   0.000  0.00  0.00     0.000 C 
BRANCH  23  29
ATOM     29  O   UNL d   1       2.430  -1.232   0.000  0.00  0.00    -0.327 OA
ATOM     30  C   UNL d   1       2.843  -1.946   0.000  0.00  0.00     0.181 C 
ENDBRANCH  23  29
ENDBRANCH  19  22
ENDBRANCH   2  19
TORSDOF 6
