REMARK  8 active torsions:
REMARK  status: ('A' for Active; 'I' for Inactive)
REMARK    1  A    between atoms: C_6  and  C_1 
REMARK    2  A    between atoms: C_8  and  C_2 
REMARK    3  A    between atoms: S_10  and  C_3 
REMARK    4  A    between atoms: C_15  and  C_4 
REMARK       I    between atoms: N_9  and  C_6 
REMARK    5  A    between atoms: C_19  and  N_9 
REMARK    6  A    between atoms: C_18  and  S_10 
REMARK    7  A    between atoms: C_12  and  C_18 
REMARK       I    between atoms: N_14  and  C_12 
REMARK    8  A    between atoms: C_21  and  N_14 
ROOT
ATOM      1  C   UNL d   1      -2.698  -0.297   0.000  0.00  0.00     0.076 A 
ATOM      2  C   UNL d   1      -1.277  -0.297   0.000  0.00  0.00     0.045 A 
ATOM      3  C   UNL d   1      -1.277  -1.133   0.000  0.00  0.00     0.112 A 
ATOM      4  C   UNL d   1      -1.988   0.112   0.000  0.00  0.00     0.010 A 
ATOM      5  C   UNL d   1      -2.698  -1.133   0.000  0.00  0.00     0.087 A 
ATOM      6  N   UNL d   1      -1.988  -1.546   0.000  0.00  0.00    -0.239 NA
ATOM      7  C   UNL d   1      -3.436  -1.565   0.000  0.00  0.00     0.021 C 
ENDROOT
BRANCH   3   8
ATOM      8  S   UNL d   1      -0.539  -1.565   0.000  0.00  0.00    -0.062 SA
BRANCH   8   9
ATOM      9  C   UNL d   1       0.200  -1.147   0.000  0.00  0.00     0.099 C 
BRANCH   9  10
ATOM     10  C   UNL d   1       0.924  -1.565   0.000  0.00  0.00     0.286 C 
ATOM     11  N   UNL d   1       1.635  -1.156   0.000  0.00  0.00    -0.208 NA
ATOM     12  O   UNL d   1       0.924  -2.401   0.000  0.00  0.00    -0.265 OA
BRANCH  11  13
ATOM     13  C   UNL d   1       1.635  -0.339   0.000  0.00  0.00     0.085 A 
ATOM     14  C   UNL d   1       2.341   0.051   0.000  0.00  0.00     0.019 A 
ATOM     15  C   UNL d   1       2.345   0.873   0.000  0.00  0.00     0.002 A 
ATOM     16  C   UNL d   1       1.635   1.296   0.000  0.00  0.00     0.000 A 
ATOM     17  C   UNL d   1       0.933   0.887   0.000  0.00  0.00     0.002 A 
ATOM     18  C   UNL d   1       0.933   0.070   0.000  0.00  0.00     0.019 A 
ENDBRANCH  11  13
ENDBRANCH   9  10
ENDBRANCH   8   9
ENDBRANCH   3   8
BRANCH   2  19
ATOM     19  C   UNL d   1      -0.539   0.135   0.000  0.00  0.00     0.124 C 
ATOM     20  N   UNL d   1       0.200  -0.283   0.000  0.00  0.00    -0.146 N 
ENDBRANCH   2  19
BRANCH   4  21
ATOM     21  C   UNL d   1      -1.988   0.947   0.000  0.00  0.00     0.003 A 
ATOM     22  C   UNL d   1      -2.698   1.361   0.000  0.00  0.00     0.021 A 
ATOM     23  C   UNL d   1      -2.698   2.196   0.000  0.00  0.00     0.099 A 
ATOM     24  N   UNL d   1      -1.988   2.614   0.000  0.00  0.00    -0.242 NA
ATOM     25  C   UNL d   1      -1.277   2.196   0.000  0.00  0.00     0.099 A 
ATOM     26  C   UNL d   1      -1.277   1.361   0.000  0.00  0.00     0.021 A 
ENDBRANCH   4  21
BRANCH   1  27
ATOM     27  C   UNL d   1      -3.436   0.135   0.000  0.00  0.00     0.281 C 
ATOM     28  N   UNL d   1      -4.175  -0.283   0.000  0.00  0.00    -0.208 NA
ATOM     29  O   UNL d   1      -3.422   0.984   0.000  0.00  0.00    -0.265 OA
BRANCH  28  30
ATOM     30  C   UNL d   1      -4.871   0.112   0.000  0.00  0.00     0.085 A 
ATOM     31  C   UNL d   1      -5.572  -0.283   0.000  0.00  0.00     0.019 A 
ATOM     32  C   UNL d   1      -6.306   0.112   0.000  0.00  0.00     0.002 A 
ATOM     33  C   UNL d   1      -6.311   0.929   0.000  0.00  0.00     0.000 A 
ATOM     34  C   UNL d   1      -5.596   1.337   0.000  0.00  0.00     0.002 A 
ATOM     35  C   UNL d   1      -4.871   0.943   0.000  0.00  0.00     0.019 A 
ENDBRANCH  28  30
ENDBRANCH   1  27
TORSDOF 8
