REMARK  9 active torsions:
REMARK  status: ('A' for Active; 'I' for Inactive)
REMARK    1  A    between atoms: C_8  and  N_1 
REMARK    2  A    between atoms: C_6  and  C_2 
REMARK    3  A    between atoms: O_12  and  C_11 
REMARK    4  A    between atoms: C_18  and  O_12 
REMARK    5  A    between atoms: C_14  and  C_18 
REMARK    6  A    between atoms: C_16  and  C_14 
REMARK    7  A    between atoms: N_15  and  C_16 
REMARK    8  A    between atoms: C_23  and  N_15 
REMARK    9  A    between atoms: C_24  and  N_15 
ROOT
ATOM      1  N   UNL d   1       1.343   2.397   0.000  0.00  0.00    -0.306 N 
ATOM      2  C   UNL d   1       1.343   3.795   0.000  0.00  0.00     0.057 A 
ATOM      3  C   UNL d   1       0.818   3.092   0.000  0.00  0.00     0.067 A 
ATOM      4  C   UNL d   1       2.160   2.680   0.000  0.00  0.00     0.064 A 
ATOM      5  C   UNL d   1       2.160   3.505   0.000  0.00  0.00     0.023 A 
ATOM      6  C   UNL d   1       2.860   2.280   0.000  0.00  0.00     0.020 A 
ATOM      7  C   UNL d   1       2.860   3.910   0.000  0.00  0.00     0.026 A 
ATOM      8  C   UNL d   1       3.562   3.505   0.000  0.00  0.00     0.100 A 
ATOM      9  C   UNL d   1       0.000   3.092   0.000  0.00  0.00     0.019 C 
ATOM     10  C   UNL d   1       3.562   2.680   0.000  0.00  0.00     0.026 A 
ENDROOT
BRANCH   8  11
ATOM     11  O   UNL d   1       4.322   3.910   0.000  0.00  0.00    -0.302 OA
BRANCH  11  12
ATOM     12  C   UNL d   1       5.020   3.505   0.000  0.00  0.00     0.166 C 
BRANCH  12  13
ATOM     13  C   UNL d   1       5.782   3.910   0.000  0.00  0.00     0.238 C 
ATOM     14  O   UNL d   1       5.782   4.787   0.000  0.00  0.00    -0.283 OA
BRANCH  13  15
ATOM     15  C   UNL d   1       6.482   3.505   0.000  0.00  0.00     0.125 C 
BRANCH  15  16
ATOM     16  N   UNL d   1       7.240   3.910   0.000  0.00  0.00    -0.300 N 
BRANCH  16  17
ATOM     17  C   UNL d   1       7.478   4.728   0.000  0.00  0.00     0.080 C 
ATOM     18  C   UNL d   1       8.295   4.728   0.000  0.00  0.00     0.021 C 
ENDBRANCH  16  17
BRANCH  16  19
ATOM     19  C   UNL d   1       7.945   3.505   0.000  0.00  0.00     0.080 C 
ATOM     20  C   UNL d   1       8.703   3.910   0.000  0.00  0.00     0.021 C 
ENDBRANCH  16  19
ENDBRANCH  15  16
ENDBRANCH  13  15
ENDBRANCH  12  13
ENDBRANCH  11  12
ENDBRANCH   8  11
BRANCH   2  21
ATOM     21  C   UNL d   1       1.050   4.555   0.000  0.00  0.00     0.197 C 
ATOM     22  O   UNL d   1       1.518   5.312   0.000  0.00  0.00    -0.286 OA
ATOM     23  C   UNL d   1       0.233   4.555   0.000  0.00  0.00     0.045 C 
ENDBRANCH   2  21
BRANCH   1  24
ATOM     24  C   UNL d   1       1.050   1.640   0.000  0.00  0.00     0.064 A 
ATOM     25  C   UNL d   1       0.233   1.403   0.000  0.00  0.00     0.018 A 
ATOM     26  C   UNL d   1       0.000   0.585   0.000  0.00  0.00     0.002 A 
ATOM     27  C   UNL d   1       0.580   0.000   0.000  0.00  0.00     0.000 A 
ATOM     28  C   UNL d   1       1.397   0.177   0.000  0.00  0.00     0.002 A 
ATOM     29  C   UNL d   1       1.635   0.995   0.000  0.00  0.00     0.018 A 
ENDBRANCH   1  24
TORSDOF 9
