REMARK  1 active torsions:
REMARK  status: ('A' for Active; 'I' for Inactive)
REMARK    1  A    between atoms: C_6  and  C_1 
ROOT
ATOM      1  C   UNL d   1       0.797   1.090   0.000  0.00  0.00     0.162 A 
ATOM      2  N   UNL d   1      -0.031   1.090   0.000  0.00  0.00    -0.225 NA
ATOM      3  N   UNL d   1       1.058   1.859   0.000  0.00  0.00    -0.225 NA
ATOM      4  C   UNL d   1      -0.293   1.875   0.000  0.00  0.00     0.101 A 
ATOM      5  C   UNL d   1       0.379   2.343   0.000  0.00  0.00     0.101 A 
ATOM      6  C   UNL d   1      -1.043   2.214   0.000  0.00  0.00     0.021 A 
ATOM      7  C   UNL d   1       0.309   3.171   0.000  0.00  0.00     0.021 A 
ATOM      8  C   UNL d   1      -1.137   3.042   0.000  0.00  0.00     0.002 A 
ATOM      9  C   UNL d   1      -0.465   3.534   0.000  0.00  0.00     0.002 A 
ENDROOT
BRANCH   1  10
ATOM     10  C   UNL d   1       1.222   0.418   0.000  0.00  0.00     0.036 A 
ATOM     11  C   UNL d   1       2.050   0.453   0.000  0.00  0.00     0.005 A 
ATOM     12  C   UNL d   1       2.499  -0.238   0.000  0.00  0.00     0.030 A 
ATOM     13  C   UNL d   1       2.125  -0.972   0.000  0.00  0.00     0.140 A 
ATOM     14  C   UNL d   1       1.300  -1.012   0.000  0.00  0.00     0.030 A 
ATOM     15  F   UNL d   1       2.593  -1.668   0.000  0.00  0.00    -0.204 F 
ATOM     16  C   UNL d   1       0.848  -0.332   0.000  0.00  0.00     0.005 A 
ENDBRANCH   1  10
TORSDOF 1
