REMARK  3 active torsions:
REMARK  status: ('A' for Active; 'I' for Inactive)
REMARK    1  A    between atoms: C_8  and  C_1 
REMARK    2  A    between atoms: N_4  and  C_2 
REMARK       I    between atoms: C_6  and  N_4 
REMARK    3  A    between atoms: C_9  and  C_6 
ROOT
ATOM      1  C   UNL d   1      -3.220   2.515   0.000  0.00  0.00     0.177 A 
ATOM      2  C   UNL d   1      -3.901   2.981   0.000  0.00  0.00     0.114 A 
ATOM      3  O   UNL d   1      -3.451   1.713   0.000  0.00  0.00    -0.301 OA
ATOM      4  C   UNL d   1      -4.555   2.481   0.000  0.00  0.00     0.043 A 
ATOM      5  C   UNL d   1      -4.270   1.684   0.000  0.00  0.00     0.102 A 
ATOM      6  C   UNL d   1      -5.362   2.628   0.000  0.00  0.00     0.004 A 
ATOM      7  C   UNL d   1      -4.807   1.066   0.000  0.00  0.00     0.025 A 
ATOM      8  C   UNL d   1      -5.907   2.003   0.000  0.00  0.00     0.000 A 
ATOM      9  C   UNL d   1      -5.639   1.230   0.000  0.00  0.00     0.002 A 
ENDROOT
BRANCH   2  10
ATOM     10  N   UNL d   1      -3.901   3.829   0.000  0.00  0.00    -0.206 NA
ATOM     11  C   UNL d   1      -3.183   4.236   0.000  0.00  0.00     0.279 C 
ATOM     12  O   UNL d   1      -2.444   3.829   0.000  0.00  0.00    -0.265 OA
BRANCH  11  13
ATOM     13  C   UNL d   1      -3.174   5.068   0.000  0.00  0.00     0.058 A 
ATOM     14  C   UNL d   1      -2.477   5.496   0.000  0.00  0.00     0.007 A 
ATOM     15  C   UNL d   1      -2.490   6.327   0.000  0.00  0.00     0.030 A 
ATOM     16  C   UNL d   1      -3.212   6.726   0.000  0.00  0.00     0.140 A 
ATOM     17  C   UNL d   1      -3.913   6.311   0.000  0.00  0.00     0.030 A 
ATOM     18  F   UNL d   1      -3.237   7.549   0.000  0.00  0.00    -0.204 F 
ATOM     19  C   UNL d   1      -3.905   5.479   0.000  0.00  0.00     0.007 A 
ENDBRANCH  11  13
ENDBRANCH   2  10
BRANCH   1  20
ATOM     20  C   UNL d   1      -2.456   2.821   0.000  0.00  0.00     0.321 C 
ATOM     21  O   UNL d   1      -1.797   2.301   0.000  0.00  0.00    -0.261 OA
ATOM     22  N   UNL d   1      -2.330   3.648   0.000  0.00  0.00    -0.101 N 
ENDBRANCH   1  20
TORSDOF 3
