REMARK  3 active torsions:
REMARK  status: ('A' for Active; 'I' for Inactive)
REMARK    1  A    between atoms: C_8  and  C_1 
REMARK    2  A    between atoms: N_4  and  C_2 
REMARK       I    between atoms: C_6  and  N_4 
REMARK    3  A    between atoms: C_10  and  C_6 
ROOT
ATOM      1  C   UNL d   1       3.123  -2.372   0.000  0.00  0.00     0.177 A 
ATOM      2  C   UNL d   1       2.447  -1.883   0.000  0.00  0.00     0.114 A 
ATOM      3  O   UNL d   1       2.860  -3.148   0.000  0.00  0.00    -0.301 OA
ATOM      4  C   UNL d   1       1.783  -2.367   0.000  0.00  0.00     0.043 A 
ATOM      5  C   UNL d   1       2.033  -3.148   0.000  0.00  0.00     0.102 A 
ATOM      6  C   UNL d   1       0.977  -2.192   0.000  0.00  0.00     0.004 A 
ATOM      7  C   UNL d   1       1.482  -3.762   0.000  0.00  0.00     0.025 A 
ATOM      8  C   UNL d   1       0.418  -2.806   0.000  0.00  0.00     0.000 A 
ATOM      9  C   UNL d   1       0.681  -3.587   0.000  0.00  0.00     0.002 A 
ENDROOT
BRANCH   2  10
ATOM     10  N   UNL d   1       2.447  -1.056   0.000  0.00  0.00    -0.206 NA
ATOM     11  C   UNL d   1       1.733  -0.643   0.000  0.00  0.00     0.279 C 
ATOM     12  O   UNL d   1       1.733   0.188   0.000  0.00  0.00    -0.265 OA
BRANCH  11  13
ATOM     13  C   UNL d   1       1.019  -1.056   0.000  0.00  0.00     0.058 A 
ATOM     14  C   UNL d   1       0.305  -0.643   0.000  0.00  0.00     0.005 A 
ATOM     15  C   UNL d   1      -0.409  -1.056   0.000  0.00  0.00     0.000 A 
ATOM     16  C   UNL d   1      -0.409  -1.883   0.000  0.00  0.00     0.000 A 
ATOM     17  C   UNL d   1       0.305  -2.296   0.000  0.00  0.00     0.000 A 
ATOM     18  C   UNL d   1       1.019  -1.883   0.000  0.00  0.00     0.005 A 
ENDBRANCH  11  13
ENDBRANCH   2  10
BRANCH   1  19
ATOM     19  C   UNL d   1       3.925  -2.134   0.000  0.00  0.00     0.321 C 
ATOM     20  O   UNL d   1       4.526  -2.710   0.000  0.00  0.00    -0.261 OA
ATOM     21  N   UNL d   1       4.113  -1.345   0.000  0.00  0.00    -0.101 N 
ENDBRANCH   1  19
TORSDOF 3
