REMARK  6 active torsions:
REMARK  status: ('A' for Active; 'I' for Inactive)
REMARK    1  A    between atoms: N_6  and  C_1 
REMARK    2  A    between atoms: C_3  and  N_6 
REMARK    3  A    between atoms: N_4  and  C_3 
REMARK       I    between atoms: C_9  and  N_4 
REMARK    4  A    between atoms: C_12  and  C_9 
REMARK    5  A    between atoms: C_10  and  C_13 
REMARK    6  A    between atoms: O_20  and  C_10 
ROOT
ATOM      1  N   UNL d   1       0.504  -3.950   0.000  0.00  0.00    -0.179 NA
ATOM      2  C   UNL d   1       0.504  -4.779   0.000  0.00  0.00     0.281 C 
ATOM      3  O   UNL d   1      -0.208  -5.192   0.000  0.00  0.00    -0.265 OA
ENDROOT
BRANCH   1   4
ATOM      4  C   UNL d   1       1.217  -3.538   0.000  0.00  0.00     0.225 C 
ATOM      5  S   UNL d   1       1.929  -3.950   0.000  0.00  0.00    -0.037 SA
BRANCH   4   6
ATOM      6  N   UNL d   1       1.217  -2.704   0.000  0.00  0.00    -0.192 NA
BRANCH   6   7
ATOM      7  C   UNL d   1       1.938  -2.292   0.000  0.00  0.00     0.196 A 
ATOM      8  N   UNL d   1       2.017  -1.475   0.000  0.00  0.00    -0.221 NA
ATOM      9  C   UNL d   1       2.829  -1.300   0.000  0.00  0.00     0.090 A 
ATOM     10  C   UNL d   1       3.242  -0.579   0.000  0.00  0.00     0.020 A 
ATOM     11  C   UNL d   1       3.242  -2.013   0.000  0.00  0.00     0.050 A 
ATOM     12  C   UNL d   1       4.067  -0.579   0.000  0.00  0.00     0.002 A 
ATOM     13  C   UNL d   1       4.479  -1.300   0.000  0.00  0.00     0.001 A 
ATOM     14  C   UNL d   1       4.067  -2.013   0.000  0.00  0.00     0.008 A 
ATOM     15  S   UNL d   1       2.679  -2.629   0.000  0.00  0.00    -0.047 SA
ENDBRANCH   6   7
ENDBRANCH   4   6
ENDBRANCH   1   4
BRANCH   2  16
ATOM     16  C   UNL d   1       1.217  -5.192   0.000  0.00  0.00     0.058 A 
ATOM     17  C   UNL d   1       1.929  -4.779   0.000  0.00  0.00     0.005 A 
ATOM     18  C   UNL d   1       2.650  -5.192   0.000  0.00  0.00     0.005 A 
ATOM     19  C   UNL d   1       2.650  -6.017   0.000  0.00  0.00     0.063 A 
ATOM     20  C   UNL d   1       1.929  -6.429   0.000  0.00  0.00     0.005 A 
ATOM     21  C   UNL d   1       1.217  -6.017   0.000  0.00  0.00     0.005 A 
BRANCH  19  22
ATOM     22  C   UNL d   1       3.367  -6.442   0.000  0.00  0.00     0.296 C 
ATOM     23  O   UNL d   1       3.367  -7.267   0.000  0.00  0.00    -0.259 OA
BRANCH  22  24
ATOM     24  O   UNL d   1       4.079  -6.029   0.000  0.00  0.00    -0.296 OA
ATOM     25  C   UNL d   1       4.800  -6.442   0.000  0.00  0.00     0.185 C 
ENDBRANCH  22  24
ENDBRANCH  19  22
ENDBRANCH   2  16
TORSDOF 6
