REMARK  6 active torsions:
REMARK  status: ('A' for Active; 'I' for Inactive)
REMARK    1  A    between atoms: N_3  and  S_1 
REMARK    2  A    between atoms: C_5  and  S_1 
REMARK    3  A    between atoms: S_2  and  N_4 
REMARK    4  A    between atoms: C_6  and  S_2 
REMARK    5  A    between atoms: O_25  and  C_15 
REMARK    6  A    between atoms: O_26  and  C_16 
ROOT
ATOM      1  N   UNL d   1      -0.846   0.146   0.000  0.00  0.00    -0.228 N 
ATOM      2  N   UNL d   1       0.804   0.208   0.000  0.00  0.00    -0.226 N 
ATOM      3  C   UNL d   1      -0.400  -0.554   0.000  0.00  0.00     0.093 A 
ATOM      4  C   UNL d   1       0.417  -0.525   0.000  0.00  0.00     0.110 A 
ATOM      5  C   UNL d   1      -0.463   0.875   0.000  0.00  0.00     0.111 A 
ATOM      6  C   UNL d   1       0.367   0.908   0.000  0.00  0.00     0.111 A 
ATOM      7  C   UNL d   1      -0.787  -1.288   0.000  0.00  0.00     0.021 C 
ENDROOT
BRANCH   1   8
ATOM      8  S   UNL d   1      -1.663   0.108   0.000  0.00  0.00     0.273 S 
ATOM      9  O   UNL d   1      -2.046  -0.617   0.000  0.00  0.00    -0.200 OA
ATOM     10  O   UNL d   1      -2.108   0.808   0.000  0.00  0.00    -0.200 OA
BRANCH   8  11
ATOM     11  C   UNL d   1      -2.487   0.096   0.000  0.00  0.00     0.126 A 
ATOM     12  C   UNL d   1      -2.883  -0.629   0.000  0.00  0.00     0.106 A 
ATOM     13  C   UNL d   1      -3.700  -0.654   0.000  0.00  0.00     0.025 A 
ATOM     14  C   UNL d   1      -4.146   0.058   0.000  0.00  0.00     0.002 A 
ATOM     15  C   UNL d   1      -3.746   0.783   0.000  0.00  0.00     0.001 A 
ATOM     16  C   UNL d   1      -2.921   0.800   0.000  0.00  0.00     0.015 A 
ATOM     17  C   UNL d   1      -4.171   1.483   0.000  0.00  0.00     0.000 C 
BRANCH  12  18
ATOM     18  O   UNL d   1      -2.458  -1.329   0.000  0.00  0.00    -0.327 OA
ATOM     19  C   UNL d   1      -1.633  -1.304   0.000  0.00  0.00     0.181 C 
ENDBRANCH  12  18
ENDBRANCH   8  11
ENDBRANCH   1   8
BRANCH   2  20
ATOM     20  S   UNL d   1       1.629   0.237   0.000  0.00  0.00     0.273 S 
ATOM     21  O   UNL d   1       2.067  -0.463   0.000  0.00  0.00    -0.200 OA
ATOM     22  O   UNL d   1       2.017   0.963   0.000  0.00  0.00    -0.200 OA
BRANCH  20  23
ATOM     23  C   UNL d   1       2.454   0.237   0.000  0.00  0.00     0.126 A 
ATOM     24  C   UNL d   1       2.862  -0.479   0.000  0.00  0.00     0.106 A 
ATOM     25  C   UNL d   1       3.679  -0.475   0.000  0.00  0.00     0.025 A 
ATOM     26  C   UNL d   1       4.092   0.237   0.000  0.00  0.00     0.002 A 
ATOM     27  C   UNL d   1       3.679   0.950   0.000  0.00  0.00     0.001 A 
ATOM     28  C   UNL d   1       2.854   0.946   0.000  0.00  0.00     0.015 A 
ATOM     29  C   UNL d   1       4.088   1.671   0.000  0.00  0.00     0.000 C 
BRANCH  24  30
ATOM     30  O   UNL d   1       2.454  -1.188   0.000  0.00  0.00    -0.327 OA
ATOM     31  C   UNL d   1       2.862  -1.900   0.000  0.00  0.00     0.181 C 
ENDBRANCH  24  30
ENDBRANCH  20  23
ENDBRANCH   2  20
TORSDOF 6
