REMARK  5 active torsions:
REMARK  status: ('A' for Active; 'I' for Inactive)
REMARK    1  A    between atoms: C_8  and  C_1 
REMARK    2  A    between atoms: N_4  and  C_2 
REMARK       I    between atoms: C_6  and  N_4 
REMARK    3  A    between atoms: C_9  and  C_6 
REMARK    4  A    between atoms: O_20  and  C_15 
REMARK    5  A    between atoms: C_21  and  O_20 
ROOT
ATOM      1  C   UNL d   1      -3.222   2.516   0.000  0.00  0.00     0.177 A 
ATOM      2  C   UNL d   1      -3.903   2.983   0.000  0.00  0.00     0.114 A 
ATOM      3  O   UNL d   1      -3.453   1.714   0.000  0.00  0.00    -0.301 OA
ATOM      4  C   UNL d   1      -4.558   2.483   0.000  0.00  0.00     0.043 A 
ATOM      5  C   UNL d   1      -4.272   1.685   0.000  0.00  0.00     0.102 A 
ATOM      6  C   UNL d   1      -5.365   2.630   0.000  0.00  0.00     0.004 A 
ATOM      7  C   UNL d   1      -4.810   1.067   0.000  0.00  0.00     0.025 A 
ATOM      8  C   UNL d   1      -5.911   2.004   0.000  0.00  0.00     0.000 A 
ATOM      9  C   UNL d   1      -5.642   1.231   0.000  0.00  0.00     0.002 A 
ENDROOT
BRANCH   2  10
ATOM     10  N   UNL d   1      -3.903   3.831   0.000  0.00  0.00    -0.206 NA
ATOM     11  C   UNL d   1      -3.184   4.239   0.000  0.00  0.00     0.279 C 
ATOM     12  O   UNL d   1      -2.466   3.840   0.000  0.00  0.00    -0.265 OA
BRANCH  11  13
ATOM     13  C   UNL d   1      -3.184   5.066   0.000  0.00  0.00     0.058 A 
ATOM     14  C   UNL d   1      -3.890   5.461   0.000  0.00  0.00     0.007 A 
ATOM     15  C   UNL d   1      -3.890   6.306   0.000  0.00  0.00     0.025 A 
ATOM     16  C   UNL d   1      -3.176   6.709   0.000  0.00  0.00     0.100 A 
ATOM     17  C   UNL d   1      -2.445   6.306   0.000  0.00  0.00     0.025 A 
ATOM     18  C   UNL d   1      -2.445   5.461   0.000  0.00  0.00     0.007 A 
BRANCH  16  19
ATOM     19  O   UNL d   1      -3.176   7.553   0.000  0.00  0.00    -0.305 OA
BRANCH  19  20
ATOM     20  C   UNL d   1      -3.890   7.965   0.000  0.00  0.00     0.123 C 
ATOM     21  C   UNL d   1      -3.890   8.784   0.000  0.00  0.00     0.029 C 
ENDBRANCH  19  20
ENDBRANCH  16  19
ENDBRANCH  11  13
ENDBRANCH   2  10
BRANCH   1  22
ATOM     22  C   UNL d   1      -2.458   2.823   0.000  0.00  0.00     0.321 C 
ATOM     23  O   UNL d   1      -1.798   2.302   0.000  0.00  0.00    -0.261 OA
ATOM     24  N   UNL d   1      -2.332   3.651   0.000  0.00  0.00    -0.101 N 
ENDBRANCH   1  22
TORSDOF 5
