REMARK  2 active torsions:
REMARK  status: ('A' for Active; 'I' for Inactive)
REMARK       I    between atoms: N_4  and  C_1 
REMARK    1  A    between atoms: C_5  and  C_1 
REMARK       I    between atoms: C_2  and  N_3 
REMARK    2  A    between atoms: C_6  and  C_2 
ROOT
ATOM      1  C   UNL d   1      -1.990   0.466   0.000  0.00  0.00     0.265 C 
ATOM      2  C   UNL d   1       1.468   1.020   0.000  0.00  0.00     0.265 C 
ATOM      3  N   UNL d   1       0.776   0.591   0.000  0.00  0.00    -0.270 N 
ATOM      4  N   UNL d   1      -1.076   0.425   0.000  0.00  0.00    -0.270 N 
ATOM      5  C   UNL d   1       0.194   1.205   0.000  0.00  0.00     0.102 A 
ATOM      6  C   UNL d   1      -0.665   1.122   0.000  0.00  0.00     0.102 A 
ATOM      7  O   UNL d   1      -2.396   1.284   0.000  0.00  0.00    -0.267 OA
ATOM      8  O   UNL d   1       1.445   1.824   0.000  0.00  0.00    -0.267 OA
ATOM      9  C   UNL d   1       0.005  -0.503   0.000  0.00  0.00     0.038 A 
ATOM     10  C   UNL d   1      -0.776  -0.235   0.000  0.00  0.00     0.085 A 
ATOM     11  C   UNL d   1       0.628  -0.208   0.000  0.00  0.00     0.085 A 
ENDROOT
BRANCH   2  12
ATOM     12  C   UNL d   1       2.179   0.623   0.000  0.00  0.00     0.057 A 
ATOM     13  C   UNL d   1       2.858   1.048   0.000  0.00  0.00     0.005 A 
ATOM     14  C   UNL d   1       3.574   0.660   0.000  0.00  0.00     0.000 A 
ATOM     15  C   UNL d   1       4.271   1.076   0.000  0.00  0.00     0.000 C 
ATOM     16  C   UNL d   1       3.592  -0.152   0.000  0.00  0.00     0.000 A 
ATOM     17  C   UNL d   1       2.900  -0.573   0.000  0.00  0.00     0.000 A 
ATOM     18  C   UNL d   1       2.193  -0.185   0.000  0.00  0.00     0.005 A 
ENDBRANCH   2  12
BRANCH   1  19
ATOM     19  C   UNL d   1      -2.438  -0.332   0.000  0.00  0.00     0.057 A 
ATOM     20  C   UNL d   1      -1.976  -1.108   0.000  0.00  0.00     0.005 A 
ATOM     21  C   UNL d   1      -2.419  -1.902   0.000  0.00  0.00     0.000 A 
ATOM     22  C   UNL d   1      -1.976  -2.692   0.000  0.00  0.00     0.000 C 
ATOM     23  C   UNL d   1      -3.333  -1.916   0.000  0.00  0.00     0.000 A 
ATOM     24  C   UNL d   1      -3.795  -1.127   0.000  0.00  0.00     0.000 A 
ATOM     25  C   UNL d   1      -3.347  -0.332   0.000  0.00  0.00     0.005 A 
ENDBRANCH   1  19
TORSDOF 2
