REMARK  9 active torsions:
REMARK  status: ('A' for Active; 'I' for Inactive)
REMARK    1  A    between atoms: C_12  and  C_1 
REMARK       I    between atoms: C_4  and  N_11 
REMARK    2  A    between atoms: C_5  and  C_4 
REMARK    3  A    between atoms: O_18  and  C_6 
REMARK    4  A    between atoms: O_19  and  C_7 
REMARK    5  A    between atoms: O_20  and  C_8 
REMARK    6  A    between atoms: N_11  and  C_15 
REMARK    7  A    between atoms: C_26  and  O_18 
REMARK    8  A    between atoms: C_28  and  O_19 
REMARK    9  A    between atoms: C_27  and  O_20 
ROOT
ATOM      1  C   UNL d   1       3.574  -1.514   0.000  0.00  0.00     0.279 C 
ATOM      2  N   UNL d   1       4.219  -2.034   0.000  0.00  0.00    -0.208 NA
ATOM      3  O   UNL d   1       3.699  -0.699   0.000  0.00  0.00    -0.265 OA
ENDROOT
BRANCH   1   4
ATOM      4  C   UNL d   1       2.808  -1.814   0.000  0.00  0.00     0.062 A 
ATOM      5  C   UNL d   1       2.163  -1.298   0.000  0.00  0.00     0.032 A 
ATOM      6  C   UNL d   1       1.398  -1.598   0.000  0.00  0.00     0.125 A 
ATOM      7  C   UNL d   1       1.273  -2.413   0.000  0.00  0.00     0.145 A 
ATOM      8  C   UNL d   1       1.914  -2.925   0.000  0.00  0.00     0.125 A 
ATOM      9  C   UNL d   1       2.675  -2.625   0.000  0.00  0.00     0.032 A 
BRANCH   6  10
ATOM     10  O   UNL d   1       0.749  -1.078   0.000  0.00  0.00    -0.303 OA
BRANCH  10  11
ATOM     11  C   UNL d   1      -0.021  -1.385   0.000  0.00  0.00     0.123 C 
ATOM     12  C   UNL d   1      -0.670  -0.865   0.000  0.00  0.00     0.029 C 
ENDBRANCH  10  11
ENDBRANCH   6  10
BRANCH   7  13
ATOM     13  O   UNL d   1       0.503  -2.713   0.000  0.00  0.00    -0.301 OA
BRANCH  13  14
ATOM     14  C   UNL d   1      -0.137  -2.197   0.000  0.00  0.00     0.123 C 
ATOM     15  C   UNL d   1      -0.907  -2.496   0.000  0.00  0.00     0.029 C 
ENDBRANCH  13  14
ENDBRANCH   7  13
BRANCH   8  16
ATOM     16  O   UNL d   1       1.789  -3.749   0.000  0.00  0.00    -0.303 OA
BRANCH  16  17
ATOM     17  C   UNL d   1       2.438  -4.260   0.000  0.00  0.00     0.123 C 
ATOM     18  C   UNL d   1       2.313  -5.080   0.000  0.00  0.00     0.029 C 
ENDBRANCH  16  17
ENDBRANCH   8  16
ENDBRANCH   1   4
BRANCH   2  19
ATOM     19  C   UNL d   1       4.997  -1.735   0.000  0.00  0.00     0.085 A 
ATOM     20  C   UNL d   1       5.117  -0.915   0.000  0.00  0.00     0.022 A 
ATOM     21  C   UNL d   1       5.883  -0.616   0.000  0.00  0.00     0.037 A 
ATOM     22  C   UNL d   1       6.532  -1.127   0.000  0.00  0.00     0.003 A 
ATOM     23  C   UNL d   1       6.407  -1.947   0.000  0.00  0.00     0.002 A 
ATOM     24  C   UNL d   1       5.646  -2.251   0.000  0.00  0.00     0.019 A 
BRANCH  21  25
ATOM     25  C   UNL d   1       6.008   0.200   0.000  0.00  0.00     0.162 A 
ATOM     26  N   UNL d   1       5.484   0.836   0.000  0.00  0.00    -0.225 NA
ATOM     27  C   UNL d   1       5.929   1.531   0.000  0.00  0.00     0.101 A 
ATOM     28  C   UNL d   1       5.708   2.330   0.000  0.00  0.00     0.021 A 
ATOM     29  C   UNL d   1       6.719   1.319   0.000  0.00  0.00     0.101 A 
ATOM     30  C   UNL d   1       6.291   2.908   0.000  0.00  0.00     0.002 A 
ATOM     31  C   UNL d   1       7.094   2.692   0.000  0.00  0.00     0.002 A 
ATOM     32  C   UNL d   1       7.306   1.905   0.000  0.00  0.00     0.021 A 
ATOM     33  N   UNL d   1       6.769   0.499   0.000  0.00  0.00    -0.225 NA
ENDBRANCH  21  25
ENDBRANCH   2  19
TORSDOF 9
