REMARK  3 active torsions:
REMARK  status: ('A' for Active; 'I' for Inactive)
REMARK    1  A    between atoms: C_4  and  C_1 
REMARK    2  A    between atoms: C_12  and  N_3 
REMARK    3  A    between atoms: C_14  and  C_7 
ROOT
ATOM      1  N   UNL d   1      -0.060  -0.003   0.000  0.00  0.00    -0.165 NA
ATOM      2  N   UNL d   1       0.716   0.233   0.000  0.00  0.00    -0.230 N 
ATOM      3  C   UNL d   1      -0.109  -0.798   0.000  0.00  0.00     0.108 A 
ATOM      4  C   UNL d   1       1.188  -0.474   0.000  0.00  0.00     0.084 A 
ATOM      5  C   UNL d   1       0.674  -1.115   0.000  0.00  0.00     0.040 A 
ENDROOT
BRANCH   3   6
ATOM      6  C   UNL d   1      -0.822  -1.200   0.000  0.00  0.00     0.083 A 
ATOM      7  C   UNL d   1      -0.822  -2.031   0.000  0.00  0.00     0.302 A 
ATOM      8  O   UNL d   1      -1.547  -2.442   0.000  0.00  0.00    -0.273 OA
ATOM      9  O   UNL d   1      -0.097  -2.442   0.000  0.00  0.00    -0.259 OA
ATOM     10  C   UNL d   1      -2.257  -2.031   0.000  0.00  0.00     0.103 A 
ATOM     11  C   UNL d   1      -2.257  -1.200   0.000  0.00  0.00     0.023 A 
ATOM     12  C   UNL d   1      -2.961  -2.442   0.000  0.00  0.00     0.025 A 
ATOM     13  C   UNL d   1      -1.547  -0.789   0.000  0.00  0.00     0.009 A 
ATOM     14  C   UNL d   1      -2.961  -0.789   0.000  0.00  0.00     0.002 A 
ATOM     15  C   UNL d   1      -3.671  -1.200   0.000  0.00  0.00     0.000 A 
ATOM     16  C   UNL d   1      -3.671  -2.031   0.000  0.00  0.00     0.002 A 
ENDBRANCH   3   6
BRANCH   2  17
ATOM     17  C   UNL d   1       0.964   1.012   0.000  0.00  0.00     0.083 A 
ATOM     18  C   UNL d   1       1.771   1.185   0.000  0.00  0.00     0.019 A 
ATOM     19  C   UNL d   1       2.031   1.973   0.000  0.00  0.00     0.002 A 
ATOM     20  C   UNL d   1       1.463   2.590   0.000  0.00  0.00     0.000 A 
ATOM     21  C   UNL d   1       0.656   2.417   0.000  0.00  0.00     0.002 A 
ATOM     22  C   UNL d   1       0.399   1.620   0.000  0.00  0.00     0.019 A 
ENDBRANCH   2  17
BRANCH   4  23
ATOM     23  C   UNL d   1       1.997  -0.520   0.000  0.00  0.00     0.018 A 
ATOM     24  C   UNL d   1       2.457   0.154   0.000  0.00  0.00     0.002 A 
ATOM     25  C   UNL d   1       3.276   0.106   0.000  0.00  0.00     0.000 A 
ATOM     26  C   UNL d   1       3.653  -0.629   0.000  0.00  0.00     0.000 A 
ATOM     27  C   UNL d   1       3.191  -1.317   0.000  0.00  0.00     0.000 A 
ATOM     28  C   UNL d   1       2.360  -1.260   0.000  0.00  0.00     0.002 A 
ENDBRANCH   4  23
TORSDOF 3
