REMARK  3 active torsions:
REMARK  status: ('A' for Active; 'I' for Inactive)
REMARK    1  A    between atoms: N_3  and  S_1 
REMARK    2  A    between atoms: C_8  and  S_1 
REMARK    3  A    between atoms: C_2  and  N_3 
ROOT
ATOM      1  S   UNL d   1       3.186  -1.357   0.000  0.00  0.00     0.287 S 
ATOM      2  O   UNL d   1       3.181  -2.183   0.000  0.00  0.00    -0.198 OA
ATOM      3  O   UNL d   1       3.181  -0.530   0.000  0.00  0.00    -0.198 OA
ENDROOT
BRANCH   1   4
ATOM      4  N   UNL d   1       4.012  -1.357   0.000  0.00  0.00    -0.131 NA
BRANCH   4   5
ATOM      5  C   UNL d   1       4.597  -1.941   0.000  0.00  0.00     0.219 A 
ATOM      6  C   UNL d   1       5.411  -1.808   0.000  0.00  0.00     0.064 A 
ATOM      7  C   UNL d   1       5.787  -2.547   0.000  0.00  0.00     0.112 A 
ATOM      8  C   UNL d   1       5.787  -1.069   0.000  0.00  0.00     0.005 C 
ATOM      9  C   UNL d   1       6.605  -2.672   0.000  0.00  0.00     0.023 C 
ATOM     10  N   UNL d   1       5.202  -3.131   0.000  0.00  0.00    -0.125 NA
ATOM     11  O   UNL d   1       4.463  -2.756   0.000  0.00  0.00    -0.191 OA
ENDBRANCH   4   5
ENDBRANCH   1   4
BRANCH   1  12
ATOM     12  C   UNL d   1       2.359  -1.357   0.000  0.00  0.00     0.105 A 
ATOM     13  C   UNL d   1       1.946  -0.643   0.000  0.00  0.00     0.015 A 
ATOM     14  C   UNL d   1       1.131  -0.643   0.000  0.00  0.00     0.022 A 
ATOM     15  C   UNL d   1       0.718  -1.344   0.000  0.00  0.00     0.103 A 
ATOM     16  C   UNL d   1       1.127  -2.058   0.000  0.00  0.00     0.022 A 
ATOM     17  N   UNL d   1      -0.108  -1.344   0.000  0.00  0.00    -0.148 N 
ATOM     18  C   UNL d   1       1.946  -2.058   0.000  0.00  0.00     0.015 A 
ENDBRANCH   1  12
TORSDOF 3
