REMARK  5 active torsions:
REMARK  status: ('A' for Active; 'I' for Inactive)
REMARK    1  A    between atoms: C_11  and  C_2 
REMARK    2  A    between atoms: N_3  and  C_5 
REMARK       I    between atoms: C_6  and  N_3 
REMARK    3  A    between atoms: C_5  and  N_12 
REMARK    4  A    between atoms: C_7  and  C_6 
REMARK    5  A    between atoms: N_12  and  C_20 
ROOT
ATOM      1  C   UNL d   1      -3.163   6.680   0.000  0.00  0.00     0.041 A 
ATOM      2  C   UNL d   1      -2.437   6.277   0.000  0.00  0.00     0.005 A 
ATOM      3  C   UNL d   1      -3.869   6.269   0.000  0.00  0.00     0.005 A 
ATOM      4  C   UNL d   1      -3.147   5.023   0.000  0.00  0.00     0.084 A 
ATOM      5  C   UNL d   1      -2.437   5.447   0.000  0.00  0.00     0.019 A 
ATOM      6  C   UNL d   1      -3.861   5.459   0.000  0.00  0.00     0.019 A 
ENDROOT
BRANCH   4   7
ATOM      7  N   UNL d   1      -3.147   4.197   0.000  0.00  0.00    -0.217 NA
BRANCH   7   8
ATOM      8  C   UNL d   1      -3.857   3.786   0.000  0.00  0.00     0.224 C 
ATOM      9  S   UNL d   1      -3.848   2.972   0.000  0.00  0.00    -0.037 SA
BRANCH   8  10
ATOM     10  N   UNL d   1      -4.554   4.197   0.000  0.00  0.00    -0.178 NA
ATOM     11  C   UNL d   1      -5.276   3.782   0.000  0.00  0.00     0.287 C 
ATOM     12  O   UNL d   1      -5.276   2.960   0.000  0.00  0.00    -0.265 OA
BRANCH  11  13
ATOM     13  C   UNL d   1      -5.995   4.164   0.000  0.00  0.00     0.087 A 
ATOM     14  S   UNL d   1      -6.082   4.994   0.000  0.00  0.00    -0.082 SA
ATOM     15  C   UNL d   1      -6.879   5.148   0.000  0.00  0.00     0.036 A 
ATOM     16  C   UNL d   1      -7.302   4.413   0.000  0.00  0.00     0.008 A 
ATOM     17  C   UNL d   1      -6.767   3.819   0.000  0.00  0.00     0.012 A 
ENDBRANCH  11  13
ENDBRANCH   8  10
ENDBRANCH   7   8
ENDBRANCH   4   7
BRANCH   1  18
ATOM     18  C   UNL d   1      -3.163   7.514   0.000  0.00  0.00     0.182 A 
ATOM     19  N   UNL d   1      -3.799   8.033   0.000  0.00  0.00    -0.220 NA
ATOM     20  C   UNL d   1      -3.483   8.805   0.000  0.00  0.00     0.106 A 
ATOM     21  C   UNL d   1      -2.661   8.735   0.000  0.00  0.00     0.119 A 
ATOM     22  C   UNL d   1      -3.832   9.532   0.000  0.00  0.00     0.021 A 
ATOM     23  C   UNL d   1      -2.188   9.395   0.000  0.00  0.00     0.026 A 
ATOM     24  O   UNL d   1      -2.478   7.921   0.000  0.00  0.00    -0.288 OA
ATOM     25  C   UNL d   1      -2.537  10.142   0.000  0.00  0.00     0.002 A 
ATOM     26  C   UNL d   1      -3.358  10.213   0.000  0.00  0.00     0.002 A 
ENDBRANCH   1  18
TORSDOF 5
