REMARK  2 active torsions:
REMARK  status: ('A' for Active; 'I' for Inactive)
REMARK    1  A    between atoms: N_2  and  S_1 
REMARK    2  A    between atoms: C_3  and  S_1 
ROOT
ATOM      1  N   UNL d   1       0.995   1.749   0.000  0.00  0.00    -0.231 N 
ATOM      2  C   UNL d   1       1.575   1.155   0.000  0.00  0.00     0.075 A 
ATOM      3  C   UNL d   1       1.415   2.481   0.000  0.00  0.00     0.092 A 
ATOM      4  C   UNL d   1       2.332   1.534   0.000  0.00  0.00     0.018 A 
ATOM      5  C   UNL d   1       2.199   2.347   0.000  0.00  0.00     0.021 A 
ATOM      6  C   UNL d   1       1.541   0.342   0.000  0.00  0.00     0.018 A 
ATOM      7  C   UNL d   1       3.012   1.088   0.000  0.00  0.00     0.002 A 
ATOM      8  C   UNL d   1       2.228  -0.115   0.000  0.00  0.00     0.002 A 
ATOM      9  C   UNL d   1       2.967   0.264   0.000  0.00  0.00     0.000 A 
ENDROOT
BRANCH   1  10
ATOM     10  S   UNL d   1       0.178   1.734   0.000  0.00  0.00     0.277 S 
ATOM     11  O   UNL d   1       0.182   0.891   0.000  0.00  0.00    -0.199 OA
ATOM     12  O   UNL d   1       0.149   2.581   0.000  0.00  0.00    -0.199 OA
BRANCH  10  13
ATOM     13  C   UNL d   1      -0.642   1.705   0.000  0.00  0.00     0.133 A 
ATOM     14  S   UNL d   1      -1.133   1.021   0.000  0.00  0.00    -0.074 SA
ATOM     15  C   UNL d   1      -1.913   1.259   0.000  0.00  0.00     0.036 A 
ATOM     16  C   UNL d   1      -1.961   2.080   0.000  0.00  0.00     0.008 A 
ATOM     17  C   UNL d   1      -1.177   2.358   0.000  0.00  0.00     0.020 A 
ENDBRANCH  10  13
ENDBRANCH   1  10
TORSDOF 2
