REMARK  4 active torsions:
REMARK  status: ('A' for Active; 'I' for Inactive)
REMARK    1  A    between atoms: N_4  and  C_8 
REMARK    2  A    between atoms: C_15  and  C_5 
REMARK    3  A    between atoms: O_17  and  C_15 
REMARK    4  A    between atoms: C_16  and  O_17 
ROOT
ATOM      1  C   UNL d   1       6.254  -3.717   0.000  0.00  0.00     0.144 C 
ENDROOT
BRANCH   1   2
ATOM      2  C   UNL d   1       5.854  -3.000   0.000  0.00  0.00     0.142 A 
ATOM      3  N   UNL d   1       6.200  -2.254   0.000  0.00  0.00    -0.057 NA
ATOM      4  C   UNL d   1       5.600  -1.704   0.000  0.00  0.00     0.735 A 
ATOM      5  N   UNL d   1       4.879  -2.104   0.000  0.00  0.00    -0.136 N 
ATOM      6  N   UNL d   1       5.604  -0.879   0.000  0.00  0.00    -0.059 NA
ATOM      7  C   UNL d   1       5.050  -2.900   0.000  0.00  0.00     0.120 A 
ATOM      8  C   UNL d   1       4.154  -1.700   0.000  0.00  0.00     0.100 A 
ATOM      9  C   UNL d   1       4.167  -0.854   0.000  0.00  0.00     0.041 A 
ATOM     10  C   UNL d   1       4.900  -0.454   0.000  0.00  0.00     0.119 A 
ENDBRANCH   1   2
BRANCH   1  11
ATOM     11  O   UNL d   1       5.829  -4.438   0.000  0.00  0.00    -0.303 OA
BRANCH  11  12
ATOM     12  C   UNL d   1       5.404  -5.150   0.000  0.00  0.00     0.102 A 
ATOM     13  C   UNL d   1       5.804  -5.879   0.000  0.00  0.00     0.048 A 
ATOM     14  C   UNL d   1       5.388  -6.588   0.000  0.00  0.00     0.129 A 
ATOM     15  C   UNL d   1       4.554  -6.579   0.000  0.00  0.00     0.024 A 
ATOM     16  C   UNL d   1       4.154  -5.854   0.000  0.00  0.00     0.004 A 
ATOM     17  C   UNL d   1       4.579  -5.150   0.000  0.00  0.00     0.025 A 
BRANCH  14  18
ATOM     18  N   UNL d   1       5.800  -7.304   0.000  0.00  0.00    -0.114 N 
ATOM     19  O   UNL d   1       5.379  -8.017   0.000  0.00  0.00    -0.532 OA
ATOM     20  O   UNL d   1       6.617  -7.317   0.000  0.00  0.00    -0.532 OA
ENDBRANCH  14  18
ENDBRANCH  11  12
ENDBRANCH   1  11
TORSDOF 4
