REMARK  6 active torsions:
REMARK  status: ('A' for Active; 'I' for Inactive)
REMARK    1  A    between atoms: C_4  and  C_1 
REMARK       I    between atoms: N_6  and  C_1 
REMARK    2  A    between atoms: C_7  and  C_4 
REMARK    3  A    between atoms: O_20  and  C_5 
REMARK    4  A    between atoms: C_8  and  N_6 
REMARK    5  A    between atoms: C_13  and  C_7 
REMARK    6  A    between atoms: O_21  and  C_10 
ROOT
ATOM      1  C   UNL d   1       6.135   0.699   0.000  0.00  0.00     0.076 C 
ENDROOT
BRANCH   1   2
ATOM      2  C   UNL d   1       6.135  -0.105   0.000  0.00  0.00     0.328 C 
ATOM      3  N   UNL d   1       5.428  -0.532   0.000  0.00  0.00    -0.365 NA
ATOM      4  O   UNL d   1       6.852  -0.519   0.000  0.00  0.00    -0.251 OA
BRANCH   3   5
ATOM      5  C   UNL d   1       4.703  -0.955   0.000  0.00  0.00     0.136 A 
ATOM      6  C   UNL d   1       4.703  -1.776   0.000  0.00  0.00     0.044 A 
ATOM      7  C   UNL d   1       3.974  -2.211   0.000  0.00  0.00     0.071 A 
ATOM      8 CL   UNL d   1       3.974  -3.020   0.000  0.00  0.00    -0.081 Cl
ATOM      9  C   UNL d   1       3.267  -1.776   0.000  0.00  0.00     0.069 A 
ATOM     10  C   UNL d   1       3.267  -0.955   0.000  0.00  0.00     0.015 A 
ATOM     11 CL   UNL d   1       2.563  -2.211   0.000  0.00  0.00    -0.082 Cl
ATOM     12  C   UNL d   1       3.974  -0.532   0.000  0.00  0.00     0.033 A 
ENDBRANCH   3   5
ENDBRANCH   1   2
BRANCH   1  13
ATOM     13  C   UNL d   1       6.852   1.118   0.000  0.00  0.00     0.006 C 
BRANCH  13  14
ATOM     14  C   UNL d   1       6.839   1.943   0.000  0.00  0.00     0.002 A 
ATOM     15  C   UNL d   1       6.131   2.362   0.000  0.00  0.00     0.026 A 
ATOM     16  C   UNL d   1       6.131   3.187   0.000  0.00  0.00     0.116 A 
ATOM     17  C   UNL d   1       6.839   3.602   0.000  0.00  0.00     0.116 A 
ATOM     18  C   UNL d   1       7.568   3.187   0.000  0.00  0.00     0.026 A 
ATOM     19  C   UNL d   1       7.568   2.362   0.000  0.00  0.00     0.002 A 
BRANCH  16  20
ATOM     20  O   UNL d   1       5.407   3.602   0.000  0.00  0.00    -0.326 OA
ATOM     21  C   UNL d   1       5.407   4.423   0.000  0.00  0.00     0.181 C 
ENDBRANCH  16  20
BRANCH  17  22
ATOM     22  O   UNL d   1       6.839   4.423   0.000  0.00  0.00    -0.326 OA
ATOM     23  C   UNL d   1       7.568   4.829   0.000  0.00  0.00     0.181 C 
ENDBRANCH  17  22
ENDBRANCH  13  14
ENDBRANCH   1  13
TORSDOF 6
