REMARK  8 active torsions:
REMARK  status: ('A' for Active; 'I' for Inactive)
REMARK    1  A    between atoms: N_5  and  C_1 
REMARK    2  A    between atoms: C_2  and  N_5 
REMARK    3  A    between atoms: N_3  and  C_2 
REMARK       I    between atoms: C_6  and  N_3 
REMARK    4  A    between atoms: C_13  and  C_6 
REMARK    5  A    between atoms: C_9  and  C_7 
REMARK    6  A    between atoms: C_11  and  C_9 
REMARK    7  A    between atoms: O_21  and  C_11 
REMARK    8  A    between atoms: C_23  and  O_21 
ROOT
ATOM      1  C   UNL d   1      -2.423   3.777   0.000  0.00  0.00     0.225 C 
ATOM      2  S   UNL d   1      -1.723   4.191   0.000  0.00  0.00    -0.037 SA
ENDROOT
BRANCH   1   3
ATOM      3  N   UNL d   1      -3.139   4.187   0.000  0.00  0.00    -0.192 NA
BRANCH   3   4
ATOM      4  C   UNL d   1      -3.139   5.024   0.000  0.00  0.00     0.196 A 
ATOM      5  N   UNL d   1      -3.785   5.508   0.000  0.00  0.00    -0.220 NA
ATOM      6  C   UNL d   1      -3.516   6.266   0.000  0.00  0.00     0.095 A 
ATOM      7  C   UNL d   1      -2.692   6.241   0.000  0.00  0.00     0.058 A 
ATOM      8  S   UNL d   1      -2.472   5.471   0.000  0.00  0.00    -0.046 SA
BRANCH   6   9
ATOM      9  C   UNL d   1      -4.009   6.945   0.000  0.00  0.00     0.088 C 
BRANCH   9  10
ATOM     10  C   UNL d   1      -4.816   6.887   0.000  0.00  0.00     0.302 C 
ATOM     11  O   UNL d   1      -5.301   7.546   0.000  0.00  0.00    -0.259 OA
BRANCH  10  12
ATOM     12  O   UNL d   1      -5.177   6.129   0.000  0.00  0.00    -0.271 OA
BRANCH  12  13
ATOM     13  C   UNL d   1      -4.692   5.458   0.000  0.00  0.00     0.126 C 
ATOM     14  C   UNL d   1      -5.065   4.725   0.000  0.00  0.00     0.029 C 
ENDBRANCH  12  13
ENDBRANCH  10  12
ENDBRANCH   9  10
ENDBRANCH   6   9
ENDBRANCH   3   4
ENDBRANCH   1   3
BRANCH   1  15
ATOM     15  N   UNL d   1      -2.431   2.969   0.000  0.00  0.00    -0.179 NA
ATOM     16  C   UNL d   1      -1.710   2.555   0.000  0.00  0.00     0.281 C 
ATOM     17  O   UNL d   1      -1.002   2.965   0.000  0.00  0.00    -0.265 OA
BRANCH  16  18
ATOM     18  C   UNL d   1      -1.710   1.723   0.000  0.00  0.00     0.058 A 
ATOM     19  C   UNL d   1      -0.994   1.300   0.000  0.00  0.00     0.007 A 
ATOM     20  C   UNL d   1      -1.019   0.472   0.000  0.00  0.00     0.030 A 
ATOM     21  C   UNL d   1      -1.748   0.070   0.000  0.00  0.00     0.140 A 
ATOM     22  C   UNL d   1      -2.443   0.497   0.000  0.00  0.00     0.030 A 
ATOM     23  F   UNL d   1      -1.772  -0.737   0.000  0.00  0.00    -0.204 F 
ATOM     24  C   UNL d   1      -2.435   1.317   0.000  0.00  0.00     0.007 A 
ENDBRANCH  16  18
ENDBRANCH   1  15
TORSDOF 8
