REMARK  1 active torsions:
REMARK  status: ('A' for Active; 'I' for Inactive)
REMARK    1  A    between atoms: C_2  and  C_1 
REMARK       I    between atoms: N_3  and  C_2 
ROOT
ATOM      1  C   UNL d   1       1.771  -1.552   0.000  0.00  0.00     0.248 C 
ATOM      2  N   UNL d   1       2.238  -2.238   0.000  0.00  0.00    -0.278 N 
ATOM      3  C   UNL d   1       1.885  -2.894   0.000  0.00  0.00     0.067 A 
ATOM      4  C   UNL d   1       2.945  -2.158   0.000  0.00  0.00     0.067 A 
ATOM      5  C   UNL d   1       3.374  -2.852   0.000  0.00  0.00     0.018 A 
ATOM      6  C   UNL d   1       2.276  -3.526   0.000  0.00  0.00     0.019 A 
ATOM      7  O   UNL d   1       0.963  -1.767   0.000  0.00  0.00    -0.271 OA
ATOM      8  C   UNL d   1       1.140  -2.907   0.000  0.00  0.00     0.019 C 
ATOM      9  C   UNL d   1       3.332  -1.430   0.000  0.00  0.00     0.018 A 
ATOM     10  C   UNL d   1       4.194  -2.831   0.000  0.00  0.00     0.002 A 
ATOM     11  C   UNL d   1       4.157  -1.405   0.000  0.00  0.00     0.002 A 
ATOM     12  C   UNL d   1       4.586  -2.108   0.000  0.00  0.00     0.000 A 
ENDROOT
BRANCH   1  13
ATOM     13  C   UNL d   1       2.259  -0.909   0.000  0.00  0.00     0.112 A 
ATOM     14  C   UNL d   1       2.743   0.429   0.000  0.00  0.00     0.025 A 
ATOM     15  C   UNL d   1       2.970  -0.379   0.000  0.00  0.00     0.074 A 
ATOM     16  C   UNL d   1       1.935   0.644   0.000  0.00  0.00     0.002 C 
ATOM     17  C   UNL d   1       3.462   0.846   0.000  0.00  0.00     0.002 C 
ATOM     18  C   UNL d   1       3.690   0.046   0.000  0.00  0.00     0.012 C 
ATOM     19  C   UNL d   1       2.163  -0.597   0.000  0.00  0.00    -0.023 A 
ATOM     20  C   UNL d   1       3.765  -0.593   0.000  0.00  0.00     0.172 A 
ATOM     21  C   UNL d   1       1.569  -1.191   0.000  0.00  0.00    -0.018 A 
ATOM     22  C   UNL d   1       3.172  -1.186   0.000  0.00  0.00     0.024 A 
ATOM     23  O   UNL d   1       4.573  -0.370   0.000  0.00  0.00    -0.291 OA
ENDBRANCH   1  13
TORSDOF 1
