REMARK  1 active torsions:
REMARK  status: ('A' for Active; 'I' for Inactive)
REMARK    1  A    between atoms: C_2  and  C_1 
REMARK       I    between atoms: N_6  and  C_2 
ROOT
ATOM      1  C   UNL d   1       2.319  -1.138   0.000  0.00  0.00     0.057 A 
ATOM      2  C   UNL d   1       3.033  -1.548   0.000  0.00  0.00     0.005 A 
ATOM      3  C   UNL d   1       3.033  -2.381   0.000  0.00  0.00     0.001 A 
ATOM      4  C   UNL d   1       1.605  -1.552   0.000  0.00  0.00     0.011 A 
ATOM      5  C   UNL d   1       2.319  -2.789   0.000  0.00  0.00     0.006 A 
ATOM      6  C   UNL d   1       1.605  -2.381   0.000  0.00  0.00     0.035 A 
ATOM      7 BR   UNL d   1       0.891  -2.789   0.000  0.00  0.00    -0.049 Br
ATOM      8  C   UNL d   1       3.829  -1.336   0.000  0.00  0.00     0.000 C 
ATOM      9  C   UNL d   1       3.829  -2.591   0.000  0.00  0.00     0.000 C 
ATOM     10  C   UNL d   1       2.317  -3.617   0.000  0.00  0.00     0.001 C 
ENDROOT
BRANCH   1  11
ATOM     11  C   UNL d   1       2.317  -0.312   0.000  0.00  0.00     0.265 C 
ATOM     12  N   UNL d   1       3.031   0.102   0.000  0.00  0.00    -0.272 N 
ATOM     13  C   UNL d   1       3.783  -0.229   0.000  0.00  0.00     0.083 A 
ATOM     14  C   UNL d   1       3.114   0.924   0.000  0.00  0.00     0.083 A 
ATOM     15  C   UNL d   1       4.334   0.383   0.000  0.00  0.00     0.021 A 
ATOM     16  C   UNL d   1       3.920   1.097   0.000  0.00  0.00     0.021 A 
ATOM     17  O   UNL d   1       1.603   0.098   0.000  0.00  0.00    -0.267 OA
ENDBRANCH   1  11
TORSDOF 1
