REMARK  2 active torsions:
REMARK  status: ('A' for Active; 'I' for Inactive)
REMARK    1  A    between atoms: N_2  and  S_1 
REMARK    2  A    between atoms: C_3  and  S_1 
ROOT
ATOM      1  S   UNL d   1      -0.514  -0.154   0.000  0.00  0.00     0.273 S 
ATOM      2  O   UNL d   1      -0.086   0.568   0.000  0.00  0.00    -0.200 OA
ATOM      3  O   UNL d   1      -0.928  -0.872   0.000  0.00  0.00    -0.200 OA
ENDROOT
BRANCH   1   4
ATOM      4  N   UNL d   1       0.204  -0.582   0.000  0.00  0.00    -0.231 N 
ATOM      5  C   UNL d   1       0.925  -0.171   0.000  0.00  0.00     0.075 A 
ATOM      6  C   UNL d   1       1.525  -0.732   0.000  0.00  0.00     0.018 A 
ATOM      7  C   UNL d   1       1.097   0.618   0.000  0.00  0.00     0.018 A 
ATOM      8  C   UNL d   1       2.296  -0.496   0.000  0.00  0.00     0.002 A 
ATOM      9  C   UNL d   1       1.200  -1.457   0.000  0.00  0.00     0.021 A 
ATOM     10  C   UNL d   1       2.486   0.311   0.000  0.00  0.00     0.000 A 
ATOM     11  C   UNL d   1       1.868   0.857   0.000  0.00  0.00     0.002 A 
ATOM     12  C   UNL d   1       0.375  -1.371   0.000  0.00  0.00     0.092 A 
ENDBRANCH   1   4
BRANCH   1  13
ATOM     13  C   UNL d   1      -1.218   0.275   0.000  0.00  0.00     0.121 A 
ATOM     14  C   UNL d   1      -1.218   1.100   0.000  0.00  0.00     0.093 A 
ATOM     15  N   UNL d   1      -0.500   1.511   0.000  0.00  0.00    -0.243 NA
ATOM     16  C   UNL d   1      -1.939   1.511   0.000  0.00  0.00     0.018 A 
ATOM     17  C   UNL d   1      -0.500   2.332   0.000  0.00  0.00     0.099 A 
ATOM     18  C   UNL d   1      -1.218   2.750   0.000  0.00  0.00     0.021 A 
ATOM     19  C   UNL d   1      -1.939   2.332   0.000  0.00  0.00     0.003 A 
ATOM     20  C   UNL d   1      -2.657   1.100   0.000  0.00  0.00     0.002 A 
ATOM     21  C   UNL d   1      -2.657   0.275   0.000  0.00  0.00     0.001 A 
ATOM     22  C   UNL d   1      -1.939  -0.132   0.000  0.00  0.00     0.014 A 
ENDBRANCH   1  13
TORSDOF 2
