REMARK  5 active torsions:
REMARK  status: ('A' for Active; 'I' for Inactive)
REMARK    1  A    between atoms: N_2  and  S_1 
REMARK    2  A    between atoms: C_3  and  S_1 
REMARK    3  A    between atoms: C_10  and  C_3 
REMARK    4  A    between atoms: C_9  and  N_4 
REMARK    5  A    between atoms: C_16  and  C_10 
ROOT
ATOM      1  N   UNL d   1      -0.968   0.453   0.000  0.00  0.00    -0.226 N 
ATOM      2  N   UNL d   1       0.666   0.460   0.000  0.00  0.00    -0.301 N 
ATOM      3  C   UNL d   1      -0.570   1.167   0.000  0.00  0.00     0.111 A 
ATOM      4  C   UNL d   1      -0.559  -0.265   0.000  0.00  0.00     0.111 A 
ATOM      5  C   UNL d   1       0.254   1.177   0.000  0.00  0.00     0.100 A 
ATOM      6  C   UNL d   1       0.265  -0.265   0.000  0.00  0.00     0.100 A 
ENDROOT
BRANCH   1   7
ATOM      7  S   UNL d   1      -1.810   0.453   0.000  0.00  0.00     0.272 S 
ATOM      8  O   UNL d   1      -1.807   1.281   0.000  0.00  0.00    -0.200 OA
ATOM      9  O   UNL d   1      -1.807  -0.386   0.000  0.00  0.00    -0.200 OA
BRANCH   7  10
ATOM     10  C   UNL d   1      -2.646   0.442   0.000  0.00  0.00     0.116 C 
BRANCH  10  11
ATOM     11  C   UNL d   1      -3.058   1.159   0.000  0.00  0.00     0.014 C 
BRANCH  11  12
ATOM     12  C   UNL d   1      -3.882   1.148   0.000  0.00  0.00     0.001 A 
ATOM     13  C   UNL d   1      -4.324   1.873   0.000  0.00  0.00     0.000 A 
ATOM     14  C   UNL d   1      -5.152   1.851   0.000  0.00  0.00     0.000 A 
ATOM     15  C   UNL d   1      -5.545   1.104   0.000  0.00  0.00     0.000 A 
ATOM     16  C   UNL d   1      -5.119   0.408   0.000  0.00  0.00     0.000 A 
ATOM     17  C   UNL d   1      -4.283   0.438   0.000  0.00  0.00     0.000 A 
ENDBRANCH  11  12
ENDBRANCH  10  11
ENDBRANCH   7  10
ENDBRANCH   1   7
BRANCH   2  18
ATOM     18  C   UNL d   1       1.501   0.471   0.000  0.00  0.00     0.064 A 
ATOM     19  C   UNL d   1       1.903   1.189   0.000  0.00  0.00     0.020 A 
ATOM     20  C   UNL d   1       2.727   1.192   0.000  0.00  0.00     0.031 A 
ATOM     21  C   UNL d   1       3.139   0.482   0.000  0.00  0.00     0.140 A 
ATOM     22  C   UNL d   1       2.738  -0.247   0.000  0.00  0.00     0.031 A 
ATOM     23  F   UNL d   1       3.989   0.482   0.000  0.00  0.00    -0.204 F 
ATOM     24  C   UNL d   1       1.913  -0.247   0.000  0.00  0.00     0.020 A 
ENDBRANCH   2  18
TORSDOF 5
