REMARK  3 active torsions:
REMARK  status: ('A' for Active; 'I' for Inactive)
REMARK    1  A    between atoms: C_4  and  N_1 
REMARK    2  A    between atoms: C_6  and  C_4 
REMARK       I    between atoms: N_8  and  C_6 
REMARK    3  A    between atoms: C_10  and  N_8 
ROOT
ATOM      1  C   UNL d   1       5.189  -3.927   0.000  0.00  0.00     0.165 C 
ENDROOT
BRANCH   1   2
ATOM      2  N   UNL d   1       4.927  -3.140   0.000  0.00  0.00    -0.204 N 
ATOM      3  N   UNL d   1       5.414  -2.466   0.000  0.00  0.00    -0.059 NA
ATOM      4  N   UNL d   1       4.927  -1.799   0.000  0.00  0.00    -0.129 NA
ATOM      5  C   UNL d   1       4.140  -2.053   0.000  0.00  0.00     0.122 A 
ATOM      6  C   UNL d   1       4.140  -2.886   0.000  0.00  0.00     0.104 A 
ATOM      7  C   UNL d   1       3.428  -1.641   0.000  0.00  0.00     0.022 A 
ATOM      8  C   UNL d   1       3.428  -3.298   0.000  0.00  0.00     0.021 A 
ATOM      9  C   UNL d   1       2.715  -2.886   0.000  0.00  0.00     0.002 A 
ATOM     10  C   UNL d   1       2.715  -2.062   0.000  0.00  0.00     0.002 A 
ENDBRANCH   1   2
BRANCH   1  11
ATOM     11  C   UNL d   1       4.773  -4.639   0.000  0.00  0.00     0.299 C 
ATOM     12  N   UNL d   1       5.352  -5.222   0.000  0.00  0.00    -0.207 NA
ATOM     13  O   UNL d   1       3.948  -4.635   0.000  0.00  0.00    -0.263 OA
BRANCH  12  14
ATOM     14  C   UNL d   1       6.176  -5.222   0.000  0.00  0.00     0.085 A 
ATOM     15  C   UNL d   1       6.588  -5.939   0.000  0.00  0.00     0.019 A 
ATOM     16  C   UNL d   1       7.413  -5.939   0.000  0.00  0.00     0.002 A 
ATOM     17  C   UNL d   1       7.825  -6.651   0.000  0.00  0.00     0.000 C 
ATOM     18  C   UNL d   1       7.825  -5.222   0.000  0.00  0.00     0.000 A 
ATOM     19  C   UNL d   1       7.409  -4.502   0.000  0.00  0.00     0.002 A 
ATOM     20  C   UNL d   1       6.588  -4.502   0.000  0.00  0.00     0.019 A 
ENDBRANCH  12  14
ENDBRANCH   1  11
TORSDOF 3
