REMARK  3 active torsions:
REMARK  status: ('A' for Active; 'I' for Inactive)
REMARK    1  A    between atoms: C_8  and  C_2 
REMARK    2  A    between atoms: O_11  and  C_8 
REMARK    3  A    between atoms: C_12  and  O_11 
ROOT
ATOM      1  O   UNL d   1       3.929   1.544   0.000  0.00  0.00    -0.302 OA
ENDROOT
BRANCH   1   2
ATOM      2  C   UNL d   1       3.516   0.825   0.000  0.00  0.00     0.161 C 
BRANCH   2   3
ATOM      3  C   UNL d   1       2.691   0.825   0.000  0.00  0.00     0.188 A 
ATOM      4  N   UNL d   1       2.198   1.515   0.000  0.00  0.00    -0.224 NA
ATOM      5  C   UNL d   1       1.429   1.267   0.000  0.00  0.00     0.101 A 
ATOM      6  C   UNL d   1       1.429   0.412   0.000  0.00  0.00     0.101 A 
ATOM      7  C   UNL d   1       0.688   1.650   0.000  0.00  0.00     0.021 A 
ATOM      8  C   UNL d   1       0.715   0.000   0.000  0.00  0.00     0.021 A 
ATOM      9  N   UNL d   1       2.198   0.167   0.000  0.00  0.00    -0.224 NA
ATOM     10  C   UNL d   1       0.000   0.412   0.000  0.00  0.00     0.002 A 
ATOM     11  C   UNL d   1       0.000   1.238   0.000  0.00  0.00     0.002 A 
ENDBRANCH   2   3
ENDBRANCH   1   2
BRANCH   1  12
ATOM     12  C   UNL d   1       4.754   1.515   0.000  0.00  0.00     0.100 A 
ATOM     13  C   UNL d   1       5.166   0.825   0.000  0.00  0.00     0.025 A 
ATOM     14  C   UNL d   1       5.991   0.825   0.000  0.00  0.00     0.002 A 
ATOM     15  C   UNL d   1       6.404   0.086   0.000  0.00  0.00     0.000 A 
ATOM     16  C   UNL d   1       6.404   1.515   0.000  0.00  0.00     0.000 A 
ATOM     17  C   UNL d   1       7.229   0.086   0.000  0.00  0.00     0.000 A 
ATOM     18  C   UNL d   1       7.671   0.825   0.000  0.00  0.00     0.000 A 
ATOM     19  C   UNL d   1       7.229   1.515   0.000  0.00  0.00     0.000 A 
ATOM     20  C   UNL d   1       5.991   2.259   0.000  0.00  0.00     0.002 A 
ATOM     21  C   UNL d   1       5.166   2.259   0.000  0.00  0.00     0.025 A 
ENDBRANCH   1  12
TORSDOF 3
