REMARK  4 active torsions:
REMARK  status: ('A' for Active; 'I' for Inactive)
REMARK    1  A    between atoms: N_8  and  C_1 
REMARK    2  A    between atoms: C_13  and  N_4 
REMARK    3  A    between atoms: C_6  and  N_8 
REMARK    4  A    between atoms: C_14  and  C_9 
ROOT
ATOM      1  C   UNL d   1       9.764  -2.512   0.000  0.00  0.00     0.135 A 
ATOM      2  C   UNL d   1       9.091  -2.999   0.000  0.00  0.00     0.296 A 
ATOM      3  N   UNL d   1       8.691  -1.729   0.000  0.00  0.00    -0.238 N 
ATOM      4  N   UNL d   1       8.429  -2.512   0.000  0.00  0.00    -0.209 N 
ATOM      5  C   UNL d   1       9.508  -1.740   0.000  0.00  0.00     0.102 A 
ATOM      6  O   UNL d   1       9.091  -3.817   0.000  0.00  0.00    -0.264 OA
ATOM      7  C   UNL d   1       8.215  -1.062   0.000  0.00  0.00     0.120 C 
ATOM      8  C   UNL d   1       9.996  -1.067   0.000  0.00  0.00     0.022 C 
ENDROOT
BRANCH   1   9
ATOM      9  N   UNL d   1      10.547  -2.773   0.000  0.00  0.00    -0.329 N 
ATOM     10  H   UNL d   1      10.709  -3.585   0.000  0.00  0.00     0.168 HD
BRANCH   9  11
ATOM     11  C   UNL d   1      11.162  -2.234   0.000  0.00  0.00     0.172 A 
ATOM     12  N   UNL d   1      11.962  -2.408   0.000  0.00  0.00    -0.222 NA
ATOM     13  C   UNL d   1      12.380  -1.694   0.000  0.00  0.00     0.090 A 
ATOM     14  C   UNL d   1      11.835  -1.085   0.000  0.00  0.00     0.057 A 
ATOM     15  S   UNL d   1      11.075  -1.416   0.000  0.00  0.00    -0.048 SA
BRANCH  13  16
ATOM     16  C   UNL d   1      13.198  -1.619   0.000  0.00  0.00     0.018 A 
ATOM     17  C   UNL d   1      13.685  -2.286   0.000  0.00  0.00     0.002 A 
ATOM     18  C   UNL d   1      14.503  -2.199   0.000  0.00  0.00     0.000 A 
ATOM     19  C   UNL d   1      14.834  -1.450   0.000  0.00  0.00     0.000 A 
ATOM     20  C   UNL d   1      14.364  -0.789   0.000  0.00  0.00     0.000 A 
ATOM     21  C   UNL d   1      13.540  -0.859   0.000  0.00  0.00     0.002 A 
ENDBRANCH  13  16
ENDBRANCH   9  11
ENDBRANCH   1   9
BRANCH   4  22
ATOM     22  C   UNL d   1       7.646  -2.756   0.000  0.00  0.00     0.085 A 
ATOM     23  C   UNL d   1       7.037  -2.199   0.000  0.00  0.00     0.019 A 
ATOM     24  C   UNL d   1       6.254  -2.454   0.000  0.00  0.00     0.002 A 
ATOM     25  C   UNL d   1       6.080  -3.260   0.000  0.00  0.00     0.000 A 
ATOM     26  C   UNL d   1       6.689  -3.817   0.000  0.00  0.00     0.002 A 
ATOM     27  C   UNL d   1       7.472  -3.568   0.000  0.00  0.00     0.019 A 
ENDBRANCH   4  22
TORSDOF 4
