REMARK  7 active torsions:
REMARK  status: ('A' for Active; 'I' for Inactive)
REMARK    1  A    between atoms: N_2  and  C_1 
REMARK    2  A    between atoms: C_5  and  C_1 
REMARK    3  A    between atoms: O_4  and  N_2 
REMARK    4  A    between atoms: C_3  and  O_4 
REMARK    5  A    between atoms: C_6  and  C_3 
REMARK    6  A    between atoms: C_17  and  C_14 
REMARK    7  A    between atoms: C_18  and  C_17 
ROOT
ATOM      1  C   UNL d   1       4.379   1.021   0.000  0.00  0.00     0.319 C 
ATOM      2  O   UNL d   1       4.379   1.850   0.000  0.00  0.00    -0.257 OA
ENDROOT
BRANCH   1   3
ATOM      3  O   UNL d   1       3.667   0.608   0.000  0.00  0.00    -0.168 OA
BRANCH   3   4
ATOM      4  N   UNL d   1       3.667  -0.217   0.000  0.00  0.00    -0.100 NA
BRANCH   4   5
ATOM      5  C   UNL d   1       2.954  -0.629   0.000  0.00  0.00     0.228 C 
ATOM      6  N   UNL d   1       2.242  -0.217   0.000  0.00  0.00    -0.123 N 
BRANCH   5   7
ATOM      7  C   UNL d   1       2.954  -1.454   0.000  0.00  0.00     0.121 A 
ATOM      8  N   UNL d   1       3.675  -1.867   0.000  0.00  0.00    -0.241 NA
ATOM      9  C   UNL d   1       3.675  -2.700   0.000  0.00  0.00     0.099 A 
ATOM     10  C   UNL d   1       2.954  -3.112   0.000  0.00  0.00     0.021 A 
ATOM     11  C   UNL d   1       2.242  -2.700   0.000  0.00  0.00     0.003 A 
ATOM     12  C   UNL d   1       2.242  -1.875   0.000  0.00  0.00     0.022 A 
ENDBRANCH   5   7
ENDBRANCH   4   5
ENDBRANCH   3   4
ENDBRANCH   1   3
BRANCH   1  13
ATOM     13  C   UNL d   1       5.100   0.608   0.000  0.00  0.00     0.065 A 
ATOM     14  C   UNL d   1       5.092  -0.217   0.000  0.00  0.00     0.005 A 
ATOM     15  C   UNL d   1       5.804  -0.629   0.000  0.00  0.00     0.000 A 
ATOM     16  C   UNL d   1       6.525  -0.217   0.000  0.00  0.00     0.000 A 
ATOM     17  C   UNL d   1       6.525   0.608   0.000  0.00  0.00     0.000 A 
ATOM     18  C   UNL d   1       5.804   1.021   0.000  0.00  0.00     0.005 A 
BRANCH  16  19
ATOM     19  C   UNL d   1       7.237  -0.637   0.000  0.00  0.00     0.000 C 
BRANCH  19  20
ATOM     20  C   UNL d   1       7.229  -1.462   0.000  0.00  0.00     0.000 C 
ATOM     21  C   UNL d   1       6.517  -1.875   0.000  0.00  0.00     0.000 C 
ENDBRANCH  19  20
ENDBRANCH  16  19
ENDBRANCH   1  13
TORSDOF 7
