REMARK  6 active torsions:
REMARK  status: ('A' for Active; 'I' for Inactive)
REMARK    1  A    between atoms: C_7  and  N_1 
REMARK    2  A    between atoms: S_10  and  C_2 
REMARK    3  A    between atoms: C_22  and  S_10 
REMARK    4  A    between atoms: C_13  and  C_22 
REMARK       I    between atoms: N_17  and  C_13 
REMARK    5  A    between atoms: C_14  and  C_23 
REMARK    6  A    between atoms: C_23  and  N_17 
ROOT
ATOM      1  N   UNL d   1      -2.133  -5.467   0.000  0.00  0.00    -0.254 N 
ATOM      2  C   UNL d   1      -1.883  -4.679   0.000  0.00  0.00     0.183 A 
ATOM      3  N   UNL d   1      -2.433  -4.067   0.000  0.00  0.00    -0.201 NA
ATOM      4  C   UNL d   1      -2.946  -5.629   0.000  0.00  0.00     0.271 A 
ATOM      5  C   UNL d   1      -3.487  -5.017   0.000  0.00  0.00     0.115 A 
ATOM      6  C   UNL d   1      -3.233  -4.237   0.000  0.00  0.00     0.192 A 
ATOM      7  N   UNL d   1      -4.562  -4.237   0.000  0.00  0.00    -0.145 NA
ATOM      8  N   UNL d   1      -3.900  -3.754   0.000  0.00  0.00    -0.128 NA
ATOM      9  C   UNL d   1      -4.312  -5.025   0.000  0.00  0.00     0.130 A 
ATOM     10  O   UNL d   1      -3.200  -6.417   0.000  0.00  0.00    -0.266 OA
ENDROOT
BRANCH   2  11
ATOM     11  S   UNL d   1      -1.071  -4.504   0.000  0.00  0.00    -0.044 SA
BRANCH  11  12
ATOM     12  C   UNL d   1      -0.521  -5.117   0.000  0.00  0.00     0.101 C 
BRANCH  12  13
ATOM     13  C   UNL d   1       0.287  -4.950   0.000  0.00  0.00     0.286 C 
ATOM     14  N   UNL d   1       0.542  -4.162   0.000  0.00  0.00    -0.204 NA
ATOM     15  O   UNL d   1       0.842  -5.562   0.000  0.00  0.00    -0.265 OA
BRANCH  14  16
ATOM     16  C   UNL d   1       1.350  -3.992   0.000  0.00  0.00     0.127 C 
BRANCH  16  17
ATOM     17  C   UNL d   1       1.604  -3.204   0.000  0.00  0.00     0.119 A 
ATOM     18  O   UNL d   1       2.379  -2.942   0.000  0.00  0.00    -0.304 OA
ATOM     19  C   UNL d   1       2.379  -2.117   0.000  0.00  0.00     0.123 A 
ATOM     20  C   UNL d   1       1.600  -1.867   0.000  0.00  0.00     0.029 A 
ATOM     21  C   UNL d   1       1.117  -2.529   0.000  0.00  0.00     0.028 A 
ENDBRANCH  16  17
ENDBRANCH  14  16
ENDBRANCH  12  13
ENDBRANCH  11  12
ENDBRANCH   2  11
BRANCH   1  22
ATOM     22  C   UNL d   1      -1.587  -6.075   0.000  0.00  0.00     0.075 A 
ATOM     23  C   UNL d   1      -1.846  -6.862   0.000  0.00  0.00     0.051 A 
ATOM     24 BR   UNL d   1      -2.650  -7.029   0.000  0.00  0.00    -0.048 Br
ATOM     25  C   UNL d   1      -1.296  -7.475   0.000  0.00  0.00     0.008 A 
ATOM     26  C   UNL d   1      -0.487  -7.304   0.000  0.00  0.00     0.001 A 
ATOM     27  C   UNL d   1      -0.233  -6.517   0.000  0.00  0.00     0.002 A 
ATOM     28  C   UNL d   1      -0.783  -5.904   0.000  0.00  0.00     0.018 A 
ENDBRANCH   1  22
TORSDOF 6
