REMARK  3 active torsions:
REMARK  status: ('A' for Active; 'I' for Inactive)
REMARK    1  A    between atoms: C_13  and  C_3 
REMARK    2  A    between atoms: C_4  and  S_11 
REMARK    3  A    between atoms: S_11  and  C_13 
ROOT
ATOM      1  C   UNL d   1      -2.409   1.715   0.000  0.00  0.00     0.141 A 
ATOM      2  N   UNL d   1      -2.879   2.367   0.000  0.00  0.00    -0.232 NA
ATOM      3  S   UNL d   1      -2.879   1.043   0.000  0.00  0.00    -0.060 SA
ATOM      4  C   UNL d   1      -3.661   2.113   0.000  0.00  0.00     0.088 A 
ATOM      5  C   UNL d   1      -3.661   1.294   0.000  0.00  0.00     0.049 A 
ATOM      6  C   UNL d   1      -4.370   2.534   0.000  0.00  0.00     0.020 A 
ATOM      7  C   UNL d   1      -4.370   0.876   0.000  0.00  0.00     0.008 A 
ATOM      8  C   UNL d   1      -5.083   1.294   0.000  0.00  0.00     0.001 A 
ATOM      9  C   UNL d   1      -5.083   2.113   0.000  0.00  0.00     0.002 A 
ENDROOT
BRANCH   1  10
ATOM     10  S   UNL d   1      -1.567   1.715   0.000  0.00  0.00    -0.058 SA
BRANCH  10  11
ATOM     11  C   UNL d   1      -1.168   1.002   0.000  0.00  0.00     0.077 C 
BRANCH  11  12
ATOM     12  C   UNL d   1      -0.330   1.002   0.000  0.00  0.00     0.178 A 
ATOM     13  N   UNL d   1       0.072   0.292   0.000  0.00  0.00    -0.262 N 
ATOM     14  C   UNL d   1       0.891   0.474   0.000  0.00  0.00     0.227 A 
ATOM     15  C   UNL d   1      -0.258  -0.470   0.000  0.00  0.00     0.103 C 
ATOM     16  N   UNL d   1       0.960   1.275   0.000  0.00  0.00    -0.117 NA
ATOM     17  S   UNL d   1       1.529  -0.084   0.000  0.00  0.00    -0.036 SA
ATOM     18  N   UNL d   1       0.231   1.624   0.000  0.00  0.00    -0.127 NA
ENDBRANCH  11  12
ENDBRANCH  10  11
ENDBRANCH   1  10
TORSDOF 3
