REMARK  4 active torsions:
REMARK  status: ('A' for Active; 'I' for Inactive)
REMARK    1  A    between atoms: C_6  and  C_1 
REMARK    2  A    between atoms: C_9  and  N_3 
REMARK    3  A    between atoms: C_17  and  C_9 
REMARK    4  A    between atoms: O_15  and  C_10 
ROOT
ATOM      1  C   UNL d   1       2.682   2.794   0.000  0.00  0.00     0.148 A 
ATOM      2  N   UNL d   1       2.181   3.485   0.000  0.00  0.00    -0.227 NA
ATOM      3  N   UNL d   1       2.181   2.132   0.000  0.00  0.00    -0.289 N 
ATOM      4  C   UNL d   1       1.410   2.379   0.000  0.00  0.00     0.083 A 
ATOM      5  C   UNL d   1       1.410   3.233   0.000  0.00  0.00     0.099 A 
ATOM      6  C   UNL d   1       0.692   1.969   0.000  0.00  0.00     0.019 A 
ATOM      7  C   UNL d   1       0.662   3.619   0.000  0.00  0.00     0.021 A 
ATOM      8  C   UNL d   1       0.000   2.379   0.000  0.00  0.00     0.002 A 
ATOM      9  C   UNL d   1       0.000   3.204   0.000  0.00  0.00     0.002 A 
ENDROOT
BRANCH   1  10
ATOM     10  C   UNL d   1       3.512   2.818   0.000  0.00  0.00     0.035 A 
ATOM     11  C   UNL d   1       3.952   2.132   0.000  0.00  0.00     0.005 A 
ATOM     12  C   UNL d   1       4.782   2.132   0.000  0.00  0.00     0.024 A 
ATOM     13  C   UNL d   1       5.172   2.818   0.000  0.00  0.00     0.094 A 
ATOM     14  C   UNL d   1       4.730   3.537   0.000  0.00  0.00     0.024 A 
ATOM     15  C   UNL d   1       3.900   3.537   0.000  0.00  0.00     0.005 A 
BRANCH  13  16
ATOM     16  O   UNL d   1       5.891   3.233   0.000  0.00  0.00    -0.328 OA
ATOM     17  C   UNL d   1       6.610   2.818   0.000  0.00  0.00     0.181 C 
ENDBRANCH  13  16
ENDBRANCH   1  10
BRANCH   3  18
ATOM     18  C   UNL d   1       2.571   1.442   0.000  0.00  0.00     0.082 C 
BRANCH  18  19
ATOM     19  C   UNL d   1       2.181   0.724   0.000  0.00  0.00     0.019 C 
ATOM     20  C   UNL d   1       2.571   0.000   0.000  0.00  0.00     0.002 C 
ENDBRANCH  18  19
ENDBRANCH   3  18
TORSDOF 4
