REMARK  2 active torsions:
REMARK  status: ('A' for Active; 'I' for Inactive)
REMARK    1  A    between atoms: C_6  and  C_1 
REMARK    2  A    between atoms: O_12  and  C_9 
ROOT
ATOM      1  C   UNL d   1       2.666   0.825   0.000  0.00  0.00     0.162 A 
ATOM      2  N   UNL d   1       2.168   1.515   0.000  0.00  0.00    -0.225 NA
ATOM      3  N   UNL d   1       2.168   0.167   0.000  0.00  0.00    -0.225 NA
ATOM      4  C   UNL d   1       1.402   1.267   0.000  0.00  0.00     0.101 A 
ATOM      5  C   UNL d   1       1.402   0.412   0.000  0.00  0.00     0.101 A 
ATOM      6  C   UNL d   1       0.658   1.625   0.000  0.00  0.00     0.021 A 
ATOM      7  C   UNL d   1       0.688   0.000   0.000  0.00  0.00     0.021 A 
ATOM      8  C   UNL d   1       0.000   0.412   0.000  0.00  0.00     0.002 A 
ATOM      9  C   UNL d   1       0.000   1.238   0.000  0.00  0.00     0.002 A 
ENDROOT
BRANCH   1  10
ATOM     10  C   UNL d   1       3.491   0.825   0.000  0.00  0.00     0.036 A 
ATOM     11  C   UNL d   1       3.904   0.111   0.000  0.00  0.00     0.005 A 
ATOM     12  C   UNL d   1       4.729   0.111   0.000  0.00  0.00     0.024 A 
ATOM     13  C   UNL d   1       5.141   0.825   0.000  0.00  0.00     0.094 A 
ATOM     14  C   UNL d   1       4.729   1.544   0.000  0.00  0.00     0.024 A 
ATOM     15  C   UNL d   1       3.904   1.544   0.000  0.00  0.00     0.005 A 
BRANCH  13  16
ATOM     16  O   UNL d   1       5.966   0.825   0.000  0.00  0.00    -0.328 OA
ATOM     17  C   UNL d   1       6.681   0.412   0.000  0.00  0.00     0.181 C 
ENDBRANCH  13  16
ENDBRANCH   1  10
TORSDOF 2
