REMARK  6 active torsions:
REMARK  status: ('A' for Active; 'I' for Inactive)
REMARK    1  A    between atoms: C_2  and  N_1 
REMARK       I    between atoms: C_3  and  N_9 
REMARK    2  A    between atoms: C_5  and  C_3 
REMARK    3  A    between atoms: C_6  and  C_5 
REMARK    4  A    between atoms: C_7  and  C_6 
REMARK    5  A    between atoms: O_14  and  C_7 
REMARK    6  A    between atoms: N_9  and  C_11 
ROOT
ATOM      1  C   UNL d   1       4.899  -3.004   0.000  0.00  0.00     0.258 C 
ATOM      2  N   UNL d   1       4.192  -3.429   0.000  0.00  0.00    -0.321 N 
ATOM      3  O   UNL d   1       4.881  -2.188   0.000  0.00  0.00    -0.267 OA
ATOM      4  H   UNL d   1       4.210  -4.244   0.000  0.00  0.00     0.169 HD
ENDROOT
BRANCH   2   5
ATOM      5  C   UNL d   1       3.480  -3.021   0.000  0.00  0.00     0.061 A 
ATOM      6  C   UNL d   1       2.762  -3.451   0.000  0.00  0.00     0.041 A 
ATOM      7  C   UNL d   1       2.039  -3.050   0.000  0.00  0.00     0.128 A 
ATOM      8  C   UNL d   1       2.033  -2.223   0.000  0.00  0.00     0.024 A 
ATOM      9  C   UNL d   1       2.739  -1.798   0.000  0.00  0.00     0.003 A 
ATOM     10  C   UNL d   1       3.451  -2.194   0.000  0.00  0.00     0.017 A 
BRANCH   7  11
ATOM     11  N   UNL d   1       1.332  -3.469   0.000  0.00  0.00    -0.114 N 
ATOM     12  O   UNL d   1       0.609  -3.072   0.000  0.00  0.00    -0.532 OA
ATOM     13  O   UNL d   1       1.350  -4.296   0.000  0.00  0.00    -0.532 OA
ENDBRANCH   7  11
ENDBRANCH   2   5
BRANCH   1  14
ATOM     14  C   UNL d   1       5.617  -3.400   0.000  0.00  0.00     0.066 C 
BRANCH  14  15
ATOM     15  C   UNL d   1       6.311  -2.969   0.000  0.00  0.00     0.073 C 
BRANCH  15  16
ATOM     16  C   UNL d   1       6.294  -2.142   0.000  0.00  0.00     0.296 C 
ATOM     17  O   UNL d   1       5.571  -1.746   0.000  0.00  0.00    -0.259 OA
BRANCH  16  18
ATOM     18  O   UNL d   1       7.001  -1.723   0.000  0.00  0.00    -0.296 OA
ATOM     19  C   UNL d   1       7.724  -2.125   0.000  0.00  0.00     0.185 C 
ENDBRANCH  16  18
ENDBRANCH  15  16
ENDBRANCH  14  15
ENDBRANCH   1  14
TORSDOF 6
