REMARK  2 active torsions:
REMARK  status: ('A' for Active; 'I' for Inactive)
REMARK    1  A    between atoms: N_3  and  C_1 
REMARK    2  A    between atoms: C_13  and  N_6 
ROOT
ATOM      1  C   UNL d   1       4.322  -3.055   0.000  0.00  0.00     0.143 A 
ATOM      2  C   UNL d   1       3.659  -3.561   0.000  0.00  0.00     0.297 A 
ATOM      3  C   UNL d   1       4.060  -2.289   0.000  0.00  0.00     0.102 A 
ATOM      4  N   UNL d   1       3.229  -2.300   0.000  0.00  0.00    -0.238 N 
ATOM      5  N   UNL d   1       2.986  -3.084   0.000  0.00  0.00    -0.209 N 
ATOM      6  O   UNL d   1       3.665  -4.380   0.000  0.00  0.00    -0.264 OA
ATOM      7  C   UNL d   1       2.742  -1.626   0.000  0.00  0.00     0.120 C 
ATOM      8  C   UNL d   1       4.536  -1.609   0.000  0.00  0.00     0.022 C 
ENDROOT
BRANCH   1   9
ATOM      9  N   UNL d   1       5.112  -3.311   0.000  0.00  0.00    -0.254 N 
ATOM     10  C   UNL d   1       5.774  -2.811   0.000  0.00  0.00     0.153 A 
ATOM     11  S   UNL d   1       6.447  -3.293   0.000  0.00  0.00    -0.053 SA
ATOM     12  S   UNL d   1       5.756  -1.992   0.000  0.00  0.00    -0.052 SA
ATOM     13  C   UNL d   1       6.192  -4.077   0.000  0.00  0.00     0.099 A 
ATOM     14  C   UNL d   1       5.373  -4.083   0.000  0.00  0.00     0.273 A 
ATOM     15  O   UNL d   1       4.896  -4.763   0.000  0.00  0.00    -0.266 OA
ENDBRANCH   1   9
BRANCH   5  16
ATOM     16  C   UNL d   1       2.213  -3.369   0.000  0.00  0.00     0.085 A 
ATOM     17  C   UNL d   1       1.574  -2.846   0.000  0.00  0.00     0.019 A 
ATOM     18  C   UNL d   1       0.807  -3.142   0.000  0.00  0.00     0.002 A 
ATOM     19  C   UNL d   1       0.668  -3.944   0.000  0.00  0.00     0.000 A 
ATOM     20  C   UNL d   1       1.295  -4.467   0.000  0.00  0.00     0.002 A 
ATOM     21  C   UNL d   1       2.074  -4.182   0.000  0.00  0.00     0.019 A 
ENDBRANCH   5  16
TORSDOF 2
