REMARK  3 active torsions:
REMARK  status: ('A' for Active; 'I' for Inactive)
REMARK    1  A    between atoms: C_4  and  C_1 
REMARK    2  A    between atoms: N_2  and  C_3 
REMARK    3  A    between atoms: C_5  and  N_2 
ROOT
ATOM      1  C   UNL d   1      -2.248   1.366   0.000  0.00  0.00     0.082 A 
ATOM      2  C   UNL d   1      -2.970   1.785   0.000  0.00  0.00     0.087 A 
ATOM      3  C   UNL d   1      -2.248   0.545   0.000  0.00  0.00     0.008 A 
ATOM      4  C   UNL d   1      -3.681   1.366   0.000  0.00  0.00     0.019 A 
ATOM      5  C   UNL d   1      -2.970   0.127   0.000  0.00  0.00     0.000 A 
ATOM      6  C   UNL d   1      -3.681   0.545   0.000  0.00  0.00     0.002 A 
ENDROOT
BRANCH   2   7
ATOM      7  N   UNL d   1      -2.970   2.606   0.000  0.00  0.00    -0.245 NA
BRANCH   7   8
ATOM      8  C   UNL d   1      -3.681   3.036   0.000  0.00  0.00     0.081 A 
ATOM      9  C   UNL d   1      -3.681   3.852   0.000  0.00  0.00     0.018 A 
ATOM     10  C   UNL d   1      -4.391   4.276   0.000  0.00  0.00     0.002 A 
ATOM     11  C   UNL d   1      -2.970   4.248   0.000  0.00  0.00     0.002 C 
ATOM     12  C   UNL d   1      -4.391   5.086   0.000  0.00  0.00     0.000 C 
ATOM     13  C   UNL d   1      -5.108   3.852   0.000  0.00  0.00     0.000 A 
ATOM     14  C   UNL d   1      -5.108   3.036   0.000  0.00  0.00     0.002 A 
ATOM     15  C   UNL d   1      -4.391   2.606   0.000  0.00  0.00     0.019 A 
ENDBRANCH   7   8
ENDBRANCH   2   7
BRANCH   1  16
ATOM     16  C   UNL d   1      -1.537   1.785   0.000  0.00  0.00     0.212 C 
ATOM     17  O   UNL d   1      -1.537   2.606   0.000  0.00  0.00    -0.644 OA
ATOM     18  O   UNL d   1      -0.821   1.389   0.000  0.00  0.00    -0.644 OA
ENDBRANCH   1  16
TORSDOF 3
