REMARK  2 active torsions:
REMARK  status: ('A' for Active; 'I' for Inactive)
REMARK    1  A    between atoms: C_7  and  C_1 
REMARK    2  A    between atoms: O_14  and  C_11 
ROOT
ATOM      1  C   UNL d   1       1.474  -1.650   0.000  0.00  0.00     0.066 A 
ATOM      2  C   UNL d   1       0.733  -2.074   0.000  0.00  0.00     0.200 A 
ATOM      3  C   UNL d   1       0.026  -1.650   0.000  0.00  0.00     0.062 A 
ATOM      4  C   UNL d   1       1.474  -0.824   0.000  0.00  0.00     0.126 A 
ATOM      5  C   UNL d   1       0.026  -0.824   0.000  0.00  0.00     0.106 A 
ATOM      6  O   UNL d   1       0.733  -0.400   0.000  0.00  0.00    -0.305 OA
ATOM      7  C   UNL d   1      -0.703  -2.074   0.000  0.00  0.00     0.009 A 
ATOM      8  C   UNL d   1      -0.703  -0.400   0.000  0.00  0.00     0.067 A 
ATOM      9  O   UNL d   1       0.733  -2.915   0.000  0.00  0.00    -0.286 OA
ATOM     10  C   UNL d   1      -1.436  -0.824   0.000  0.00  0.00     0.198 A 
ATOM     11  C   UNL d   1      -1.436  -1.650   0.000  0.00  0.00     0.042 A 
ATOM     12  O   UNL d   1      -2.168  -0.400   0.000  0.00  0.00    -0.286 OA
ENDROOT
BRANCH   1  13
ATOM     13  C   UNL d   1       1.977  -1.942   0.000  0.00  0.00     0.027 A 
ATOM     14  C   UNL d   1       1.977  -2.518   0.000  0.00  0.00     0.094 A 
ATOM     15  C   UNL d   1       2.474  -2.815   0.000  0.00  0.00     0.024 A 
ATOM     16  C   UNL d   1       2.977  -2.518   0.000  0.00  0.00     0.002 A 
ATOM     17  C   UNL d   1       2.977  -1.942   0.000  0.00  0.00     0.000 A 
ATOM     18  C   UNL d   1       2.474  -1.650   0.000  0.00  0.00     0.002 A 
BRANCH  14  19
ATOM     19  O   UNL d   1       1.468  -2.815   0.000  0.00  0.00    -0.328 OA
ATOM     20  C   UNL d   1       1.468  -3.392   0.000  0.00  0.00     0.181 C 
ENDBRANCH  14  19
ENDBRANCH   1  13
TORSDOF 2
