REMARK  6 active torsions:
REMARK  status: ('A' for Active; 'I' for Inactive)
REMARK    1  A    between atoms: C_10  and  N_1 
REMARK    2  A    between atoms: S_8  and  C_2 
REMARK       I    between atoms: N_7  and  C_9 
REMARK    3  A    between atoms: C_13  and  S_8 
REMARK    4  A    between atoms: C_9  and  C_13 
REMARK    5  A    between atoms: C_21  and  N_11 
REMARK    6  A    between atoms: C_25  and  C_21 
ROOT
ATOM      1  N   UNL d   1      -3.022   1.396   0.000  0.00  0.00    -0.254 N 
ATOM      2  C   UNL d   1      -3.022   0.576   0.000  0.00  0.00     0.182 A 
ATOM      3  C   UNL d   1      -3.739   1.806   0.000  0.00  0.00     0.268 A 
ATOM      4  N   UNL d   1      -3.739   0.167   0.000  0.00  0.00    -0.222 NA
ATOM      5  C   UNL d   1      -4.456   1.396   0.000  0.00  0.00     0.074 A 
ATOM      6  C   UNL d   1      -4.456   0.576   0.000  0.00  0.00     0.088 A 
ATOM      7  O   UNL d   1      -3.739   2.625   0.000  0.00  0.00    -0.267 OA
ATOM      8  C   UNL d   1      -5.156   1.806   0.000  0.00  0.00     0.006 A 
ATOM      9  C   UNL d   1      -5.156   0.167   0.000  0.00  0.00     0.019 A 
ATOM     10  C   UNL d   1      -5.873   1.396   0.000  0.00  0.00     0.000 A 
ATOM     11  C   UNL d   1      -5.873   0.576   0.000  0.00  0.00     0.002 A 
ENDROOT
BRANCH   2  12
ATOM     12  S   UNL d   1      -2.305   0.149   0.000  0.00  0.00    -0.044 SA
BRANCH  12  13
ATOM     13  C   UNL d   1      -1.588   0.576   0.000  0.00  0.00     0.099 C 
BRANCH  13  14
ATOM     14  C   UNL d   1      -0.871   0.149   0.000  0.00  0.00     0.272 C 
ATOM     15  N   UNL d   1      -0.154   0.576   0.000  0.00  0.00    -0.269 N 
ATOM     16  C   UNL d   1       0.542   0.149   0.000  0.00  0.00     0.102 A 
ATOM     17  C   UNL d   1      -0.154   1.396   0.000  0.00  0.00     0.102 A 
ATOM     18  C   UNL d   1       1.259   0.576   0.000  0.00  0.00     0.100 A 
ATOM     19  N   UNL d   1       1.259   1.396   0.000  0.00  0.00    -0.297 N 
ATOM     20  C   UNL d   1       0.542   1.806   0.000  0.00  0.00     0.100 A 
ATOM     21  O   UNL d   1      -0.871  -0.670   0.000  0.00  0.00    -0.266 OA
BRANCH  19  22
ATOM     22  C   UNL d   1       1.998   1.806   0.000  0.00  0.00     0.126 C 
BRANCH  22  23
ATOM     23  C   UNL d   1       2.693   1.396   0.000  0.00  0.00     0.253 C 
ATOM     24  O   UNL d   1       3.410   1.806   0.000  0.00  0.00    -0.281 OA
ENDBRANCH  22  23
ENDBRANCH  19  22
ENDBRANCH  13  14
ENDBRANCH  12  13
ENDBRANCH   2  12
BRANCH   1  25
ATOM     25  C   UNL d   1      -2.318   1.793   0.000  0.00  0.00     0.069 A 
ATOM     26  C   UNL d   1      -2.318   2.625   0.000  0.00  0.00     0.018 A 
ATOM     27  C   UNL d   1      -1.601   3.035   0.000  0.00  0.00     0.002 A 
ATOM     28  C   UNL d   1      -0.892   2.612   0.000  0.00  0.00     0.000 A 
ATOM     29  C   UNL d   1      -0.892   1.793   0.000  0.00  0.00     0.002 A 
ATOM     30  C   UNL d   1      -1.609   1.379   0.000  0.00  0.00     0.018 A 
ENDBRANCH   1  25
TORSDOF 6
