REMARK  4 active torsions:
REMARK  status: ('A' for Active; 'I' for Inactive)
REMARK    1  A    between atoms: C_14  and  N_1 
REMARK    2  A    between atoms: S_12  and  C_2 
REMARK       I    between atoms: N_7  and  C_10 
REMARK    3  A    between atoms: C_10  and  C_16 
REMARK    4  A    between atoms: C_16  and  S_12 
ROOT
ATOM      1  N   UNL d   1       1.450  -1.791   0.000  0.00  0.00    -0.254 N 
ATOM      2  C   UNL d   1       1.429  -0.966   0.000  0.00  0.00     0.183 A 
ATOM      3  N   UNL d   1       0.704  -0.575   0.000  0.00  0.00    -0.201 NA
ATOM      4  C   UNL d   1       0.742  -2.228   0.000  0.00  0.00     0.271 A 
ATOM      5  C   UNL d   1       0.017  -1.829   0.000  0.00  0.00     0.115 A 
ATOM      6  C   UNL d   1       0.000  -1.000   0.000  0.00  0.00     0.192 A 
ATOM      7  N   UNL d   1      -1.258  -1.437   0.000  0.00  0.00    -0.145 NA
ATOM      8  N   UNL d   1      -0.795  -0.762   0.000  0.00  0.00    -0.128 NA
ATOM      9  C   UNL d   1      -0.771  -2.099   0.000  0.00  0.00     0.130 A 
ATOM     10  O   UNL d   1       0.766  -3.062   0.000  0.00  0.00    -0.266 OA
ENDROOT
BRANCH   2  11
ATOM     11  S   UNL d   1       2.128  -0.541   0.000  0.00  0.00    -0.044 SA
BRANCH  11  12
ATOM     12  C   UNL d   1       2.862  -0.941   0.000  0.00  0.00     0.099 C 
BRANCH  12  13
ATOM     13  C   UNL d   1       3.566  -0.512   0.000  0.00  0.00     0.271 C 
ATOM     14  N   UNL d   1       4.290  -0.904   0.000  0.00  0.00    -0.273 N 
ATOM     15  C   UNL d   1       4.990  -0.479   0.000  0.00  0.00     0.067 A 
ATOM     16  C   UNL d   1       4.303  -1.729   0.000  0.00  0.00     0.083 A 
ATOM     17  C   UNL d   1       5.715  -0.875   0.000  0.00  0.00     0.016 A 
ATOM     18  C   UNL d   1       4.973   0.346   0.000  0.00  0.00     0.018 A 
ATOM     19  C   UNL d   1       6.415  -0.442   0.000  0.00  0.00     0.001 A 
ATOM     20  C   UNL d   1       5.740  -1.691   0.000  0.00  0.00     0.003 A 
ATOM     21  C   UNL d   1       6.402   0.383   0.000  0.00  0.00     0.000 A 
ATOM     22  C   UNL d   1       5.677   0.775   0.000  0.00  0.00     0.002 A 
ATOM     23  C   UNL d   1       5.028  -2.128   0.000  0.00  0.00     0.019 A 
ATOM     24  O   UNL d   1       3.541   0.312   0.000  0.00  0.00    -0.266 OA
ENDBRANCH  12  13
ENDBRANCH  11  12
ENDBRANCH   2  11
BRANCH   1  25
ATOM     25  C   UNL d   1       2.179  -2.191   0.000  0.00  0.00     0.069 A 
ATOM     26  C   UNL d   1       2.191  -3.016   0.000  0.00  0.00     0.018 A 
ATOM     27  C   UNL d   1       2.916  -3.416   0.000  0.00  0.00     0.002 A 
ATOM     28  C   UNL d   1       3.624  -2.987   0.000  0.00  0.00     0.000 A 
ATOM     29  C   UNL d   1       3.603  -2.162   0.000  0.00  0.00     0.002 A 
ATOM     30  C   UNL d   1       2.878  -1.766   0.000  0.00  0.00     0.018 A 
ENDBRANCH   1  25
TORSDOF 4
