REMARK  0 active torsions:
REMARK  status: ('A' for Active; 'I' for Inactive)
ROOT
ATOM      1  N   UNL d   1      -0.665   0.899   0.000  0.00  0.00    -0.242 NA
ATOM      2  N   UNL d   1      -0.665  -0.737   0.000  0.00  0.00    -0.242 NA
ATOM      3  C   UNL d   1       0.056  -0.323   0.000  0.00  0.00     0.101 A 
ATOM      4  C   UNL d   1       0.056   0.487   0.000  0.00  0.00     0.101 A 
ATOM      5  C   UNL d   1       0.757  -0.737   0.000  0.00  0.00     0.043 A 
ATOM      6  C   UNL d   1       0.757   0.908   0.000  0.00  0.00     0.043 A 
ATOM      7  C   UNL d   1       1.478   0.505   0.000  0.00  0.00     0.124 A 
ATOM      8  C   UNL d   1       1.478  -0.323   0.000  0.00  0.00     0.124 A 
ATOM      9  C   UNL d   1      -1.380  -0.323   0.000  0.00  0.00     0.099 A 
ATOM     10  C   UNL d   1      -1.380   0.487   0.000  0.00  0.00     0.099 A 
ATOM     11  N   UNL d   1       2.179   0.908   0.000  0.00  0.00    -0.146 N 
ATOM     12  N   UNL d   1       2.165  -0.723   0.000  0.00  0.00    -0.146 N 
ATOM     13  C   UNL d   1      -2.094   0.899   0.000  0.00  0.00     0.021 A 
ATOM     14  C   UNL d   1      -2.094  -0.737   0.000  0.00  0.00     0.021 A 
ATOM     15  C   UNL d   1      -2.815  -0.323   0.000  0.00  0.00     0.002 A 
ATOM     16  C   UNL d   1      -2.815   0.487   0.000  0.00  0.00     0.002 A 
ENDROOT
TORSDOF 0
