REMARK  4 active torsions:
REMARK  status: ('A' for Active; 'I' for Inactive)
REMARK    1  A    between atoms: C_8  and  C_1 
REMARK    2  A    between atoms: C_10  and  C_5 
REMARK    3  A    between atoms: N_9  and  C_10 
REMARK    4  A    between atoms: O_19  and  C_14 
ROOT
ATOM      1  C   UNL d   1       1.245  -3.051   0.000  0.00  0.00     0.066 A 
ATOM      2  C   UNL d   1       0.526  -3.456   0.000  0.00  0.00     0.200 A 
ATOM      3  C   UNL d   1      -0.184  -2.216   0.000  0.00  0.00     0.108 A 
ATOM      4  C   UNL d   1      -0.184  -3.051   0.000  0.00  0.00     0.062 A 
ATOM      5  C   UNL d   1      -0.899  -1.820   0.000  0.00  0.00     0.079 A 
ATOM      6  C   UNL d   1       1.245  -2.216   0.000  0.00  0.00     0.126 A 
ATOM      7  O   UNL d   1       0.539  -1.798   0.000  0.00  0.00    -0.305 OA
ATOM      8  C   UNL d   1      -0.899  -3.456   0.000  0.00  0.00     0.009 A 
ATOM      9  C   UNL d   1      -1.613  -2.216   0.000  0.00  0.00     0.199 A 
ATOM     10  O   UNL d   1       0.526  -4.278   0.000  0.00  0.00    -0.286 OA
ATOM     11  C   UNL d   1      -1.613  -3.051   0.000  0.00  0.00     0.042 A 
ATOM     12  O   UNL d   1      -2.319  -1.820   0.000  0.00  0.00    -0.286 OA
ENDROOT
BRANCH   1  13
ATOM     13  C   UNL d   1       2.013  -3.492   0.000  0.00  0.00     0.027 A 
ATOM     14  C   UNL d   1       2.013  -4.373   0.000  0.00  0.00     0.094 A 
ATOM     15  C   UNL d   1       2.791  -4.831   0.000  0.00  0.00     0.024 A 
ATOM     16  C   UNL d   1       3.559  -4.373   0.000  0.00  0.00     0.002 A 
ATOM     17  C   UNL d   1       3.559  -3.492   0.000  0.00  0.00     0.000 A 
ATOM     18  C   UNL d   1       2.791  -3.038   0.000  0.00  0.00     0.002 A 
BRANCH  14  19
ATOM     19  O   UNL d   1       1.245  -4.831   0.000  0.00  0.00    -0.328 OA
ATOM     20  C   UNL d   1       1.245  -5.721   0.000  0.00  0.00     0.181 C 
ENDBRANCH  14  19
ENDBRANCH   1  13
BRANCH   5  21
ATOM     21  C   UNL d   1      -0.899  -0.989   0.000  0.00  0.00     0.085 C 
BRANCH  21  22
ATOM     22  N   UNL d   1      -0.184  -0.580   0.000  0.00  0.00    -0.302 N 
ATOM     23  C   UNL d   1      -0.184   0.238   0.000  0.00  0.00     0.080 A 
ATOM     24  C   UNL d   1       0.526   0.643   0.000  0.00  0.00     0.019 A 
ATOM     25  C   UNL d   1       1.240   0.238   0.000  0.00  0.00     0.003 A 
ATOM     26  C   UNL d   1       1.240  -0.580   0.000  0.00  0.00     0.019 A 
ATOM     27  C   UNL d   1       1.946   0.643   0.000  0.00  0.00     0.000 C 
ATOM     28  C   UNL d   1       0.539  -0.989   0.000  0.00  0.00     0.080 A 
ENDBRANCH  21  22
ENDBRANCH   5  21
TORSDOF 4
