REMARK  1 active torsions:
REMARK  status: ('A' for Active; 'I' for Inactive)
REMARK    1  A    between atoms: C_7  and  N_2 
ROOT
ATOM      1  C   UNL d   1       0.879   0.761   0.000  0.00  0.00     0.304 A 
ATOM      2  N   UNL d   1       0.386   0.078   0.000  0.00  0.00    -0.272 N 
ATOM      3  C   UNL d   1       0.386   1.444   0.000  0.00  0.00     0.253 A 
ATOM      4  C   UNL d   1      -0.386   0.321   0.000  0.00  0.00     0.070 A 
ATOM      5  C   UNL d   1      -0.386   1.146   0.000  0.00  0.00     0.060 A 
ATOM      6  O   UNL d   1       1.736   0.761   0.000  0.00  0.00    -0.263 OA
ATOM      7  O   UNL d   1       0.581   2.231   0.000  0.00  0.00    -0.281 OA
ATOM      8  C   UNL d   1      -1.050  -0.051   0.000  0.00  0.00     0.018 A 
ATOM      9  C   UNL d   1      -1.050   1.543   0.000  0.00  0.00     0.005 A 
ATOM     10  C   UNL d   1      -1.797   0.321   0.000  0.00  0.00     0.002 A 
ATOM     11  C   UNL d   1      -1.797   1.146   0.000  0.00  0.00     0.000 A 
ENDROOT
BRANCH   2  12
ATOM     12  C   UNL d   1       0.597  -0.707   0.000  0.00  0.00     0.067 A 
ATOM     13  C   UNL d   1       0.032  -1.296   0.000  0.00  0.00     0.018 A 
ATOM     14  C   UNL d   1       0.257  -2.092   0.000  0.00  0.00     0.002 A 
ATOM     15  C   UNL d   1       1.047  -2.285   0.000  0.00  0.00     0.000 A 
ATOM     16  C   UNL d   1       1.626  -1.690   0.000  0.00  0.00     0.002 A 
ATOM     17  C   UNL d   1       1.401  -0.900   0.000  0.00  0.00     0.018 A 
ENDBRANCH   2  12
TORSDOF 1
