REMARK  2 active torsions:
REMARK  status: ('A' for Active; 'I' for Inactive)
REMARK    1  A    between atoms: C_5  and  N_1 
REMARK    2  A    between atoms: C_7  and  C_5 
ROOT
ATOM      1  N   UNL d   1       2.197   2.831   0.000  0.00  0.00    -0.288 N 
ATOM      2  C   UNL d   1       2.691   3.486   0.000  0.00  0.00     0.183 A 
ATOM      3  N   UNL d   1       2.197   4.176   0.000  0.00  0.00    -0.224 NA
ATOM      4  C   UNL d   1       1.429   3.074   0.000  0.00  0.00     0.083 A 
ATOM      5  C   UNL d   1       1.429   3.928   0.000  0.00  0.00     0.099 A 
ATOM      6  C   UNL d   1       0.715   2.662   0.000  0.00  0.00     0.019 A 
ATOM      7  C   UNL d   1       0.685   4.311   0.000  0.00  0.00     0.021 A 
ATOM      8  C   UNL d   1       0.000   3.074   0.000  0.00  0.00     0.002 A 
ATOM      9  C   UNL d   1       0.000   3.899   0.000  0.00  0.00     0.002 A 
ENDROOT
BRANCH   1  10
ATOM     10  C   UNL d   1       1.785   2.148   0.000  0.00  0.00     0.066 C 
ATOM     11  C   UNL d   1       0.960   2.148   0.000  0.00  0.00     0.019 C 
BRANCH  10  12
ATOM     12  C   UNL d   1       2.197   1.434   0.000  0.00  0.00     0.016 A 
ATOM     13  C   UNL d   1       3.022   1.434   0.000  0.00  0.00     0.001 A 
ATOM     14  C   UNL d   1       3.435   0.719   0.000  0.00  0.00     0.000 A 
ATOM     15  C   UNL d   1       3.022   0.000   0.000  0.00  0.00     0.000 A 
ATOM     16  C   UNL d   1       2.197   0.000   0.000  0.00  0.00     0.000 A 
ATOM     17  C   UNL d   1       1.785   0.719   0.000  0.00  0.00     0.001 A 
ENDBRANCH  10  12
ENDBRANCH   1  10
TORSDOF 2
