REMARK  3 active torsions:
REMARK  status: ('A' for Active; 'I' for Inactive)
REMARK    1  A    between atoms: C_6  and  C_3 
REMARK    2  A    between atoms: C_9  and  C_6 
REMARK    3  A    between atoms: C_10  and  C_9 
ROOT
ATOM      1  N   UNL d   1       2.168   2.119   0.000  0.00  0.00    -0.225 NA
ATOM      2  N   UNL d   1       2.168   0.771   0.000  0.00  0.00    -0.225 NA
ATOM      3  C   UNL d   1       2.667   1.434   0.000  0.00  0.00     0.163 A 
ATOM      4  C   UNL d   1       1.402   1.871   0.000  0.00  0.00     0.101 A 
ATOM      5  C   UNL d   1       1.402   1.021   0.000  0.00  0.00     0.101 A 
ATOM      6  C   UNL d   1       0.658   2.229   0.000  0.00  0.00     0.021 A 
ATOM      7  C   UNL d   1       0.688   0.609   0.000  0.00  0.00     0.021 A 
ATOM      8  C   UNL d   1       0.000   1.846   0.000  0.00  0.00     0.002 A 
ATOM      9  C   UNL d   1       0.000   1.021   0.000  0.00  0.00     0.002 A 
ENDROOT
BRANCH   3  10
ATOM     10  C   UNL d   1       3.491   1.434   0.000  0.00  0.00     0.039 C 
BRANCH  10  11
ATOM     11  C   UNL d   1       3.904   0.719   0.000  0.00  0.00     0.003 C 
BRANCH  11  12
ATOM     12  C   UNL d   1       4.729   0.719   0.000  0.00  0.00     0.000 C 
ATOM     13  C   UNL d   1       5.141   0.000   0.000  0.00  0.00     0.000 C 
ENDBRANCH  11  12
ENDBRANCH  10  11
ENDBRANCH   3  10
TORSDOF 3
