REMARK  3 active torsions:
REMARK  status: ('A' for Active; 'I' for Inactive)
REMARK    1  A    between atoms: C_2  and  C_1 
REMARK    2  A    between atoms: N_5  and  C_2 
REMARK    3  A    between atoms: C_9  and  C_4 
ROOT
ATOM      1  C   UNL d   1       4.336  -2.122   0.000  0.00  0.00     0.126 A 
ATOM      2  O   UNL d   1       3.650  -2.579   0.000  0.00  0.00    -0.305 OA
ATOM      3  C   UNL d   1       3.007  -2.060   0.000  0.00  0.00     0.100 A 
ATOM      4  C   UNL d   1       4.111  -1.325   0.000  0.00  0.00     0.029 A 
ATOM      5  C   UNL d   1       3.301  -1.287   0.000  0.00  0.00     0.027 A 
ENDROOT
BRANCH   1   6
ATOM      6  C   UNL d   1       5.125  -2.334   0.000  0.00  0.00     0.143 C 
ATOM      7  S   UNL d   1       5.337  -3.131   0.000  0.00  0.00    -0.057 SA
BRANCH   6   8
ATOM      8  N   UNL d   1       5.710  -1.757   0.000  0.00  0.00    -0.290 N 
ATOM      9  C   UNL d   1       6.508  -1.968   0.000  0.00  0.00     0.108 A 
ATOM     10  C   UNL d   1       7.093  -1.383   0.000  0.00  0.00     0.142 A 
ATOM     11  O   UNL d   1       6.869  -0.590   0.000  0.00  0.00    -0.300 OA
ATOM     12  C   UNL d   1       6.072  -0.378   0.000  0.00  0.00     0.142 A 
ATOM     13  C   UNL d   1       5.498  -0.964   0.000  0.00  0.00     0.108 A 
ENDBRANCH   6   8
ENDBRANCH   1   6
BRANCH   3  14
ATOM     14  C   UNL d   1       2.222  -2.280   0.000  0.00  0.00     0.023 A 
ATOM     15  C   UNL d   1       1.636  -1.699   0.000  0.00  0.00     0.003 A 
ATOM     16  C   UNL d   1       0.847  -1.910   0.000  0.00  0.00     0.007 A 
ATOM     17  C   UNL d   1       0.627  -2.708   0.000  0.00  0.00     0.035 A 
ATOM     18  C   UNL d   1       1.213  -3.293   0.000  0.00  0.00     0.007 A 
ATOM     19 BR   UNL d   1      -0.170  -2.920   0.000  0.00  0.00    -0.049 Br
ATOM     20  C   UNL d   1       1.998  -3.082   0.000  0.00  0.00     0.003 A 
ENDBRANCH   3  14
TORSDOF 3
