REMARK  6 active torsions:
REMARK  status: ('A' for Active; 'I' for Inactive)
REMARK    1  A    between atoms: N_2  and  S_1 
REMARK    2  A    between atoms: C_3  and  S_1 
REMARK    3  A    between atoms: C_6  and  N_2 
REMARK    4  A    between atoms: C_12  and  C_6 
REMARK    5  A    between atoms: C_7  and  S_9 
REMARK    6  A    between atoms: S_9  and  C_12 
ROOT
ATOM      1  N   UNL d   1      -0.413  -1.488   0.000  0.00  0.00    -0.188 NA
ENDROOT
BRANCH   1   2
ATOM      2  S   UNL d   1      -1.127  -1.075   0.000  0.00  0.00     0.281 S 
ATOM      3  O   UNL d   1      -1.559  -1.789   0.000  0.00  0.00    -0.199 OA
ATOM      4  O   UNL d   1      -0.714  -0.361   0.000  0.00  0.00    -0.199 OA
BRANCH   2   5
ATOM      5  C   UNL d   1      -1.860  -0.651   0.000  0.00  0.00     0.105 A 
ATOM      6  C   UNL d   1      -1.860   0.175   0.000  0.00  0.00     0.014 A 
ATOM      7  C   UNL d   1      -2.556   0.580   0.000  0.00  0.00     0.012 A 
ATOM      8  C   UNL d   1      -3.288   0.175   0.000  0.00  0.00     0.058 A 
ATOM      9  C   UNL d   1      -3.270  -0.651   0.000  0.00  0.00     0.012 A 
ATOM     10 CL   UNL d   1      -4.018   0.580   0.000  0.00  0.00    -0.082 Cl
ATOM     11  C   UNL d   1      -2.556  -1.060   0.000  0.00  0.00     0.014 A 
ENDBRANCH   2   5
ENDBRANCH   1   2
BRANCH   1  12
ATOM     12  C   UNL d   1       0.301  -1.075   0.000  0.00  0.00     0.107 C 
ATOM     13  C   UNL d   1      -0.108  -0.361   0.000  0.00  0.00     0.026 C 
ATOM     14  C   UNL d   1       0.714  -1.812   0.000  0.00  0.00     0.026 C 
BRANCH  12  15
ATOM     15  C   UNL d   1       1.016  -0.670   0.000  0.00  0.00     0.087 C 
BRANCH  15  16
ATOM     16  S   UNL d   1       1.030   0.152   0.000  0.00  0.00    -0.093 SA
BRANCH  16  17
ATOM     17  C   UNL d   1       1.730   0.565   0.000  0.00  0.00     0.107 A 
ATOM     18  N   UNL d   1       1.730   1.384   0.000  0.00  0.00    -0.238 NA
ATOM     19  C   UNL d   1       2.425   1.804   0.000  0.00  0.00     0.100 A 
ATOM     20  C   UNL d   1       3.158   1.384   0.000  0.00  0.00     0.021 A 
ATOM     21  C   UNL d   1       3.158   0.565   0.000  0.00  0.00     0.004 A 
ATOM     22  C   UNL d   1       2.444   0.152   0.000  0.00  0.00     0.025 A 
ENDBRANCH  16  17
ENDBRANCH  15  16
ENDBRANCH  12  15
ENDBRANCH   1  12
TORSDOF 6
