REMARK  2 active torsions:
REMARK  status: ('A' for Active; 'I' for Inactive)
REMARK    1  A    between atoms: N_10  and  C_5 
REMARK    2  A    between atoms: C_22  and  N_12 
ROOT
ATOM      1  N   UNL d   1      -0.498   0.427   0.000  0.00  0.00    -0.175 N 
ATOM      2  C   UNL d   1      -0.498   1.258   0.000  0.00  0.00     0.167 A 
ATOM      3  N   UNL d   1       0.220   0.000   0.000  0.00  0.00    -0.143 NA
ATOM      4  C   UNL d   1      -1.211   0.000   0.000  0.00  0.00     0.283 A 
ATOM      5  C   UNL d   1       0.932   0.427   0.000  0.00  0.00     0.168 A 
ATOM      6  N   UNL d   1      -1.211   1.656   0.000  0.00  0.00    -0.227 NA
ATOM      7  C   UNL d   1      -1.923   0.427   0.000  0.00  0.00     0.076 A 
ATOM      8  C   UNL d   1       0.220   1.656   0.000  0.00  0.00     0.039 A 
ATOM      9  C   UNL d   1       0.932   1.258   0.000  0.00  0.00     0.039 A 
ATOM     10  C   UNL d   1      -1.923   1.258   0.000  0.00  0.00     0.088 A 
ATOM     11  O   UNL d   1      -1.211  -0.807   0.000  0.00  0.00    -0.265 OA
ATOM     12  C   UNL d   1      -2.635   0.000   0.000  0.00  0.00     0.006 A 
ATOM     13  C   UNL d   1       0.220   2.487   0.000  0.00  0.00     0.003 A 
ATOM     14  C   UNL d   1       1.644   1.656   0.000  0.00  0.00     0.003 A 
ATOM     15  C   UNL d   1      -2.635   1.656   0.000  0.00  0.00     0.019 A 
ATOM     16  C   UNL d   1      -3.347   0.427   0.000  0.00  0.00     0.000 A 
ATOM     17  C   UNL d   1       0.932   2.878   0.000  0.00  0.00     0.000 A 
ATOM     18  C   UNL d   1       1.644   2.487   0.000  0.00  0.00     0.000 A 
ATOM     19  C   UNL d   1      -3.347   1.258   0.000  0.00  0.00     0.002 A 
ENDROOT
BRANCH   5  20
ATOM     20  N   UNL d   1       1.644   0.000   0.000  0.00  0.00    -0.285 N 
ATOM     21  C   UNL d   1       1.644  -0.807   0.000  0.00  0.00     0.101 A 
ATOM     22  C   UNL d   1       2.356  -1.211   0.000  0.00  0.00     0.100 A 
ATOM     23  N   UNL d   1       3.068  -0.807   0.000  0.00  0.00    -0.300 N 
ATOM     24  C   UNL d   1       3.068   0.000   0.000  0.00  0.00     0.100 A 
ATOM     25  C   UNL d   1       2.356   0.427   0.000  0.00  0.00     0.101 A 
BRANCH  23  26
ATOM     26  C   UNL d   1       3.781  -1.211   0.000  0.00  0.00     0.080 C 
ATOM     27  C   UNL d   1       3.781  -2.036   0.000  0.00  0.00     0.021 C 
ENDBRANCH  23  26
ENDBRANCH   5  20
TORSDOF 2
