REMARK  3 active torsions:
REMARK  status: ('A' for Active; 'I' for Inactive)
REMARK    1  A    between atoms: N_3  and  C_1 
REMARK    2  A    between atoms: C_8  and  N_2 
REMARK       I    between atoms: C_4  and  N_3 
REMARK    3  A    between atoms: C_7  and  C_4 
ROOT
ATOM      1  C   UNL d   1       2.494  -2.102   0.000  0.00  0.00     0.185 A 
ATOM      2  N   UNL d   1       2.231  -1.306   0.000  0.00  0.00    -0.254 N 
ATOM      3  S   UNL d   1       1.831  -2.582   0.000  0.00  0.00    -0.044 SA
ATOM      4  C   UNL d   1       1.418  -1.318   0.000  0.00  0.00     0.273 A 
ATOM      5  C   UNL d   1       1.168  -2.102   0.000  0.00  0.00     0.099 A 
ATOM      6  O   UNL d   1       0.930  -0.651   0.000  0.00  0.00    -0.266 OA
ENDROOT
BRANCH   1   7
ATOM      7  N   UNL d   1       3.283  -2.357   0.000  0.00  0.00    -0.182 NA
ATOM      8  C   UNL d   1       3.458  -3.157   0.000  0.00  0.00     0.304 C 
ATOM      9  O   UNL d   1       2.845  -3.716   0.000  0.00  0.00    -0.263 OA
BRANCH   8  10
ATOM     10  C   UNL d   1       4.246  -3.416   0.000  0.00  0.00     0.158 A 
ATOM     11  O   UNL d   1       4.905  -2.928   0.000  0.00  0.00    -0.300 OA
ATOM     12  C   UNL d   1       5.572  -3.416   0.000  0.00  0.00     0.123 A 
ATOM     13  C   UNL d   1       5.318  -4.196   0.000  0.00  0.00     0.029 A 
ATOM     14  C   UNL d   1       4.505  -4.208   0.000  0.00  0.00     0.032 A 
ENDBRANCH   8  10
ENDBRANCH   1   7
BRANCH   2  15
ATOM     15  C   UNL d   1       2.719  -0.638   0.000  0.00  0.00     0.069 A 
ATOM     16  C   UNL d   1       2.369   0.108   0.000  0.00  0.00     0.018 A 
ATOM     17  C   UNL d   1       2.853   0.784   0.000  0.00  0.00     0.002 A 
ATOM     18  C   UNL d   1       3.679   0.701   0.000  0.00  0.00     0.000 A 
ATOM     19  C   UNL d   1       4.021  -0.050   0.000  0.00  0.00     0.002 A 
ATOM     20  C   UNL d   1       3.541  -0.717   0.000  0.00  0.00     0.018 A 
ENDBRANCH   2  15
TORSDOF 3
