REMARK  7 active torsions:
REMARK  status: ('A' for Active; 'I' for Inactive)
REMARK    1  A    between atoms: S_7  and  C_1 
REMARK    2  A    between atoms: C_6  and  C_8 
REMARK       I    between atoms: N_10  and  C_6 
REMARK    3  A    between atoms: C_13  and  S_7 
REMARK    4  A    between atoms: C_21  and  N_10 
REMARK    5  A    between atoms: C_14  and  C_13 
REMARK    6  A    between atoms: C_17  and  C_21 
REMARK    7  A    between atoms: C_22  and  C_17 
ROOT
ATOM      1  C   UNL d   1      -1.282  -0.037   0.000  0.00  0.00     0.058 A 
ATOM      2  C   UNL d   1      -1.690   0.669   0.000  0.00  0.00     0.005 A 
ATOM      3  C   UNL d   1      -1.711  -0.759   0.000  0.00  0.00     0.005 A 
ATOM      4  C   UNL d   1      -2.945  -0.037   0.000  0.00  0.00     0.007 A 
ATOM      5  C   UNL d   1      -2.511  -0.759   0.000  0.00  0.00     0.001 A 
ATOM      6  C   UNL d   1      -2.511   0.669   0.000  0.00  0.00     0.001 A 
ENDROOT
BRANCH   4   7
ATOM      7  C   UNL d   1      -3.745  -0.037   0.000  0.00  0.00     0.038 C 
BRANCH   7   8
ATOM      8  S   UNL d   1      -4.169   0.691   0.000  0.00  0.00    -0.048 SA
BRANCH   8   9
ATOM      9  C   UNL d   1      -5.001   0.691   0.000  0.00  0.00     0.194 A 
ATOM     10  N   UNL d   1      -5.477   0.016   0.000  0.00  0.00    -0.220 NA
ATOM     11  C   UNL d   1      -6.256   0.267   0.000  0.00  0.00     0.101 A 
ATOM     12  C   UNL d   1      -6.963  -0.131   0.000  0.00  0.00     0.021 A 
ATOM     13  C   UNL d   1      -6.256   1.093   0.000  0.00  0.00     0.101 A 
ATOM     14  C   UNL d   1      -7.648   0.267   0.000  0.00  0.00     0.002 A 
ATOM     15  C   UNL d   1      -7.648   1.093   0.000  0.00  0.00     0.002 A 
ATOM     16  C   UNL d   1      -6.963   1.522   0.000  0.00  0.00     0.021 A 
ATOM     17  N   UNL d   1      -5.477   1.344   0.000  0.00  0.00    -0.220 NA
ENDBRANCH   8   9
ENDBRANCH   7   8
ENDBRANCH   4   7
BRANCH   1  18
ATOM     18  C   UNL d   1      -0.455  -0.005   0.000  0.00  0.00     0.279 C 
ATOM     19  O   UNL d   1      -0.026  -0.712   0.000  0.00  0.00    -0.265 OA
ATOM     20  N   UNL d   1      -0.058   0.717   0.000  0.00  0.00    -0.206 NA
BRANCH  20  21
ATOM     21  C   UNL d   1      -0.481   1.423   0.000  0.00  0.00     0.106 C 
BRANCH  21  22
ATOM     22  C   UNL d   1      -0.079   2.150   0.000  0.00  0.00     0.066 C 
BRANCH  22  23
ATOM     23  C   UNL d   1      -0.502   2.851   0.000  0.00  0.00     0.236 C 
ATOM     24  O   UNL d   1      -0.105   3.578   0.000  0.00  0.00    -0.283 OA
ENDBRANCH  22  23
ENDBRANCH  21  22
ENDBRANCH  20  21
ENDBRANCH   1  18
TORSDOF 7
