REMARK  4 active torsions:
REMARK  status: ('A' for Active; 'I' for Inactive)
REMARK    1  A    between atoms: C_2  and  C_1 
REMARK    2  A    between atoms: C_3  and  C_4 
REMARK       I    between atoms: N_12  and  C_3 
REMARK    3  A    between atoms: C_4  and  C_5 
REMARK    4  A    between atoms: C_5  and  C_11 
ROOT
ATOM      1  C   UNL d   1       1.971  -1.879   0.000  0.00  0.00     0.071 A 
ATOM      2  C   UNL d   1       2.685  -1.466   0.000  0.00  0.00     0.004 A 
ATOM      3  C   UNL d   1       3.399  -1.879   0.000  0.00  0.00     0.000 A 
ATOM      4  C   UNL d   1       1.971  -2.710   0.000  0.00  0.00     0.004 A 
ATOM      5  C   UNL d   1       2.685  -3.123   0.000  0.00  0.00    -0.000 A 
ATOM      6  C   UNL d   1       3.399  -2.710   0.000  0.00  0.00    -0.000 A 
ENDROOT
BRANCH   3   7
ATOM      7  C   UNL d   1       4.113  -1.457   0.000  0.00  0.00     0.005 C 
BRANCH   7   8
ATOM      8  C   UNL d   1       4.835  -1.871   0.000  0.00  0.00     0.062 C 
BRANCH   8   9
ATOM      9  C   UNL d   1       5.549  -1.457   0.000  0.00  0.00     0.279 C 
ATOM     10  O   UNL d   1       5.541  -0.630   0.000  0.00  0.00    -0.265 OA
ATOM     11  N   UNL d   1       6.267  -1.866   0.000  0.00  0.00    -0.205 NA
ATOM     12  C   UNL d   1       6.981  -1.445   0.000  0.00  0.00     0.123 C 
ENDBRANCH   8   9
ENDBRANCH   7   8
ENDBRANCH   3   7
BRANCH   1  13
ATOM     13  C   UNL d   1       1.257  -1.470   0.000  0.00  0.00     0.419 C 
ATOM     14  F   UNL d   1       1.119  -0.606   0.000  0.00  0.00    -0.166 F 
ATOM     15  F   UNL d   1       0.451  -1.770   0.000  0.00  0.00    -0.166 F 
ATOM     16  F   UNL d   1       0.606  -1.090   0.000  0.00  0.00    -0.166 F 
ENDBRANCH   1  13
TORSDOF 4
