REMARK  9 active torsions:
REMARK  status: ('A' for Active; 'I' for Inactive)
REMARK       I    between atoms: C_5  and  N_1 
REMARK    1  A    between atoms: C_6  and  N_1 
REMARK    2  A    between atoms: C_7  and  C_3 
REMARK    3  A    between atoms: C_8  and  C_4 
REMARK    4  A    between atoms: C_17  and  C_5 
REMARK    5  A    between atoms: N_9  and  C_6 
REMARK    6  A    between atoms: N_14  and  N_9 
REMARK       I    between atoms: C_10  and  N_14 
REMARK    7  A    between atoms: C_20  and  C_10 
REMARK    8  A    between atoms: C_16  and  C_21 
REMARK    9  A    between atoms: C_21  and  C_20 
ROOT
ATOM      1  C   UNL d   1      -0.308  -1.248   0.000  0.00  0.00     0.064 C 
ENDROOT
BRANCH   1   2
ATOM      2  C   UNL d   1       0.405  -1.653   0.000  0.00  0.00     0.297 C 
ATOM      3  N   UNL d   1       1.119  -1.248   0.000  0.00  0.00    -0.103 NA
ATOM      4  O   UNL d   1       0.390  -2.478   0.000  0.00  0.00    -0.264 OA
BRANCH   3   5
ATOM      5  N   UNL d   1       1.141  -0.427   0.000  0.00  0.00    -0.114 NA
BRANCH   5   6
ATOM      6  C   UNL d   1       1.832  -0.015   0.000  0.00  0.00     0.243 C 
ATOM      7  S   UNL d   1       1.832   0.803   0.000  0.00  0.00    -0.035 SA
BRANCH   6   8
ATOM      8  N   UNL d   1       2.545  -0.427   0.000  0.00  0.00    -0.177 NA
ATOM      9  C   UNL d   1       3.255  -0.015   0.000  0.00  0.00     0.281 C 
ATOM     10  O   UNL d   1       3.270   0.803   0.000  0.00  0.00    -0.265 OA
BRANCH   9  11
ATOM     11  C   UNL d   1       3.957  -0.435   0.000  0.00  0.00     0.058 A 
ATOM     12  C   UNL d   1       4.686  -0.045   0.000  0.00  0.00     0.005 A 
ATOM     13  C   UNL d   1       5.399  -0.461   0.000  0.00  0.00     0.000 A 
ATOM     14  C   UNL d   1       5.384  -1.293   0.000  0.00  0.00     0.000 A 
ATOM     15  C   UNL d   1       4.663  -1.694   0.000  0.00  0.00     0.000 A 
ATOM     16  C   UNL d   1       3.957  -1.263   0.000  0.00  0.00     0.005 A 
ENDBRANCH   9  11
ENDBRANCH   6   8
ENDBRANCH   5   6
ENDBRANCH   3   5
ENDBRANCH   1   2
BRANCH   1  17
ATOM     17  C   UNL d   1      -0.308  -0.427   0.000  0.00  0.00     0.005 C 
BRANCH  17  18
ATOM     18  C   UNL d   1      -1.022   0.000   0.000  0.00  0.00    -0.000 A 
ATOM     19  C   UNL d   1      -1.735  -0.405   0.000  0.00  0.00    -0.001 A 
ATOM     20  C   UNL d   1      -2.449   0.000   0.000  0.00  0.00     0.016 A 
ATOM     21  C   UNL d   1      -2.449   0.821   0.000  0.00  0.00     0.188 A 
ATOM     22  C   UNL d   1      -1.735   1.248   0.000  0.00  0.00     0.016 A 
ATOM     23  O   UNL d   1      -3.177   1.248   0.000  0.00  0.00    -0.287 OA
ATOM     24  C   UNL d   1      -1.022   0.821   0.000  0.00  0.00    -0.001 A 
BRANCH  20  25
ATOM     25  C   UNL d   1      -3.162  -0.405   0.000  0.00  0.00     0.022 C 
ATOM     26  C   UNL d   1      -3.586   0.308   0.000  0.00  0.00     0.004 C 
ATOM     27  C   UNL d   1      -2.750  -1.141   0.000  0.00  0.00     0.004 C 
ATOM     28  C   UNL d   1      -3.890  -0.836   0.000  0.00  0.00     0.004 C 
ENDBRANCH  20  25
BRANCH  22  29
ATOM     29  C   UNL d   1      -1.713   2.070   0.000  0.00  0.00     0.022 C 
ATOM     30  C   UNL d   1      -0.892   2.051   0.000  0.00  0.00     0.004 C 
ATOM     31  C   UNL d   1      -2.538   2.092   0.000  0.00  0.00     0.004 C 
ATOM     32  C   UNL d   1      -1.702   2.894   0.000  0.00  0.00     0.004 C 
ENDBRANCH  22  29
ENDBRANCH  17  18
ENDBRANCH   1  17
TORSDOF 9
