REMARK  1 active torsions:
REMARK  status: ('A' for Active; 'I' for Inactive)
REMARK    1  A    between atoms: C_6  and  C_1 
ROOT
ATOM      1  C   UNL d   1      -0.797   1.070   0.000  0.00  0.00     0.085 A 
ATOM      2  C   UNL d   1      -0.529   0.286   0.000  0.00  0.00     0.137 A 
ATOM      3  C   UNL d   1      -1.605   1.070   0.000  0.00  0.00     0.013 A 
ATOM      4  C   UNL d   1      -1.843   0.286   0.000  0.00  0.00     0.031 A 
ATOM      5  S   UNL d   1      -1.168  -0.189   0.000  0.00  0.00    -0.066 SA
ATOM      6  C   UNL d   1      -2.165   1.678   0.000  0.00  0.00     0.001 A 
ATOM      7  C   UNL d   1      -2.627   0.103   0.000  0.00  0.00     0.006 A 
ATOM      8  N   UNL d   1       0.292   0.018   0.000  0.00  0.00    -0.141 N 
ATOM      9  C   UNL d   1      -2.949   1.508   0.000  0.00  0.00     0.000 A 
ATOM     10  C   UNL d   1      -3.187   0.687   0.000  0.00  0.00     0.001 A 
ATOM     11  C   UNL d   1      -4.032   0.486   0.000  0.00  0.00     0.000 C 
ENDROOT
BRANCH   1  12
ATOM     12  C   UNL d   1      -0.292   1.745   0.000  0.00  0.00     0.299 C 
ATOM     13  O   UNL d   1      -0.614   2.499   0.000  0.00  0.00    -0.264 OA
ATOM     14  N   UNL d   1       0.553   1.654   0.000  0.00  0.00    -0.102 N 
ENDBRANCH   1  12
TORSDOF 1
