REMARK  2 active torsions:
REMARK  status: ('A' for Active; 'I' for Inactive)
REMARK    1  A    between atoms: C_6  and  C_1 
REMARK    2  A    between atoms: C_7  and  C_5 
ROOT
ATOM      1  C   UNL d   1       0.205   0.332   0.000  0.00  0.00     0.085 A 
ATOM      2  C   UNL d   1       0.582  -0.403   0.000  0.00  0.00     0.137 A 
ATOM      3  C   UNL d   1      -0.600   0.224   0.000  0.00  0.00     0.013 A 
ATOM      4  S   UNL d   1      -0.011  -0.973   0.000  0.00  0.00    -0.066 SA
ATOM      5  C   UNL d   1      -0.727  -0.597   0.000  0.00  0.00     0.031 A 
ATOM      6  N   UNL d   1       1.402  -0.507   0.000  0.00  0.00    -0.141 N 
ENDROOT
BRANCH   5   7
ATOM      7  C   UNL d   1      -1.477  -0.921   0.000  0.00  0.00     0.006 A 
ATOM      8  C   UNL d   1      -1.566  -1.727   0.000  0.00  0.00     0.001 A 
ATOM      9  C   UNL d   1      -2.323  -2.062   0.000  0.00  0.00     0.000 A 
ATOM     10  C   UNL d   1      -2.983  -1.581   0.000  0.00  0.00     0.000 A 
ATOM     11  C   UNL d   1      -2.894  -0.761   0.000  0.00  0.00     0.000 A 
ATOM     12  C   UNL d   1      -2.144  -0.436   0.000  0.00  0.00     0.001 A 
ENDBRANCH   5   7
BRANCH   1  13
ATOM     13  C   UNL d   1       0.582   1.085   0.000  0.00  0.00     0.299 C 
ATOM     14  O   UNL d   1       0.134   1.764   0.000  0.00  0.00    -0.264 OA
ATOM     15  N   UNL d   1       1.402   1.119   0.000  0.00  0.00    -0.102 N 
ENDBRANCH   1  13
TORSDOF 2
