REMARK  2 active torsions:
REMARK  status: ('A' for Active; 'I' for Inactive)
REMARK    1  A    between atoms: C_4  and  C_1 
REMARK    2  A    between atoms: C_2  and  C_7 
ROOT
ATOM      1  C   UNL d   1       3.712  -1.157   0.000  0.00  0.00     0.003 A 
ATOM      2  C   UNL d   1       5.140  -1.169   0.000  0.00  0.00     0.071 A 
ATOM      3  C   UNL d   1       4.426  -1.578   0.000  0.00  0.00     0.004 A 
ATOM      4  C   UNL d   1       3.712  -0.338   0.000  0.00  0.00     0.000 A 
ATOM      5  C   UNL d   1       5.148  -0.342   0.000  0.00  0.00     0.004 A 
ATOM      6  C   UNL d   1       4.426   0.075   0.000  0.00  0.00    -0.000 A 
ENDROOT
BRANCH   1   7
ATOM      7  C   UNL d   1       2.998  -1.570   0.000  0.00  0.00     0.042 A 
ATOM      8  C   UNL d   1       2.998  -2.397   0.000  0.00  0.00     0.045 A 
ATOM      9  C   UNL d   1       2.284  -2.810   0.000  0.00  0.00     0.196 A 
ATOM     10  O   UNL d   1       2.284  -3.637   0.000  0.00  0.00    -0.287 OA
ATOM     11  C   UNL d   1       1.570  -2.397   0.000  0.00  0.00     0.045 A 
ATOM     12  C   UNL d   1       1.570  -1.570   0.000  0.00  0.00     0.045 A 
ATOM     13  C   UNL d   1       2.284  -1.157   0.000  0.00  0.00     0.196 A 
ATOM     14  O   UNL d   1       2.284  -0.330   0.000  0.00  0.00    -0.287 OA
ENDBRANCH   1   7
BRANCH   2  15
ATOM     15  C   UNL d   1       5.854  -1.583   0.000  0.00  0.00     0.419 C 
ATOM     16  F   UNL d   1       6.505  -1.958   0.000  0.00  0.00    -0.166 F 
ATOM     17  F   UNL d   1       5.992  -2.434   0.000  0.00  0.00    -0.166 F 
ATOM     18  F   UNL d   1       6.668  -1.278   0.000  0.00  0.00    -0.166 F 
ENDBRANCH   2  15
TORSDOF 2
