REMARK  2 active torsions:
REMARK  status: ('A' for Active; 'I' for Inactive)
REMARK    1  A    between atoms: C_5  and  C_1 
REMARK    2  A    between atoms: O_15  and  C_12 
ROOT
ATOM      1  C   UNL d   1       2.998  -1.570   0.000  0.00  0.00     0.042 A 
ATOM      2  C   UNL d   1       2.998  -2.397   0.000  0.00  0.00     0.045 A 
ATOM      3  C   UNL d   1       2.284  -1.157   0.000  0.00  0.00     0.196 A 
ATOM      4  C   UNL d   1       1.570  -1.570   0.000  0.00  0.00     0.045 A 
ATOM      5  C   UNL d   1       2.284  -2.810   0.000  0.00  0.00     0.196 A 
ATOM      6  C   UNL d   1       1.570  -2.397   0.000  0.00  0.00     0.045 A 
ATOM      7  O   UNL d   1       2.284  -0.330   0.000  0.00  0.00    -0.287 OA
ATOM      8  O   UNL d   1       2.284  -3.637   0.000  0.00  0.00    -0.287 OA
ENDROOT
BRANCH   1   9
ATOM      9  C   UNL d   1       3.712  -1.157   0.000  0.00  0.00     0.003 A 
ATOM     10  C   UNL d   1       4.426  -1.578   0.000  0.00  0.00     0.002 A 
ATOM     11  C   UNL d   1       5.140  -1.169   0.000  0.00  0.00     0.024 A 
ATOM     12  C   UNL d   1       5.148  -0.342   0.000  0.00  0.00     0.094 A 
ATOM     13  C   UNL d   1       4.426   0.075   0.000  0.00  0.00     0.024 A 
ATOM     14  C   UNL d   1       3.712  -0.338   0.000  0.00  0.00     0.002 A 
BRANCH  12  15
ATOM     15  O   UNL d   1       5.866   0.071   0.000  0.00  0.00    -0.328 OA
ATOM     16  C   UNL d   1       5.866   0.898   0.000  0.00  0.00     0.181 C 
ENDBRANCH  12  15
ENDBRANCH   1   9
TORSDOF 2
