REMARK  3 active torsions:
REMARK  status: ('A' for Active; 'I' for Inactive)
REMARK    1  A    between atoms: N_6  and  C_2 
REMARK    2  A    between atoms: C_7  and  C_5 
REMARK    3  A    between atoms: C_9  and  C_7 
ROOT
ATOM      1  N   UNL d   1       1.879   1.021   0.000  0.00  0.00    -0.183 NA
ATOM      2  C   UNL d   1       2.249   0.287   0.000  0.00  0.00     0.183 A 
ATOM      3  S   UNL d   1       1.666  -0.292   0.000  0.00  0.00    -0.045 SA
ATOM      4  C   UNL d   1       1.066   0.896   0.000  0.00  0.00     0.287 A 
ATOM      5  C   UNL d   1       0.929   0.083   0.000  0.00  0.00     0.090 A 
ATOM      6  O   UNL d   1       0.487   1.483   0.000  0.00  0.00    -0.265 OA
ENDROOT
BRANCH   5   7
ATOM      7  C   UNL d   1       0.192  -0.287   0.000  0.00  0.00     0.011 C 
BRANCH   7   8
ATOM      8  C   UNL d   1      -0.496   0.163   0.000  0.00  0.00     0.001 A 
ATOM      9  C   UNL d   1      -1.233  -0.217   0.000  0.00  0.00     0.001 A 
ATOM     10  C   UNL d   1      -1.925   0.233   0.000  0.00  0.00     0.011 A 
ATOM     11  C   UNL d   1      -1.883   1.058   0.000  0.00  0.00     0.058 A 
ATOM     12  C   UNL d   1      -1.150   1.433   0.000  0.00  0.00     0.011 A 
ATOM     13 CL   UNL d   1      -2.599   1.470   0.000  0.00  0.00    -0.082 Cl
ATOM     14  C   UNL d   1      -0.458   0.996   0.000  0.00  0.00     0.001 A 
ENDBRANCH   7   8
ENDBRANCH   5   7
BRANCH   2  15
ATOM     15  N   UNL d   1       3.079   0.283   0.000  0.00  0.00    -0.280 N 
ATOM     16  C   UNL d   1       3.491  -0.429   0.000  0.00  0.00     0.109 A 
ATOM     17  C   UNL d   1       4.324  -0.429   0.000  0.00  0.00     0.142 A 
ATOM     18  O   UNL d   1       4.728   0.287   0.000  0.00  0.00    -0.300 OA
ATOM     19  C   UNL d   1       4.311   1.008   0.000  0.00  0.00     0.142 A 
ATOM     20  C   UNL d   1       3.491   1.000   0.000  0.00  0.00     0.109 A 
ENDBRANCH   2  15
TORSDOF 3
