REMARK  4 active torsions:
REMARK  status: ('A' for Active; 'I' for Inactive)
REMARK    1  A    between atoms: N_2  and  S_1 
REMARK    2  A    between atoms: C_3  and  S_1 
REMARK       I    between atoms: C_5  and  N_4 
REMARK    3  A    between atoms: O_17  and  C_5 
REMARK    4  A    between atoms: C_18  and  O_17 
ROOT
ATOM      1  N   UNL d   1      -0.672   0.470   0.000  0.00  0.00    -0.226 N 
ATOM      2  N   UNL d   1       0.997   0.470   0.000  0.00  0.00    -0.248 N 
ATOM      3  C   UNL d   1       1.822   0.455   0.000  0.00  0.00     0.378 C 
ATOM      4  C   UNL d   1      -0.248  -0.244   0.000  0.00  0.00     0.111 A 
ATOM      5  C   UNL d   1      -0.248   1.188   0.000  0.00  0.00     0.111 A 
ATOM      6  C   UNL d   1       0.577   1.188   0.000  0.00  0.00     0.105 A 
ATOM      7  C   UNL d   1       0.577  -0.244   0.000  0.00  0.00     0.105 A 
ATOM      8  O   UNL d   1       2.227  -0.264   0.000  0.00  0.00    -0.237 OA
ENDROOT
BRANCH   1   9
ATOM      9  S   UNL d   1      -1.497   0.470   0.000  0.00  0.00     0.277 S 
ATOM     10  O   UNL d   1      -1.497   1.295   0.000  0.00  0.00    -0.199 OA
ATOM     11  O   UNL d   1      -1.497  -0.370   0.000  0.00  0.00    -0.199 OA
BRANCH   9  12
ATOM     12  C   UNL d   1      -2.311   0.477   0.000  0.00  0.00     0.133 A 
ATOM     13  S   UNL d   1      -2.761  -0.172   0.000  0.00  0.00    -0.074 SA
ATOM     14  C   UNL d   1      -3.560   0.065   0.000  0.00  0.00     0.036 A 
ATOM     15  C   UNL d   1      -3.575   0.901   0.000  0.00  0.00     0.008 A 
ATOM     16  C   UNL d   1      -2.815   1.157   0.000  0.00  0.00     0.020 A 
ENDBRANCH   9  12
ENDBRANCH   1   9
BRANCH   3  17
ATOM     17  O   UNL d   1       2.227   1.165   0.000  0.00  0.00    -0.257 OA
BRANCH  17  18
ATOM     18  C   UNL d   1       3.052   1.165   0.000  0.00  0.00     0.128 C 
ATOM     19  C   UNL d   1       3.472   1.864   0.000  0.00  0.00     0.029 C 
ENDBRANCH  17  18
ENDBRANCH   3  17
TORSDOF 4
