REMARK  6 active torsions:
REMARK  status: ('A' for Active; 'I' for Inactive)
REMARK    1  A    between atoms: C_2  and  C_1 
REMARK    2  A    between atoms: C_3  and  C_1 
REMARK    3  A    between atoms: N_4  and  C_1 
REMARK       I    between atoms: N_9  and  C_2 
REMARK    4  A    between atoms: C_7  and  C_3 
REMARK       I    between atoms: C_8  and  N_4 
REMARK    5  A    between atoms: C_14  and  C_5 
REMARK    6  A    between atoms: C_15  and  C_8 
ROOT
ATOM      1  C   UNL d   1       4.977  -1.766   0.000  0.00  0.00     0.143 C 
ENDROOT
BRANCH   1   2
ATOM      2  C   UNL d   1       5.689  -2.191   0.000  0.00  0.00     0.283 C 
ATOM      3  N   UNL d   1       5.685  -3.015   0.000  0.00  0.00    -0.267 N 
ATOM      4  C   UNL d   1       4.964  -3.423   0.000  0.00  0.00     0.110 A 
ATOM      5  C   UNL d   1       6.389  -3.436   0.000  0.00  0.00     0.110 A 
ATOM      6  C   UNL d   1       4.960  -4.252   0.000  0.00  0.00     0.142 A 
ATOM      7  O   UNL d   1       5.672  -4.664   0.000  0.00  0.00    -0.300 OA
ATOM      8  C   UNL d   1       6.389  -4.252   0.000  0.00  0.00     0.142 A 
ATOM      9  O   UNL d   1       6.409  -1.778   0.000  0.00  0.00    -0.265 OA
ENDBRANCH   1   2
BRANCH   1  10
ATOM     10  C   UNL d   1       4.340  -2.291   0.000  0.00  0.00     0.049 C 
BRANCH  10  11
ATOM     11  C   UNL d   1       3.565  -2.003   0.000  0.00  0.00     0.102 A 
ATOM     12  O   UNL d   1       2.886  -2.453   0.000  0.00  0.00    -0.307 OA
ATOM     13  C   UNL d   1       2.241  -1.928   0.000  0.00  0.00     0.100 A 
ATOM     14  C   UNL d   1       2.536  -1.162   0.000  0.00  0.00     0.027 A 
ATOM     15  C   UNL d   1       3.436  -1.191   0.000  0.00  0.00     0.027 A 
BRANCH  13  16
ATOM     16  C   UNL d   1       1.449  -2.153   0.000  0.00  0.00     0.023 A 
ATOM     17  C   UNL d   1       0.866  -1.566   0.000  0.00  0.00     0.002 A 
ATOM     18  C   UNL d   1       0.067  -1.778   0.000  0.00  0.00     0.000 A 
ATOM     19  C   UNL d   1      -0.146  -2.578   0.000  0.00  0.00     0.000 A 
ATOM     20  C   UNL d   1       0.437  -3.165   0.000  0.00  0.00     0.000 A 
ATOM     21  C   UNL d   1       1.229  -2.953   0.000  0.00  0.00     0.002 A 
ENDBRANCH  13  16
ENDBRANCH  10  11
ENDBRANCH   1  10
BRANCH   1  22
ATOM     22  N   UNL d   1       4.839  -0.954   0.000  0.00  0.00    -0.203 NA
ATOM     23  C   UNL d   1       5.252  -0.242   0.000  0.00  0.00     0.279 C 
ATOM     24  O   UNL d   1       4.827   0.471   0.000  0.00  0.00    -0.265 OA
BRANCH  23  25
ATOM     25  C   UNL d   1       6.072  -0.229   0.000  0.00  0.00     0.058 A 
ATOM     26  C   UNL d   1       6.489  -0.941   0.000  0.00  0.00     0.005 A 
ATOM     27  C   UNL d   1       7.313  -0.929   0.000  0.00  0.00     0.000 A 
ATOM     28  C   UNL d   1       7.721  -0.212   0.000  0.00  0.00     0.000 A 
ATOM     29  C   UNL d   1       7.296   0.500   0.000  0.00  0.00     0.000 A 
ATOM     30  C   UNL d   1       6.472   0.487   0.000  0.00  0.00     0.005 A 
ENDBRANCH  23  25
ENDBRANCH   1  22
TORSDOF 6
