REMARK  3 active torsions:
REMARK  status: ('A' for Active; 'I' for Inactive)
REMARK    1  A    between atoms: C_2  and  C_3 
REMARK    2  A    between atoms: C_5  and  C_2 
REMARK    3  A    between atoms: C_3  and  C_6 
ROOT
ATOM      1  N   UNL d   1      -0.164   1.409   0.000  0.00  0.00    -0.246 NA
ATOM      2  C   UNL d   1      -0.876   1.824   0.000  0.00  0.00     0.081 A 
ATOM      3  C   UNL d   1       0.553   1.845   0.000  0.00  0.00     0.081 A 
ATOM      4  C   UNL d   1      -0.876   2.659   0.000  0.00  0.00     0.018 A 
ATOM      5  C   UNL d   1      -0.164   3.054   0.000  0.00  0.00     0.003 A 
ATOM      6  C   UNL d   1       0.553   2.639   0.000  0.00  0.00     0.019 A 
ATOM      7  C   UNL d   1      -1.594   1.409   0.000  0.00  0.00     0.019 A 
ATOM      8  C   UNL d   1      -1.594   3.054   0.000  0.00  0.00     0.002 A 
ATOM      9  C   UNL d   1      -2.301   1.845   0.000  0.00  0.00     0.002 A 
ATOM     10  C   UNL d   1      -2.301   2.639   0.000  0.00  0.00     0.000 A 
ENDROOT
BRANCH   3  11
ATOM     11  C   UNL d   1       1.291   1.455   0.000  0.00  0.00     0.019 C 
BRANCH  11  12
ATOM     12  C   UNL d   1       1.337   0.640   0.000  0.00  0.00     0.005 C 
BRANCH  12  13
ATOM     13  C   UNL d   1       2.075   0.272   0.000  0.00  0.00     0.039 A 
ATOM     14  C   UNL d   1       2.127  -0.538   0.000  0.00  0.00     0.196 A 
ATOM     15  O   UNL d   1       1.435  -1.030   0.000  0.00  0.00    -0.287 OA
ATOM     16  C   UNL d   1       2.865  -0.907   0.000  0.00  0.00     0.042 A 
ATOM     17  C   UNL d   1       3.551  -0.436   0.000  0.00  0.00     0.003 A 
ATOM     18  C   UNL d   1       3.505   0.348   0.000  0.00  0.00     0.000 A 
ATOM     19  C   UNL d   1       2.767   0.717   0.000  0.00  0.00     0.003 A 
ENDBRANCH  12  13
ENDBRANCH  11  12
ENDBRANCH   3  11
TORSDOF 3
