REMARK  4 active torsions:
REMARK  status: ('A' for Active; 'I' for Inactive)
REMARK    1  A    between atoms: C_2  and  C_1 
REMARK    2  A    between atoms: C_4  and  C_1 
REMARK    3  A    between atoms: C_5  and  C_2 
REMARK    4  A    between atoms: N_6  and  C_5 
ROOT
ATOM      1  C   UNL d   1       1.384   0.349   0.000  0.00  0.00     0.197 C 
ATOM      2  O   UNL d   1       1.384   1.181   0.000  0.00  0.00    -0.286 OA
ENDROOT
BRANCH   1   3
ATOM      3  C   UNL d   1       2.083  -0.062   0.000  0.00  0.00     0.061 C 
BRANCH   3   4
ATOM      4  C   UNL d   1       2.083  -0.877   0.000  0.00  0.00     0.084 C 
BRANCH   4   5
ATOM      5  N   UNL d   1       2.798  -1.289   0.000  0.00  0.00    -0.300 N 
ATOM      6  C   UNL d   1       3.509  -0.877   0.000  0.00  0.00     0.100 C 
ATOM      7  C   UNL d   1       2.798  -2.112   0.000  0.00  0.00     0.100 C 
ENDBRANCH   4   5
ENDBRANCH   3   4
ENDBRANCH   1   3
BRANCH   1   8
ATOM      8  C   UNL d   1       0.653  -0.075   0.000  0.00  0.00     0.039 A 
ATOM      9  C   UNL d   1       0.653  -0.902   0.000  0.00  0.00     0.003 A 
ATOM     10  C   UNL d   1      -0.046  -1.314   0.000  0.00  0.00     0.000 A 
ATOM     11  C   UNL d   1      -0.761  -0.902   0.000  0.00  0.00     0.000 A 
ATOM     12  C   UNL d   1      -0.781  -0.075   0.000  0.00  0.00     0.000 A 
ATOM     13  C   UNL d   1      -0.046   0.337   0.000  0.00  0.00     0.003 A 
ENDBRANCH   1   8
TORSDOF 4
