REMARK  5 active torsions:
REMARK  status: ('A' for Active; 'I' for Inactive)
REMARK    1  A    between atoms: N_3  and  S_1 
REMARK    2  A    between atoms: C_13  and  S_1 
REMARK    3  A    between atoms: C_2  and  N_3 
REMARK    4  A    between atoms: N_9  and  C_4 
REMARK       I    between atoms: C_8  and  N_10 
REMARK    5  A    between atoms: C_19  and  C_8 
ROOT
ATOM      1  C   UNL d   1      -1.337  -0.213   0.000  0.00  0.00     0.110 A 
ATOM      2  C   UNL d   1      -0.712  -1.072   0.000  0.00  0.00     0.083 A 
ATOM      3  C   UNL d   1      -2.084  -0.551   0.000  0.00  0.00     0.020 A 
ATOM      4  C   UNL d   1      -1.250  -1.698   0.000  0.00  0.00     0.018 A 
ATOM      5  C   UNL d   1      -2.001  -1.359   0.000  0.00  0.00     0.003 A 
ATOM      6  C   UNL d   1      -2.670  -1.841   0.000  0.00  0.00     0.000 A 
ATOM      7  C   UNL d   1      -2.835  -0.195   0.000  0.00  0.00     0.002 A 
ATOM      8  C   UNL d   1      -1.168  -2.505   0.000  0.00  0.00     0.002 A 
ATOM      9  C   UNL d   1      -3.503  -0.695   0.000  0.00  0.00     0.000 A 
ATOM     10  C   UNL d   1      -1.836  -3.009   0.000  0.00  0.00     0.000 A 
ATOM     11  C   UNL d   1      -3.421  -1.511   0.000  0.00  0.00     0.000 A 
ATOM     12  C   UNL d   1      -2.587  -2.657   0.000  0.00  0.00     0.000 A 
ENDROOT
BRANCH   2  13
ATOM     13  N   UNL d   1       0.091  -1.229   0.000  0.00  0.00    -0.300 N 
ATOM     14  C   UNL d   1       0.352  -2.010   0.000  0.00  0.00     0.100 A 
ATOM     15  C   UNL d   1       1.133  -2.153   0.000  0.00  0.00     0.102 A 
ATOM     16  N   UNL d   1       1.719  -1.541   0.000  0.00  0.00    -0.269 N 
ATOM     17  C   UNL d   1       2.531  -1.684   0.000  0.00  0.00     0.265 C 
ATOM     18  C   UNL d   1       1.459  -0.768   0.000  0.00  0.00     0.102 A 
ATOM     19  O   UNL d   1       2.852  -2.449   0.000  0.00  0.00    -0.267 OA
ATOM     20  C   UNL d   1       0.604  -0.604   0.000  0.00  0.00     0.100 A 
BRANCH  17  21
ATOM     21  C   UNL d   1       3.039  -1.042   0.000  0.00  0.00     0.057 A 
ATOM     22  C   UNL d   1       2.748  -0.261   0.000  0.00  0.00     0.005 A 
ATOM     23  C   UNL d   1       3.269   0.386   0.000  0.00  0.00     0.000 A 
ATOM     24  C   UNL d   1       4.094   0.256   0.000  0.00  0.00     0.000 A 
ATOM     25  C   UNL d   1       4.380  -0.521   0.000  0.00  0.00     0.000 A 
ATOM     26  C   UNL d   1       3.855  -1.163   0.000  0.00  0.00     0.005 A 
ENDBRANCH  17  21
ENDBRANCH   2  13
BRANCH   1  27
ATOM     27  N   UNL d   1      -1.233   0.595   0.000  0.00  0.00    -0.157 NA
BRANCH  27  28
ATOM     28  S   UNL d   1      -0.482   0.933   0.000  0.00  0.00     0.285 S 
ATOM     29  O   UNL d   1      -0.152   0.178   0.000  0.00  0.00    -0.198 OA
ATOM     30  O   UNL d   1      -0.816   1.680   0.000  0.00  0.00    -0.198 OA
BRANCH  28  31
ATOM     31  C   UNL d   1       0.265   1.263   0.000  0.00  0.00     0.105 A 
ATOM     32  C   UNL d   1       0.938   0.781   0.000  0.00  0.00     0.013 A 
ATOM     33  C   UNL d   1       1.684   1.116   0.000  0.00  0.00     0.001 A 
ATOM     34  C   UNL d   1       1.771   1.927   0.000  0.00  0.00     0.000 A 
ATOM     35  C   UNL d   1       1.098   2.431   0.000  0.00  0.00     0.001 A 
ATOM     36  C   UNL d   1       0.352   2.079   0.000  0.00  0.00     0.013 A 
ENDBRANCH  28  31
ENDBRANCH  27  28
ENDBRANCH   1  27
TORSDOF 5
