REMARK  7 active torsions:
REMARK  status: ('A' for Active; 'I' for Inactive)
REMARK    1  A    between atoms: C_10  and  N_1 
REMARK    2  A    between atoms: S_12  and  C_2 
REMARK    3  A    between atoms: S_3  and  N_11 
REMARK    4  A    between atoms: C_7  and  S_3 
REMARK    5  A    between atoms: N_11  and  C_15 
REMARK    6  A    between atoms: C_19  and  S_12 
REMARK    7  A    between atoms: C_15  and  C_19 
ROOT
ATOM      1  C   UNL d   1       0.780  -0.184   0.000  0.00  0.00     0.060 C 
ENDROOT
BRANCH   1   2
ATOM      2  C   UNL d   1      -0.030  -0.195   0.000  0.00  0.00     0.119 C 
BRANCH   2   3
ATOM      3  N   UNL d   1      -0.446  -0.915   0.000  0.00  0.00    -0.156 NA
BRANCH   3   4
ATOM      4  S   UNL d   1      -1.271  -0.915   0.000  0.00  0.00     0.285 S 
ATOM      5  O   UNL d   1      -1.279  -1.770   0.000  0.00  0.00    -0.198 OA
ATOM      6  O   UNL d   1      -1.290  -0.083   0.000  0.00  0.00    -0.198 OA
BRANCH   4   7
ATOM      7  C   UNL d   1      -2.115  -0.934   0.000  0.00  0.00     0.105 A 
ATOM      8  C   UNL d   1      -2.516  -0.225   0.000  0.00  0.00     0.013 A 
ATOM      9  C   UNL d   1      -3.330  -0.229   0.000  0.00  0.00     0.001 A 
ATOM     10  C   UNL d   1      -3.746  -0.949   0.000  0.00  0.00     0.000 A 
ATOM     11  C   UNL d   1      -3.330  -1.646   0.000  0.00  0.00     0.001 A 
ATOM     12  C   UNL d   1      -4.586  -0.949   0.000  0.00  0.00     0.000 C 
ATOM     13  C   UNL d   1      -2.531  -1.654   0.000  0.00  0.00     0.013 A 
ENDBRANCH   4   7
ENDBRANCH   3   4
ENDBRANCH   2   3
ENDBRANCH   1   2
BRANCH   1  14
ATOM     14  S   UNL d   1       1.185   0.506   0.000  0.00  0.00    -0.045 SA
BRANCH  14  15
ATOM     15  C   UNL d   1       2.006   0.514   0.000  0.00  0.00     0.219 A 
ATOM     16  N   UNL d   1       2.411  -0.184   0.000  0.00  0.00    -0.186 N 
ATOM     17  N   UNL d   1       3.221  -0.015   0.000  0.00  0.00    -0.038 NA
ATOM     18  N   UNL d   1       3.289   0.795   0.000  0.00  0.00    -0.022 NA
ATOM     19  N   UNL d   1       2.565   1.121   0.000  0.00  0.00    -0.101 NA
BRANCH  16  20
ATOM     20  C   UNL d   1       2.070  -0.934   0.000  0.00  0.00     0.087 A 
ATOM     21  C   UNL d   1       2.535  -1.609   0.000  0.00  0.00     0.019 A 
ATOM     22  C   UNL d   1       2.186  -2.366   0.000  0.00  0.00     0.002 A 
ATOM     23  C   UNL d   1       1.365  -2.445   0.000  0.00  0.00     0.000 A 
ATOM     24  C   UNL d   1       0.900  -1.759   0.000  0.00  0.00     0.002 A 
ATOM     25  C   UNL d   1       1.249  -1.005   0.000  0.00  0.00     0.019 A 
ENDBRANCH  16  20
ENDBRANCH  14  15
ENDBRANCH   1  14
TORSDOF 7
