REMARK  1 active torsions:
REMARK  status: ('A' for Active; 'I' for Inactive)
REMARK    1  A    between atoms: C_5  and  C_2 
ROOT
ATOM      1  N   UNL d   1       0.829   0.615   0.000  0.00  0.00    -0.217 NA
ATOM      2  C   UNL d   1       0.177   0.133   0.000  0.00  0.00     0.113 A 
ATOM      3  C   UNL d   1       1.503   0.133   0.000  0.00  0.00     0.215 A 
ATOM      4  S   UNL d   1       1.238  -0.663   0.000  0.00  0.00    -0.045 SA
ATOM      5  C   UNL d   1       0.424  -0.663   0.000  0.00  0.00     0.060 A 
ATOM      6  N   UNL d   1       2.299   0.398   0.000  0.00  0.00    -0.120 N 
ENDROOT
BRANCH   2   7
ATOM      7  C   UNL d   1      -0.637   0.365   0.000  0.00  0.00     0.118 A 
ATOM      8  O   UNL d   1      -1.312  -0.133   0.000  0.00  0.00    -0.304 OA
ATOM      9  C   UNL d   1      -1.986   0.365   0.000  0.00  0.00     0.123 A 
ATOM     10  C   UNL d   1      -1.721   1.146   0.000  0.00  0.00     0.029 A 
ATOM     11  C   UNL d   1      -0.903   1.146   0.000  0.00  0.00     0.028 A 
ENDBRANCH   2   7
TORSDOF 1
