REMARK  4 active torsions:
REMARK  status: ('A' for Active; 'I' for Inactive)
REMARK    1  A    between atoms: N_3  and  S_1 
REMARK    2  A    between atoms: C_13  and  S_1 
REMARK    3  A    between atoms: C_2  and  N_3 
REMARK    4  A    between atoms: N_8  and  C_4 
REMARK       I    between atoms: C_10  and  N_9 
ROOT
ATOM      1  C   UNL d   1      -1.339  -0.213   0.000  0.00  0.00     0.110 A 
ATOM      2  C   UNL d   1      -0.713  -1.074   0.000  0.00  0.00     0.083 A 
ATOM      3  C   UNL d   1      -2.087  -0.552   0.000  0.00  0.00     0.020 A 
ATOM      4  C   UNL d   1      -1.252  -1.700   0.000  0.00  0.00     0.018 A 
ATOM      5  C   UNL d   1      -2.004  -1.361   0.000  0.00  0.00     0.003 A 
ATOM      6  C   UNL d   1      -2.674  -1.843   0.000  0.00  0.00     0.000 A 
ATOM      7  C   UNL d   1      -2.839  -0.196   0.000  0.00  0.00     0.002 A 
ATOM      8  C   UNL d   1      -1.169  -2.509   0.000  0.00  0.00     0.002 A 
ATOM      9  C   UNL d   1      -1.839  -3.013   0.000  0.00  0.00     0.000 A 
ATOM     10  C   UNL d   1      -3.508  -0.696   0.000  0.00  0.00     0.000 A 
ATOM     11  C   UNL d   1      -2.591  -2.661   0.000  0.00  0.00     0.000 A 
ATOM     12  C   UNL d   1      -3.426  -1.513   0.000  0.00  0.00     0.000 A 
ENDROOT
BRANCH   1  13
ATOM     13  N   UNL d   1      -1.235   0.596   0.000  0.00  0.00    -0.157 NA
BRANCH  13  14
ATOM     14  S   UNL d   1      -0.483   0.935   0.000  0.00  0.00     0.285 S 
ATOM     15  O   UNL d   1      -0.152   0.178   0.000  0.00  0.00    -0.198 OA
ATOM     16  O   UNL d   1      -0.817   1.683   0.000  0.00  0.00    -0.198 OA
BRANCH  14  17
ATOM     17  C   UNL d   1       0.265   1.265   0.000  0.00  0.00     0.105 A 
ATOM     18  C   UNL d   1       0.352   2.082   0.000  0.00  0.00     0.013 A 
ATOM     19  C   UNL d   1       1.100   2.435   0.000  0.00  0.00     0.001 A 
ATOM     20  C   UNL d   1       1.774   1.930   0.000  0.00  0.00     0.000 A 
ATOM     21  C   UNL d   1       1.687   1.117   0.000  0.00  0.00     0.001 A 
ATOM     22  C   UNL d   1       0.939   0.783   0.000  0.00  0.00     0.013 A 
ENDBRANCH  14  17
ENDBRANCH  13  14
ENDBRANCH   1  13
BRANCH   2  23
ATOM     23  N   UNL d   1       0.091  -1.230   0.000  0.00  0.00    -0.300 N 
ATOM     24  C   UNL d   1       0.352  -2.013   0.000  0.00  0.00     0.100 A 
ATOM     25  C   UNL d   1       1.135  -2.156   0.000  0.00  0.00     0.102 A 
ATOM     26  N   UNL d   1       1.722  -1.543   0.000  0.00  0.00    -0.269 N 
ATOM     27  C   UNL d   1       1.461  -0.769   0.000  0.00  0.00     0.102 A 
ATOM     28  C   UNL d   1       2.535  -1.687   0.000  0.00  0.00     0.265 C 
ATOM     29  C   UNL d   1       0.604  -0.604   0.000  0.00  0.00     0.100 A 
ATOM     30  O   UNL d   1       2.856  -2.452   0.000  0.00  0.00    -0.267 OA
ATOM     31  C   UNL d   1       3.108  -1.096   0.000  0.00  0.00     0.066 C 
ENDBRANCH   2  23
TORSDOF 4
