REMARK  10 active torsions:
REMARK  status: ('A' for Active; 'I' for Inactive)
REMARK       I    between atoms: N_8  and  C_1 
REMARK    1  A    between atoms: C_11  and  C_1 
REMARK    2  A    between atoms: C_2  and  C_12 
REMARK       I    between atoms: N_7  and  C_2 
REMARK    3  A    between atoms: C_3  and  C_19 
REMARK    4  A    between atoms: C_4  and  C_20 
REMARK    5  A    between atoms: C_19  and  N_7 
REMARK    6  A    between atoms: C_20  and  N_8 
REMARK    7  A    between atoms: C_23  and  C_11 
REMARK    8  A    between atoms: C_12  and  C_22 
REMARK    9  A    between atoms: S_21  and  C_23 
REMARK   10  A    between atoms: C_22  and  S_21 
ROOT
ATOM      1  S   UNL d   1      -2.061   1.050   0.000  0.00  0.00    -0.086 SA
ENDROOT
BRANCH   1   2
ATOM      2  C   UNL d   1      -1.222   1.024   0.000  0.00  0.00     0.040 C 
BRANCH   2   3
ATOM      3  C   UNL d   1      -0.786   1.738   0.000  0.00  0.00     0.070 C 
BRANCH   3   4
ATOM      4  C   UNL d   1       0.059   1.698   0.000  0.00  0.00     0.280 C 
ATOM      5  N   UNL d   1       0.443   0.925   0.000  0.00  0.00    -0.204 NA
ATOM      6  O   UNL d   1       0.522   2.398   0.000  0.00  0.00    -0.265 OA
BRANCH   5   7
ATOM      7  C   UNL d   1       0.000   0.238   0.000  0.00  0.00     0.127 C 
BRANCH   7   8
ATOM      8  C   UNL d   1       0.363  -0.502   0.000  0.00  0.00     0.119 A 
ATOM      9  O   UNL d   1       1.216  -0.535   0.000  0.00  0.00    -0.304 OA
ATOM     10  C   UNL d   1       1.407  -1.348   0.000  0.00  0.00     0.123 A 
ATOM     11  C   UNL d   1       0.740  -1.804   0.000  0.00  0.00     0.029 A 
ATOM     12  C   UNL d   1       0.086  -1.268   0.000  0.00  0.00     0.028 A 
ENDBRANCH   7   8
ENDBRANCH   5   7
ENDBRANCH   3   4
ENDBRANCH   2   3
ENDBRANCH   1   2
BRANCH   1  13
ATOM     13  C   UNL d   1      -2.478   0.317   0.000  0.00  0.00     0.040 C 
BRANCH  13  14
ATOM     14  C   UNL d   1      -3.330   0.317   0.000  0.00  0.00     0.070 C 
BRANCH  14  15
ATOM     15  C   UNL d   1      -3.726  -0.403   0.000  0.00  0.00     0.280 C 
ATOM     16  N   UNL d   1      -4.592  -0.403   0.000  0.00  0.00    -0.204 NA
ATOM     17  O   UNL d   1      -3.323  -1.136   0.000  0.00  0.00    -0.265 OA
BRANCH  16  18
ATOM     18  C   UNL d   1      -4.968  -1.117   0.000  0.00  0.00     0.127 C 
BRANCH  18  19
ATOM     19  C   UNL d   1      -5.807  -1.169   0.000  0.00  0.00     0.119 A 
ATOM     20  O   UNL d   1      -6.336  -0.535   0.000  0.00  0.00    -0.304 OA
ATOM     21  C   UNL d   1      -7.129  -0.872   0.000  0.00  0.00     0.123 A 
ATOM     22  C   UNL d   1      -7.029  -1.665   0.000  0.00  0.00     0.029 A 
ATOM     23  C   UNL d   1      -6.256  -1.850   0.000  0.00  0.00     0.028 A 
ENDBRANCH  18  19
ENDBRANCH  16  18
ENDBRANCH  14  15
ENDBRANCH  13  14
ENDBRANCH   1  13
TORSDOF 10
