REMARK  4 active torsions:
REMARK  status: ('A' for Active; 'I' for Inactive)
REMARK    1  A    between atoms: C_2  and  S_1 
REMARK    2  A    between atoms: C_4  and  S_1 
REMARK    3  A    between atoms: C_3  and  C_2 
REMARK    4  A    between atoms: C_8  and  C_3 
ROOT
ATOM      1  S   UNL d   1       1.138   2.087   0.000  0.00  0.00     0.214 S 
ATOM      2  O   UNL d   1       1.189   2.910   0.000  0.00  0.00    -0.217 OA
ATOM      3  O   UNL d   1       1.081   1.281   0.000  0.00  0.00    -0.217 OA
ENDROOT
BRANCH   1   4
ATOM      4  C   UNL d   1       0.326   2.156   0.000  0.00  0.00     0.141 C 
BRANCH   4   5
ATOM      5  C   UNL d   1      -0.137   1.487   0.000  0.00  0.00     0.207 C 
ATOM      6  O   UNL d   1       0.246   0.783   0.000  0.00  0.00    -0.286 OA
BRANCH   5   7
ATOM      7  C   UNL d   1      -0.961   1.538   0.000  0.00  0.00     0.040 A 
ATOM      8  C   UNL d   1      -1.321   2.281   0.000  0.00  0.00     0.003 A 
ATOM      9  C   UNL d   1      -2.144   2.333   0.000  0.00  0.00     0.000 A 
ATOM     10  C   UNL d   1      -2.619   1.675   0.000  0.00  0.00     0.000 A 
ATOM     11  C   UNL d   1      -2.259   0.938   0.000  0.00  0.00     0.000 A 
ATOM     12  C   UNL d   1      -1.435   0.886   0.000  0.00  0.00     0.003 A 
ENDBRANCH   5   7
ENDBRANCH   4   5
ENDBRANCH   1   4
BRANCH   1  13
ATOM     13  C   UNL d   1       1.944   2.036   0.000  0.00  0.00     0.088 A 
ATOM     14  C   UNL d   1       2.304   1.298   0.000  0.00  0.00     0.011 A 
ATOM     15  C   UNL d   1       3.128   1.212   0.000  0.00  0.00     0.001 A 
ATOM     16  C   UNL d   1       3.591   1.921   0.000  0.00  0.00     0.000 A 
ATOM     17  C   UNL d   1       3.231   2.636   0.000  0.00  0.00     0.001 A 
ATOM     18  C   UNL d   1       4.431   1.881   0.000  0.00  0.00     0.000 C 
ATOM     19  C   UNL d   1       2.407   2.705   0.000  0.00  0.00     0.011 A 
ENDBRANCH   1  13
TORSDOF 4
