REMARK  4 active torsions:
REMARK  status: ('A' for Active; 'I' for Inactive)
REMARK    1  A    between atoms: C_3  and  N_1 
REMARK    2  A    between atoms: C_2  and  C_7 
REMARK       I    between atoms: N_4  and  C_2 
REMARK    3  A    between atoms: C_15  and  N_4 
REMARK    4  A    between atoms: C_8  and  C_15 
ROOT
ATOM      1  C   UNL d   1      -1.929   1.143   0.000  0.00  0.00     0.127 A 
ATOM      2  C   UNL d   1      -0.304   0.887   0.000  0.00  0.00     0.058 A 
ATOM      3  C   UNL d   1      -1.619   0.375   0.000  0.00  0.00     0.024 A 
ATOM      4  C   UNL d   1      -1.387   1.804   0.000  0.00  0.00     0.024 A 
ATOM      5  C   UNL d   1      -0.589   1.661   0.000  0.00  0.00     0.006 A 
ATOM      6  C   UNL d   1      -0.816   0.262   0.000  0.00  0.00     0.006 A 
ENDROOT
BRANCH   2   7
ATOM      7  C   UNL d   1       0.524   0.780   0.000  0.00  0.00     0.279 C 
ATOM      8  N   UNL d   1       1.042   1.429   0.000  0.00  0.00    -0.200 NA
ATOM      9  O   UNL d   1       0.839   0.030   0.000  0.00  0.00    -0.265 OA
BRANCH   8  10
ATOM     10  C   UNL d   1       0.720   2.208   0.000  0.00  0.00     0.172 C 
BRANCH  10  11
ATOM     11  C   UNL d   1       1.214   2.857   0.000  0.00  0.00     0.231 C 
ATOM     12  O   UNL d   1       2.042   2.744   0.000  0.00  0.00    -0.643 OA
ATOM     13  O   UNL d   1       0.899   3.602   0.000  0.00  0.00    -0.643 OA
ENDBRANCH  10  11
ENDBRANCH   8  10
ENDBRANCH   2   7
BRANCH   1  14
ATOM     14  N   UNL d   1      -2.762   1.286   0.000  0.00  0.00    -0.114 N 
ATOM     15  O   UNL d   1      -3.072   2.066   0.000  0.00  0.00    -0.532 OA
ATOM     16  O   UNL d   1      -3.280   0.637   0.000  0.00  0.00    -0.532 OA
ENDBRANCH   1  14
TORSDOF 4
