REMARK  5 active torsions:
REMARK  status: ('A' for Active; 'I' for Inactive)
REMARK    1  A    between atoms: C_4  and  C_1 
REMARK    2  A    between atoms: C_10  and  C_2 
REMARK    3  A    between atoms: C_8  and  C_4 
REMARK    4  A    between atoms: C_9  and  C_4 
REMARK    5  A    between atoms: N_5  and  C_9 
ROOT
ATOM      1  C   UNL d   1       5.235  -4.477   0.000  0.00  0.00     0.023 A 
ATOM      2  C   UNL d   1       5.726  -5.151   0.000  0.00  0.00     0.081 A 
ATOM      3  N   UNL d   1       5.247  -5.814   0.000  0.00  0.00    -0.246 NA
ATOM      4  C   UNL d   1       4.452  -4.735   0.000  0.00  0.00     0.019 A 
ATOM      5  C   UNL d   1       4.452  -5.564   0.000  0.00  0.00     0.081 A 
ATOM      6  C   UNL d   1       3.736  -4.327   0.000  0.00  0.00     0.002 A 
ATOM      7  C   UNL d   1       3.748  -5.984   0.000  0.00  0.00     0.019 A 
ATOM      8  C   UNL d   1       3.027  -4.747   0.000  0.00  0.00     0.000 A 
ATOM      9  C   UNL d   1       3.027  -5.564   0.000  0.00  0.00     0.002 A 
ENDROOT
BRANCH   1  10
ATOM     10  C   UNL d   1       5.484  -3.686   0.000  0.00  0.00     0.048 C 
BRANCH  10  11
ATOM     11  C   UNL d   1       4.935  -3.078   0.000  0.00  0.00     0.102 A 
ATOM     12  O   UNL d   1       5.101  -2.265   0.000  0.00  0.00    -0.305 OA
ATOM     13  C   UNL d   1       4.385  -1.866   0.000  0.00  0.00     0.123 A 
ATOM     14  C   UNL d   1       3.765  -2.428   0.000  0.00  0.00     0.029 A 
ATOM     15  C   UNL d   1       4.114  -3.165   0.000  0.00  0.00     0.027 A 
ENDBRANCH  10  11
BRANCH  10  16
ATOM     16  C   UNL d   1       6.297  -3.515   0.000  0.00  0.00     0.150 C 
BRANCH  16  17
ATOM     17  N   UNL d   1       6.546  -2.728   0.000  0.00  0.00    -0.112 N 
ATOM     18  O   UNL d   1       7.350  -2.536   0.000  0.00  0.00    -0.532 OA
ATOM     19  O   UNL d   1       5.984  -2.103   0.000  0.00  0.00    -0.532 OA
ENDBRANCH  16  17
ENDBRANCH  10  16
ENDBRANCH   1  10
BRANCH   2  20
ATOM     20  C   UNL d   1       6.551  -5.147   0.000  0.00  0.00     0.018 A 
ATOM     21  C   UNL d   1       6.975  -5.864   0.000  0.00  0.00     0.002 A 
ATOM     22  C   UNL d   1       7.800  -5.864   0.000  0.00  0.00     0.000 A 
ATOM     23  C   UNL d   1       8.212  -5.147   0.000  0.00  0.00     0.000 A 
ATOM     24  C   UNL d   1       7.796  -4.427   0.000  0.00  0.00     0.000 A 
ATOM     25  C   UNL d   1       9.033  -5.147   0.000  0.00  0.00     0.000 C 
ATOM     26  C   UNL d   1       6.963  -4.435   0.000  0.00  0.00     0.002 A 
ENDBRANCH   2  20
TORSDOF 5
