REMARK  9 active torsions:
REMARK  status: ('A' for Active; 'I' for Inactive)
REMARK    1  A    between atoms: C_12  and  N_1 
REMARK    2  A    between atoms: C_13  and  N_2 
REMARK    3  A    between atoms: O_9  and  C_23 
REMARK    4  A    between atoms: C_10  and  O_9 
REMARK    5  A    between atoms: C_11  and  C_12 
REMARK    6  A    between atoms: C_18  and  C_13 
REMARK    7  A    between atoms: C_26  and  C_15 
REMARK    8  A    between atoms: C_16  and  C_26 
REMARK    9  A    between atoms: C_23  and  C_18 
ROOT
ATOM      1  N   UNL d   1       4.497  -1.607   0.000  0.00  0.00    -0.300 N 
ATOM      2  N   UNL d   1       2.833  -1.632   0.000  0.00  0.00    -0.297 N 
ATOM      3  C   UNL d   1       4.075  -0.923   0.000  0.00  0.00     0.100 A 
ATOM      4  C   UNL d   1       3.247  -2.340   0.000  0.00  0.00     0.100 A 
ATOM      5  C   UNL d   1       3.247  -0.911   0.000  0.00  0.00     0.100 A 
ATOM      6  C   UNL d   1       4.079  -2.327   0.000  0.00  0.00     0.100 A 
ENDROOT
BRANCH   2   7
ATOM      7  C   UNL d   1       2.025  -1.632   0.000  0.00  0.00     0.125 C 
BRANCH   7   8
ATOM      8  C   UNL d   1       1.594  -0.948   0.000  0.00  0.00     0.238 C 
ATOM      9  O   UNL d   1       2.013  -0.228   0.000  0.00  0.00    -0.283 OA
BRANCH   8  10
ATOM     10  C   UNL d   1       0.795  -0.961   0.000  0.00  0.00     0.166 C 
BRANCH  10  11
ATOM     11  O   UNL d   1       0.364  -0.253   0.000  0.00  0.00    -0.302 OA
BRANCH  11  12
ATOM     12  C   UNL d   1      -0.447  -0.265   0.000  0.00  0.00     0.100 A 
ATOM     13  C   UNL d   1      -0.878   0.431   0.000  0.00  0.00     0.023 A 
ATOM     14  C   UNL d   1      -1.702   0.431   0.000  0.00  0.00     0.002 A 
ATOM     15  C   UNL d   1      -2.112  -0.290   0.000  0.00  0.00     0.000 A 
ATOM     16  C   UNL d   1      -1.685  -1.010   0.000  0.00  0.00     0.002 A 
ATOM     17  C   UNL d   1      -0.845  -0.986   0.000  0.00  0.00     0.025 A 
BRANCH  13  18
ATOM     18  C   UNL d   1      -0.480   1.139   0.000  0.00  0.00     0.002 C 
BRANCH  18  19
ATOM     19  C   UNL d   1       0.335   1.151   0.000  0.00  0.00     0.000 C 
ATOM     20  C   UNL d   1       0.745   1.872   0.000  0.00  0.00     0.000 C 
ENDBRANCH  18  19
ENDBRANCH  13  18
ENDBRANCH  11  12
ENDBRANCH  10  11
ENDBRANCH   8  10
ENDBRANCH   7   8
ENDBRANCH   2   7
BRANCH   1  21
ATOM     21  C   UNL d   1       5.305  -1.594   0.000  0.00  0.00     0.080 C 
BRANCH  21  22
ATOM     22  C   UNL d   1       5.682  -0.874   0.000  0.00  0.00     0.020 A 
ATOM     23  C   UNL d   1       5.243  -0.191   0.000  0.00  0.00     0.028 A 
ATOM     24  C   UNL d   1       5.653   0.530   0.000  0.00  0.00     0.119 A 
ATOM     25  O   UNL d   1       5.334   1.288   0.000  0.00  0.00    -0.300 OA
ATOM     26  C   UNL d   1       6.465   0.555   0.000  0.00  0.00     0.119 A 
ATOM     27  C   UNL d   1       5.980   1.835   0.000  0.00  0.00     0.304 A 
ATOM     28  O   UNL d   1       6.676   1.362   0.000  0.00  0.00    -0.300 OA
ATOM     29  C   UNL d   1       6.912  -0.141   0.000  0.00  0.00     0.026 A 
ATOM     30  C   UNL d   1       6.510  -0.861   0.000  0.00  0.00     0.004 A 
ENDBRANCH  21  22
ENDBRANCH   1  21
TORSDOF 9
