REMARK  2 active torsions:
REMARK  status: ('A' for Active; 'I' for Inactive)
REMARK    1  A    between atoms: C_8  and  C_2 
REMARK    2  A    between atoms: C_9  and  C_4 
ROOT
ATOM      1  N   UNL d   1       2.801   4.120   0.000  0.00  0.00    -0.246 NA
ATOM      2  C   UNL d   1       2.801   2.470   0.000  0.00  0.00     0.003 A 
ATOM      3  C   UNL d   1       2.087   2.882   0.000  0.00  0.00     0.018 A 
ATOM      4  C   UNL d   1       3.516   3.708   0.000  0.00  0.00     0.081 A 
ATOM      5  C   UNL d   1       3.516   2.882   0.000  0.00  0.00     0.019 A 
ATOM      6  C   UNL d   1       2.087   3.708   0.000  0.00  0.00     0.081 A 
ATOM      7  C   UNL d   1       1.373   2.470   0.000  0.00  0.00     0.002 A 
ATOM      8  C   UNL d   1       1.373   4.120   0.000  0.00  0.00     0.019 A 
ATOM      9  C   UNL d   1       0.658   2.882   0.000  0.00  0.00     0.000 A 
ATOM     10  C   UNL d   1       0.658   3.708   0.000  0.00  0.00     0.002 A 
ATOM     11  C   UNL d   1       0.000   2.470   0.000  0.00  0.00     0.000 C 
ENDROOT
BRANCH   2  12
ATOM     12  C   UNL d   1       2.801   1.650   0.000  0.00  0.00     0.000 A 
ATOM     13  C   UNL d   1       3.516   1.238   0.000  0.00  0.00     0.000 A 
ATOM     14  C   UNL d   1       3.516   0.412   0.000  0.00  0.00     0.000 A 
ATOM     15  C   UNL d   1       2.801   0.000   0.000  0.00  0.00     0.000 A 
ATOM     16  C   UNL d   1       2.087   0.412   0.000  0.00  0.00     0.000 A 
ATOM     17  C   UNL d   1       2.087   1.238   0.000  0.00  0.00     0.000 A 
ENDBRANCH   2  12
BRANCH   4  18
ATOM     18  C   UNL d   1       4.230   4.120   0.000  0.00  0.00     0.021 A 
ATOM     19  C   UNL d   1       4.945   3.708   0.000  0.00  0.00     0.022 A 
ATOM     20  C   UNL d   1       5.659   4.120   0.000  0.00  0.00     0.099 A 
ATOM     21  N   UNL d   1       5.659   4.945   0.000  0.00  0.00    -0.242 NA
ATOM     22  C   UNL d   1       4.945   5.303   0.000  0.00  0.00     0.099 A 
ATOM     23  C   UNL d   1       4.230   4.945   0.000  0.00  0.00     0.022 A 
ENDBRANCH   4  18
TORSDOF 2
