REMARK  4 active torsions:
REMARK  status: ('A' for Active; 'I' for Inactive)
REMARK       I    between atoms: C_3  and  N_1 
REMARK    1  A    between atoms: C_7  and  C_3 
REMARK    2  A    between atoms: C_8  and  C_4 
REMARK    3  A    between atoms: C_9  and  C_5 
REMARK    4  A    between atoms: O_25  and  C_18 
ROOT
ATOM      1  N   UNL d   1       3.435   1.927   0.000  0.00  0.00    -0.195 N 
ATOM      2  N   UNL d   1       2.639   2.173   0.000  0.00  0.00    -0.163 NA
ATOM      3  C   UNL d   1       3.683   1.132   0.000  0.00  0.00     0.282 C 
ATOM      4  C   UNL d   1       3.929   2.581   0.000  0.00  0.00     0.088 A 
ATOM      5  C   UNL d   1       2.639   2.993   0.000  0.00  0.00     0.103 A 
ATOM      6  C   UNL d   1       3.435   3.244   0.000  0.00  0.00     0.040 A 
ATOM      7  O   UNL d   1       3.133   0.523   0.000  0.00  0.00    -0.265 OA
ENDROOT
BRANCH   3   8
ATOM      8  C   UNL d   1       4.508   0.963   0.000  0.00  0.00     0.077 A 
ATOM      9  C   UNL d   1       5.056   1.569   0.000  0.00  0.00     0.104 A 
ATOM     10  N   UNL d   1       5.856   1.404   0.000  0.00  0.00    -0.242 NA
ATOM     11  C   UNL d   1       6.102   0.609   0.000  0.00  0.00     0.099 A 
ATOM     12  C   UNL d   1       5.554   0.000   0.000  0.00  0.00     0.021 A 
ATOM     13  C   UNL d   1       4.754   0.167   0.000  0.00  0.00     0.008 A 
ENDBRANCH   3   8
BRANCH   4  14
ATOM     14  C   UNL d   1       4.754   2.581   0.000  0.00  0.00     0.018 A 
ATOM     15  C   UNL d   1       5.166   3.295   0.000  0.00  0.00     0.004 A 
ATOM     16  C   UNL d   1       5.991   3.295   0.000  0.00  0.00     0.024 A 
ATOM     17  C   UNL d   1       6.404   2.581   0.000  0.00  0.00     0.094 A 
ATOM     18  C   UNL d   1       5.991   1.871   0.000  0.00  0.00     0.024 A 
ATOM     19  C   UNL d   1       5.166   1.871   0.000  0.00  0.00     0.004 A 
BRANCH  17  20
ATOM     20  O   UNL d   1       7.229   2.581   0.000  0.00  0.00    -0.328 OA
ATOM     21  C   UNL d   1       7.641   3.295   0.000  0.00  0.00     0.181 C 
ENDBRANCH  17  20
ENDBRANCH   4  14
BRANCH   5  22
ATOM     22  C   UNL d   1       1.977   3.465   0.000  0.00  0.00     0.019 A 
ATOM     23  C   UNL d   1       2.087   4.290   0.000  0.00  0.00     0.002 A 
ATOM     24  C   UNL d   1       1.402   4.783   0.000  0.00  0.00     0.007 A 
ATOM     25  C   UNL d   1       0.658   4.452   0.000  0.00  0.00     0.035 A 
ATOM     26  C   UNL d   1       0.548   3.627   0.000  0.00  0.00     0.007 A 
ATOM     27 BR   UNL d   1       0.000   4.950   0.000  0.00  0.00    -0.049 Br
ATOM     28  C   UNL d   1       1.238   3.133   0.000  0.00  0.00     0.002 A 
ENDBRANCH   5  22
TORSDOF 4
