REMARK  8 active torsions:
REMARK  status: ('A' for Active; 'I' for Inactive)
REMARK    1  A    between atoms: C_11  and  N_1 
REMARK    2  A    between atoms: S_7  and  C_2 
REMARK    3  A    between atoms: C_18  and  S_7 
REMARK    4  A    between atoms: C_8  and  C_10 
REMARK       I    between atoms: N_14  and  C_8 
REMARK    5  A    between atoms: C_13  and  C_11 
REMARK    6  A    between atoms: C_25  and  N_14 
REMARK    7  A    between atoms: C_19  and  C_18 
REMARK    8  A    between atoms: C_26  and  C_25 
ROOT
ATOM      1  N   UNL d   1      -2.769   1.684   0.000  0.00  0.00    -0.253 N 
ATOM      2  C   UNL d   1      -2.769   0.893   0.000  0.00  0.00     0.182 A 
ATOM      3  C   UNL d   1      -3.479   2.112   0.000  0.00  0.00     0.268 A 
ATOM      4  N   UNL d   1      -3.479   0.465   0.000  0.00  0.00    -0.222 NA
ATOM      5  C   UNL d   1      -4.181   1.711   0.000  0.00  0.00     0.074 A 
ATOM      6  C   UNL d   1      -4.181   0.871   0.000  0.00  0.00     0.088 A 
ATOM      7  O   UNL d   1      -3.479   2.930   0.000  0.00  0.00    -0.267 OA
ATOM      8  C   UNL d   1      -4.891   2.112   0.000  0.00  0.00     0.006 A 
ATOM      9  C   UNL d   1      -4.891   0.465   0.000  0.00  0.00     0.019 A 
ATOM     10  C   UNL d   1      -5.596   1.684   0.000  0.00  0.00     0.000 A 
ATOM     11  C   UNL d   1      -5.596   0.893   0.000  0.00  0.00     0.002 A 
ENDROOT
BRANCH   2  12
ATOM     12  S   UNL d   1      -2.046   0.482   0.000  0.00  0.00    -0.049 SA
BRANCH  12  13
ATOM     13  C   UNL d   1      -1.335   0.911   0.000  0.00  0.00     0.038 C 
BRANCH  13  14
ATOM     14  C   UNL d   1      -0.603   0.531   0.000  0.00  0.00     0.007 A 
ATOM     15  C   UNL d   1      -0.585  -0.308   0.000  0.00  0.00     0.001 A 
ATOM     16  C   UNL d   1       0.125  -0.697   0.000  0.00  0.00     0.005 A 
ATOM     17  C   UNL d   1       0.835  -0.268   0.000  0.00  0.00     0.058 A 
ATOM     18  C   UNL d   1       0.808   0.549   0.000  0.00  0.00     0.005 A 
ATOM     19  C   UNL d   1       0.085   0.933   0.000  0.00  0.00     0.001 A 
BRANCH  17  20
ATOM     20  C   UNL d   1       1.586  -0.648   0.000  0.00  0.00     0.279 C 
ATOM     21  O   UNL d   1       1.626  -1.487   0.000  0.00  0.00    -0.265 OA
ATOM     22  N   UNL d   1       2.282  -0.201   0.000  0.00  0.00    -0.203 NA
BRANCH  22  23
ATOM     23  C   UNL d   1       3.042  -0.590   0.000  0.00  0.00     0.148 C 
BRANCH  23  24
ATOM     24  C   UNL d   1       3.729  -0.161   0.000  0.00  0.00     0.255 C 
ATOM     25  O   UNL d   1       4.453  -0.540   0.000  0.00  0.00    -0.281 OA
ENDBRANCH  23  24
ENDBRANCH  22  23
ENDBRANCH  17  20
ENDBRANCH  13  14
ENDBRANCH  12  13
ENDBRANCH   2  12
BRANCH   1  26
ATOM     26  C   UNL d   1      -2.046   2.099   0.000  0.00  0.00     0.085 C 
BRANCH  26  27
ATOM     27  C   UNL d   1      -1.335   1.661   0.000  0.00  0.00     0.019 C 
ATOM     28  C   UNL d   1      -0.603   2.050   0.000  0.00  0.00     0.002 C 
ENDBRANCH  26  27
ENDBRANCH   1  26
TORSDOF 8
