REMARK  7 active torsions:
REMARK  status: ('A' for Active; 'I' for Inactive)
REMARK    1  A    between atoms: C_5  and  N_1 
REMARK    2  A    between atoms: C_3  and  N_2 
REMARK    3  A    between atoms: N_4  and  C_11 
REMARK    4  A    between atoms: C_11  and  C_17 
REMARK    5  A    between atoms: O_16  and  C_18 
REMARK    6  A    between atoms: C_20  and  O_16 
REMARK    7  A    between atoms: C_17  and  C_20 
ROOT
ATOM      1  C   UNL d   1       2.776  -2.160   0.000  0.00  0.00     0.125 C 
ENDROOT
BRANCH   1   2
ATOM      2  N   UNL d   1       3.571  -2.160   0.000  0.00  0.00    -0.297 N 
ATOM      3  C   UNL d   1       4.011  -1.469   0.000  0.00  0.00     0.100 A 
ATOM      4  C   UNL d   1       4.814  -1.469   0.000  0.00  0.00     0.100 A 
ATOM      5  N   UNL d   1       5.229  -2.202   0.000  0.00  0.00    -0.299 N 
ATOM      6  C   UNL d   1       4.802  -2.901   0.000  0.00  0.00     0.100 A 
ATOM      7  C   UNL d   1       3.986  -2.901   0.000  0.00  0.00     0.100 A 
BRANCH   5   8
ATOM      8  C   UNL d   1       6.054  -2.202   0.000  0.00  0.00     0.092 A 
ATOM      9  C   UNL d   1       6.455  -2.930   0.000  0.00  0.00     0.156 A 
ATOM     10  F   UNL d   1       6.041  -3.646   0.000  0.00  0.00    -0.203 F 
ATOM     11  C   UNL d   1       7.276  -2.930   0.000  0.00  0.00     0.031 A 
ATOM     12  C   UNL d   1       7.699  -2.236   0.000  0.00  0.00     0.002 A 
ATOM     13  C   UNL d   1       7.297  -1.499   0.000  0.00  0.00     0.002 A 
ATOM     14  C   UNL d   1       6.472  -1.499   0.000  0.00  0.00     0.020 A 
ENDBRANCH   5   8
ENDBRANCH   1   2
BRANCH   1  15
ATOM     15  C   UNL d   1       2.361  -1.436   0.000  0.00  0.00     0.238 C 
ATOM     16  O   UNL d   1       2.868  -0.645   0.000  0.00  0.00    -0.283 OA
BRANCH  15  17
ATOM     17  C   UNL d   1       1.545  -1.436   0.000  0.00  0.00     0.166 C 
BRANCH  17  18
ATOM     18  O   UNL d   1       1.135  -0.708   0.000  0.00  0.00    -0.302 OA
BRANCH  18  19
ATOM     19  C   UNL d   1       0.318  -0.703   0.000  0.00  0.00     0.100 A 
ATOM     20  C   UNL d   1      -0.113  -1.407   0.000  0.00  0.00     0.026 A 
ATOM     21  C   UNL d   1      -0.942  -1.407   0.000  0.00  0.00     0.026 A 
ATOM     22  C   UNL d   1      -1.356  -0.670   0.000  0.00  0.00     0.127 A 
ATOM     23  C   UNL d   1      -0.925   0.034   0.000  0.00  0.00     0.026 A 
ATOM     24  C   UNL d   1      -0.084   0.021   0.000  0.00  0.00     0.026 A 
BRANCH  22  25
ATOM     25  N   UNL d   1      -2.181  -0.645   0.000  0.00  0.00    -0.114 N 
ATOM     26  O   UNL d   1      -2.633   0.046   0.000  0.00  0.00    -0.532 OA
ATOM     27  O   UNL d   1      -2.663  -1.310   0.000  0.00  0.00    -0.532 OA
ENDBRANCH  22  25
ENDBRANCH  18  19
ENDBRANCH  17  18
ENDBRANCH  15  17
ENDBRANCH   1  15
TORSDOF 7
