REMARK  4 active torsions:
REMARK  status: ('A' for Active; 'I' for Inactive)
REMARK    1  A    between atoms: C_10  and  C_1 
REMARK       I    between atoms: C_5  and  N_3 
REMARK    2  A    between atoms: O_18  and  C_5 
REMARK    3  A    between atoms: N_9  and  C_10 
REMARK    4  A    between atoms: C_22  and  O_18 
ROOT
ATOM      1  C   UNL d   1       5.008  -4.143   0.000  0.00  0.00     0.059 A 
ATOM      2  C   UNL d   1       3.581  -4.143   0.000  0.00  0.00     0.121 A 
ATOM      3  C   UNL d   1       4.297  -4.559   0.000  0.00  0.00     0.214 A 
ATOM      4  C   UNL d   1       3.581  -3.311   0.000  0.00  0.00     0.032 A 
ATOM      5  C   UNL d   1       4.293  -2.895   0.000  0.00  0.00     0.059 A 
ATOM      6  C   UNL d   1       5.008  -3.311   0.000  0.00  0.00     0.016 A 
ATOM      7  N   UNL d   1       2.874  -4.546   0.000  0.00  0.00    -0.241 NA
ATOM      8 CL   UNL d   1       4.293  -2.063   0.000  0.00  0.00    -0.082 Cl
ATOM      9  O   UNL d   1       4.297  -5.378   0.000  0.00  0.00    -0.285 OA
ATOM     10  C   UNL d   1       2.874  -2.899   0.000  0.00  0.00     0.004 A 
ATOM     11  C   UNL d   1       2.151  -4.143   0.000  0.00  0.00     0.099 A 
ATOM     12  C   UNL d   1       2.146  -3.311   0.000  0.00  0.00     0.021 A 
ENDROOT
BRANCH   1  13
ATOM     13  C   UNL d   1       5.728  -4.546   0.000  0.00  0.00     0.084 C 
BRANCH  13  14
ATOM     14  N   UNL d   1       6.439  -4.143   0.000  0.00  0.00    -0.300 N 
ATOM     15  C   UNL d   1       7.155  -4.546   0.000  0.00  0.00     0.100 A 
ATOM     16  C   UNL d   1       7.866  -4.143   0.000  0.00  0.00     0.104 A 
ATOM     17  N   UNL d   1       7.866  -3.311   0.000  0.00  0.00    -0.249 N 
ATOM     18  C   UNL d   1       7.142  -2.899   0.000  0.00  0.00     0.104 A 
ATOM     19  C   UNL d   1       8.585  -2.899   0.000  0.00  0.00     0.378 C 
ATOM     20  C   UNL d   1       6.439  -3.311   0.000  0.00  0.00     0.100 A 
ATOM     21  O   UNL d   1       9.289  -3.311   0.000  0.00  0.00    -0.237 OA
BRANCH  19  22
ATOM     22  O   UNL d   1       8.585  -2.084   0.000  0.00  0.00    -0.257 OA
BRANCH  22  23
ATOM     23  C   UNL d   1       7.866  -1.664   0.000  0.00  0.00     0.128 C 
ATOM     24  C   UNL d   1       7.654  -0.928   0.000  0.00  0.00     0.029 C 
ENDBRANCH  22  23
ENDBRANCH  19  22
ENDBRANCH  13  14
ENDBRANCH   1  13
TORSDOF 4
