REMARK  5 active torsions:
REMARK  status: ('A' for Active; 'I' for Inactive)
REMARK    1  A    between atoms: C_12  and  C_1 
REMARK    2  A    between atoms: N_7  and  C_2 
REMARK    3  A    between atoms: C_3  and  C_6 
REMARK       I    between atoms: C_6  and  N_7 
REMARK    4  A    between atoms: O_18  and  C_12 
REMARK    5  A    between atoms: C_23  and  O_18 
ROOT
ATOM      1  C   UNL d   1      -3.847   5.504   0.000  0.00  0.00     0.111 A 
ATOM      2  C   UNL d   1      -3.180   5.076   0.000  0.00  0.00     0.096 A 
ATOM      3  S   UNL d   1      -3.620   6.317   0.000  0.00  0.00    -0.080 SA
ATOM      4  C   UNL d   1      -2.525   5.567   0.000  0.00  0.00     0.024 A 
ATOM      5  C   UNL d   1      -2.802   6.343   0.000  0.00  0.00     0.031 A 
ATOM      6  C   UNL d   1      -1.712   5.411   0.000  0.00  0.00     0.002 A 
ATOM      7  C   UNL d   1      -2.274   6.976   0.000  0.00  0.00     0.006 A 
ATOM      8  C   UNL d   1      -1.179   6.045   0.000  0.00  0.00     0.000 A 
ATOM      9  C   UNL d   1      -1.456   6.821   0.000  0.00  0.00     0.001 A 
ENDROOT
BRANCH   2  10
ATOM     10  N   UNL d   1      -3.180   4.233   0.000  0.00  0.00    -0.207 NA
ATOM     11  C   UNL d   1      -2.462   3.826   0.000  0.00  0.00     0.284 C 
ATOM     12  O   UNL d   1      -1.732   4.304   0.000  0.00  0.00    -0.265 OA
BRANCH  11  13
ATOM     13  C   UNL d   1      -2.513   3.008   0.000  0.00  0.00     0.121 A 
ATOM     14  C   UNL d   1      -1.812   2.576   0.000  0.00  0.00     0.204 A 
ATOM     15  C   UNL d   1      -1.821   1.745   0.000  0.00  0.00     0.062 A 
ATOM     16  O   UNL d   1      -1.070   2.991   0.000  0.00  0.00    -0.286 OA
ATOM     17  C   UNL d   1      -1.116   1.330   0.000  0.00  0.00     0.005 A 
ATOM     18  C   UNL d   1      -2.550   1.347   0.000  0.00  0.00     0.103 A 
ATOM     19  C   UNL d   1      -1.145   0.503   0.000  0.00  0.00     0.000 A 
ATOM     20  C   UNL d   1      -1.858   0.096   0.000  0.00  0.00     0.002 A 
ATOM     21  C   UNL d   1      -2.550   0.516   0.000  0.00  0.00     0.025 A 
ATOM     22  O   UNL d   1      -3.255   1.770   0.000  0.00  0.00    -0.305 OA
ATOM     23  C   UNL d   1      -3.243   2.601   0.000  0.00  0.00     0.131 A 
ENDBRANCH  11  13
ENDBRANCH   2  10
BRANCH   1  24
ATOM     24  C   UNL d   1      -4.614   5.189   0.000  0.00  0.00     0.308 C 
ATOM     25  O   UNL d   1      -4.740   4.384   0.000  0.00  0.00    -0.258 OA
BRANCH  24  26
ATOM     26  O   UNL d   1      -5.206   5.718   0.000  0.00  0.00    -0.271 OA
BRANCH  26  27
ATOM     27  C   UNL d   1      -5.105   6.607   0.000  0.00  0.00     0.126 C 
ATOM     28  C   UNL d   1      -5.747   7.089   0.000  0.00  0.00     0.029 C 
ENDBRANCH  26  27
ENDBRANCH  24  26
ENDBRANCH   1  24
TORSDOF 5
