REMARK  3 active torsions:
REMARK  status: ('A' for Active; 'I' for Inactive)
REMARK    1  A    between atoms: C_4  and  C_1 
REMARK       I    between atoms: C_5  and  N_6 
REMARK    2  A    between atoms: C_8  and  C_5 
REMARK    3  A    between atoms: N_6  and  C_7 
ROOT
ATOM      1  C   UNL d   1       3.301  -0.116   0.000  0.00  0.00     0.042 A 
ATOM      2  C   UNL d   1       4.056  -0.452   0.000  0.00  0.00     0.087 A 
ATOM      3  C   UNL d   1       3.223   0.705   0.000  0.00  0.00     0.004 A 
ATOM      4  C   UNL d   1       4.728   0.025   0.000  0.00  0.00     0.019 A 
ATOM      5  C   UNL d   1       3.886   1.190   0.000  0.00  0.00     0.000 A 
ATOM      6  C   UNL d   1       4.645   0.846   0.000  0.00  0.00     0.002 A 
ENDROOT
BRANCH   1   7
ATOM      7  C   UNL d   1       2.630  -0.597   0.000  0.00  0.00     0.112 A 
ATOM      8  N   UNL d   1       2.551  -1.410   0.000  0.00  0.00    -0.238 NA
ATOM      9  C   UNL d   1       1.746  -1.584   0.000  0.00  0.00     0.088 A 
ATOM     10  C   UNL d   1       1.336  -2.294   0.000  0.00  0.00     0.020 A 
ATOM     11  C   UNL d   1       1.336  -0.875   0.000  0.00  0.00     0.049 A 
ATOM     12  C   UNL d   1       0.510  -2.294   0.000  0.00  0.00     0.002 A 
ATOM     13  C   UNL d   1       0.100  -1.584   0.000  0.00  0.00     0.001 A 
ATOM     14  C   UNL d   1       0.510  -0.875   0.000  0.00  0.00     0.008 A 
ATOM     15  S   UNL d   1       1.891  -0.261   0.000  0.00  0.00    -0.066 SA
ENDBRANCH   1   7
BRANCH   2  16
ATOM     16  N   UNL d   1       4.135  -1.273   0.000  0.00  0.00    -0.206 NA
ATOM     17  C   UNL d   1       4.894  -1.618   0.000  0.00  0.00     0.302 C 
ATOM     18  O   UNL d   1       5.562  -1.137   0.000  0.00  0.00    -0.263 OA
BRANCH  17  19
ATOM     19  C   UNL d   1       4.977  -2.439   0.000  0.00  0.00     0.158 A 
ATOM     20  O   UNL d   1       4.421  -3.053   0.000  0.00  0.00    -0.300 OA
ATOM     21  C   UNL d   1       4.832  -3.758   0.000  0.00  0.00     0.123 A 
ATOM     22  C   UNL d   1       5.641  -3.600   0.000  0.00  0.00     0.029 A 
ATOM     23  C   UNL d   1       5.728  -2.779   0.000  0.00  0.00     0.032 A 
ENDBRANCH  17  19
ENDBRANCH   2  16
TORSDOF 3
