REMARK  5 active torsions:
REMARK  status: ('A' for Active; 'I' for Inactive)
REMARK    1  A    between atoms: N_10  and  C_4 
REMARK    2  A    between atoms: C_11  and  N_5 
REMARK    3  A    between atoms: C_14  and  N_10 
REMARK    4  A    between atoms: C_15  and  C_11 
REMARK    5  A    between atoms: C_18  and  C_14 
ROOT
ATOM      1  C   UNL d   1       0.646  -1.753   0.000  0.00  0.00     0.191 A 
ATOM      2  C   UNL d   1       0.646  -0.969   0.000  0.00  0.00     0.174 A 
ATOM      3  N   UNL d   1       1.325  -2.168   0.000  0.00  0.00    -0.042 NA
ATOM      4  C   UNL d   1       2.005  -1.778   0.000  0.00  0.00     0.722 A 
ATOM      5  N   UNL d   1       2.017  -0.969   0.000  0.00  0.00    -0.132 N 
ATOM      6  N   UNL d   1      -0.050  -2.155   0.000  0.00  0.00    -0.239 N 
ATOM      7  C   UNL d   1      -0.738  -1.766   0.000  0.00  0.00     0.358 A 
ATOM      8  N   UNL d   1      -0.738  -0.969   0.000  0.00  0.00    -0.152 NA
ATOM      9  C   UNL d   1      -0.050  -0.570   0.000  0.00  0.00     0.303 A 
ATOM     10  O   UNL d   1      -1.434  -2.168   0.000  0.00  0.00    -0.244 OA
ATOM     11  O   UNL d   1      -0.050   0.247   0.000  0.00  0.00    -0.263 OA
ATOM     12  C   UNL d   1      -0.050  -2.961   0.000  0.00  0.00     0.105 C 
ENDROOT
BRANCH   4  13
ATOM     13  N   UNL d   1       2.692  -2.176   0.000  0.00  0.00    -0.137 N 
ATOM     14  C   UNL d   1       3.489  -1.963   0.000  0.00  0.00     0.118 C 
BRANCH  13  15
ATOM     15  C   UNL d   1       2.692  -2.998   0.000  0.00  0.00     0.098 C 
BRANCH  15  16
ATOM     16  C   UNL d   1       3.409  -3.413   0.000  0.00  0.00     0.018 A 
ATOM     17  C   UNL d   1       3.401  -4.244   0.000  0.00  0.00     0.002 A 
ATOM     18  C   UNL d   1       4.118  -4.659   0.000  0.00  0.00     0.000 A 
ATOM     19  C   UNL d   1       4.835  -4.244   0.000  0.00  0.00     0.000 A 
ATOM     20  C   UNL d   1       4.835  -3.413   0.000  0.00  0.00     0.000 A 
ATOM     21  C   UNL d   1       4.118  -2.998   0.000  0.00  0.00     0.002 A 
ENDBRANCH  15  16
ENDBRANCH  13  15
ENDBRANCH   4  13
BRANCH   5  22
ATOM     22  C   UNL d   1       2.432  -0.256   0.000  0.00  0.00     0.098 C 
BRANCH  22  23
ATOM     23  C   UNL d   1       3.258  -0.256   0.000  0.00  0.00     0.018 A 
ATOM     24  C   UNL d   1       3.653   0.461   0.000  0.00  0.00     0.002 A 
ATOM     25  C   UNL d   1       4.479   0.461   0.000  0.00  0.00     0.000 A 
ATOM     26  C   UNL d   1       5.062   1.044   0.000  0.00  0.00     0.000 C 
ATOM     27  C   UNL d   1       4.898  -0.256   0.000  0.00  0.00     0.000 A 
ATOM     28  C   UNL d   1       4.479  -0.969   0.000  0.00  0.00     0.000 A 
ATOM     29  C   UNL d   1       3.661  -0.969   0.000  0.00  0.00     0.002 A 
ENDBRANCH  22  23
ENDBRANCH   5  22
TORSDOF 5
