REMARK  4 active torsions:
REMARK  status: ('A' for Active; 'I' for Inactive)
REMARK       I    between atoms: C_3  and  N_7 
REMARK    1  A    between atoms: C_6  and  C_3 
REMARK    2  A    between atoms: C_8  and  C_6 
REMARK    3  A    between atoms: N_7  and  C_9 
REMARK    4  A    between atoms: C_13  and  C_8 
ROOT
ATOM      1  C   UNL d   1       7.571  -3.297   0.000  0.00  0.00     0.279 C 
ATOM      2  N   UNL d   1       6.984  -2.714   0.000  0.00  0.00    -0.207 NA
ATOM      3  O   UNL d   1       7.359  -4.087   0.000  0.00  0.00    -0.265 OA
ENDROOT
BRANCH   1   4
ATOM      4  C   UNL d   1       8.366  -3.076   0.000  0.00  0.00     0.062 C 
BRANCH   4   5
ATOM      5  C   UNL d   1       8.953  -3.650   0.000  0.00  0.00     0.005 C 
BRANCH   5   6
ATOM      6  C   UNL d   1       9.744  -3.438   0.000  0.00  0.00     0.000 A 
ATOM      7  C   UNL d   1      10.331  -4.021   0.000  0.00  0.00     0.000 A 
ATOM      8  C   UNL d   1      11.118  -3.800   0.000  0.00  0.00     0.000 A 
ATOM      9  C   UNL d   1      11.330  -3.009   0.000  0.00  0.00     0.000 A 
ATOM     10  C   UNL d   1      10.751  -2.427   0.000  0.00  0.00     0.000 A 
ATOM     11  C   UNL d   1       9.952  -2.639   0.000  0.00  0.00     0.000 A 
ENDBRANCH   5   6
ENDBRANCH   4   5
ENDBRANCH   1   4
BRANCH   2  12
ATOM     12  C   UNL d   1       6.194  -2.934   0.000  0.00  0.00     0.097 A 
ATOM     13  C   UNL d   1       6.435  -3.725   0.000  0.00  0.00     0.118 A 
ATOM     14  S   UNL d   1       5.756  -4.200   0.000  0.00  0.00     0.213 S 
ATOM     15  O   UNL d   1       6.468  -4.612   0.000  0.00  0.00    -0.217 OA
ATOM     16  O   UNL d   1       5.036  -4.608   0.000  0.00  0.00    -0.217 OA
ATOM     17  C   UNL d   1       5.095  -3.700   0.000  0.00  0.00     0.100 A 
ATOM     18  C   UNL d   1       5.361  -2.922   0.000  0.00  0.00     0.032 A 
ENDBRANCH   2  12
TORSDOF 4
