REMARK  3 active torsions:
REMARK  status: ('A' for Active; 'I' for Inactive)
REMARK    1  A    between atoms: N_4  and  C_1 
REMARK    2  A    between atoms: C_11  and  C_3 
REMARK       I    between atoms: C_5  and  N_4 
REMARK    3  A    between atoms: C_8  and  C_5 
ROOT
ATOM      1  N   UNL d   1      -2.226   2.997   0.000  0.00  0.00    -0.183 NA
ATOM      2  C   UNL d   1      -1.609   2.447   0.000  0.00  0.00     0.281 C 
ATOM      3  O   UNL d   1      -0.825   2.722   0.000  0.00  0.00    -0.265 OA
ENDROOT
BRANCH   1   4
ATOM      4  C   UNL d   1      -3.010   2.747   0.000  0.00  0.00     0.197 A 
ATOM      5  N   UNL d   1      -3.264   1.959   0.000  0.00  0.00    -0.219 NA
ATOM      6  C   UNL d   1      -4.098   1.959   0.000  0.00  0.00     0.108 A 
ATOM      7  C   UNL d   1      -4.352   2.747   0.000  0.00  0.00     0.059 A 
ATOM      8  S   UNL d   1      -3.677   3.235   0.000  0.00  0.00    -0.046 SA
BRANCH   6   9
ATOM      9  C   UNL d   1      -4.585   1.284   0.000  0.00  0.00     0.100 A 
ATOM     10  N   UNL d   1      -4.248   0.538   0.000  0.00  0.00    -0.242 NA
ATOM     11  C   UNL d   1      -4.723  -0.138   0.000  0.00  0.00     0.099 A 
ATOM     12  C   UNL d   1      -5.540  -0.042   0.000  0.00  0.00     0.021 A 
ATOM     13  C   UNL d   1      -5.873   0.700   0.000  0.00  0.00     0.003 A 
ATOM     14  C   UNL d   1      -5.411   1.376   0.000  0.00  0.00     0.021 A 
ENDBRANCH   6   9
ENDBRANCH   1   4
BRANCH   2  15
ATOM     15  C   UNL d   1      -1.809   1.634   0.000  0.00  0.00     0.060 A 
ATOM     16  C   UNL d   1      -2.597   1.401   0.000  0.00  0.00     0.032 A 
ATOM     17  C   UNL d   1      -2.797   0.600   0.000  0.00  0.00     0.123 A 
ATOM     18  O   UNL d   1      -3.589   0.363   0.000  0.00  0.00    -0.301 OA
ATOM     19  C   UNL d   1      -2.184   0.033   0.000  0.00  0.00     0.123 A 
ATOM     20  C   UNL d   1      -3.785  -0.442   0.000  0.00  0.00     0.149 A 
ATOM     21  C   UNL d   1      -3.172  -1.013   0.000  0.00  0.00     0.149 A 
ATOM     22  O   UNL d   1      -2.384  -0.780   0.000  0.00  0.00    -0.301 OA
ATOM     23  C   UNL d   1      -1.401   0.271   0.000  0.00  0.00     0.027 A 
ATOM     24  C   UNL d   1      -1.209   1.071   0.000  0.00  0.00     0.007 A 
ENDBRANCH   2  15
TORSDOF 3
