REMARK  5 active torsions:
REMARK  status: ('A' for Active; 'I' for Inactive)
REMARK    1  A    between atoms: N_8  and  C_1 
REMARK    2  A    between atoms: C_11  and  C_2 
REMARK    3  A    between atoms: C_4  and  C_6 
REMARK       I    between atoms: C_6  and  N_8 
REMARK    4  A    between atoms: O_17  and  C_11 
REMARK    5  A    between atoms: C_19  and  O_17 
ROOT
ATOM      1  C   UNL d   1      -3.149   5.048   0.000  0.00  0.00     0.114 A 
ATOM      2  C   UNL d   1      -3.552   6.311   0.000  0.00  0.00     0.094 A 
ATOM      3  S   UNL d   1      -3.802   5.547   0.000  0.00  0.00    -0.062 SA
ATOM      4  C   UNL d   1      -2.713   6.274   0.000  0.00  0.00     0.013 A 
ATOM      5  C   UNL d   1      -2.489   5.526   0.000  0.00  0.00     0.027 A 
ATOM      6  C   UNL d   1      -2.202   6.922   0.000  0.00  0.00     0.001 C 
ENDROOT
BRANCH   1   7
ATOM      7  N   UNL d   1      -3.149   4.192   0.000  0.00  0.00    -0.201 NA
ATOM      8  C   UNL d   1      -3.860   3.789   0.000  0.00  0.00     0.286 C 
ATOM      9  O   UNL d   1      -3.852   2.962   0.000  0.00  0.00    -0.265 OA
BRANCH   8  10
ATOM     10  C   UNL d   1      -4.570   4.205   0.000  0.00  0.00     0.088 A 
ATOM     11  S   UNL d   1      -4.645   5.015   0.000  0.00  0.00    -0.071 SA
ATOM     12  C   UNL d   1      -5.443   5.198   0.000  0.00  0.00     0.087 A 
ATOM     13 CL   UNL d   1      -5.729   5.950   0.000  0.00  0.00    -0.075 Cl
ATOM     14  C   UNL d   1      -5.867   4.466   0.000  0.00  0.00     0.019 A 
ATOM     15  C   UNL d   1      -5.330   3.872   0.000  0.00  0.00     0.013 A 
ENDBRANCH   8  10
ENDBRANCH   1   7
BRANCH   2  16
ATOM     16  C   UNL d   1      -4.022   6.997   0.000  0.00  0.00     0.306 C 
ATOM     17  O   UNL d   1      -3.648   7.720   0.000  0.00  0.00    -0.258 OA
BRANCH  16  18
ATOM     18  O   UNL d   1      -4.836   6.959   0.000  0.00  0.00    -0.271 OA
BRANCH  18  19
ATOM     19  C   UNL d   1      -5.285   7.645   0.000  0.00  0.00     0.126 C 
ATOM     20  C   UNL d   1      -6.107   7.582   0.000  0.00  0.00     0.029 C 
ENDBRANCH  18  19
ENDBRANCH  16  18
ENDBRANCH   2  16
TORSDOF 5
