REMARK  6 active torsions:
REMARK  status: ('A' for Active; 'I' for Inactive)
REMARK       I    between atoms: N_2  and  C_1 
REMARK    1  A    between atoms: C_5  and  C_1 
REMARK    2  A    between atoms: C_3  and  N_2 
REMARK    3  A    between atoms: O_14  and  C_10 
REMARK    4  A    between atoms: C_18  and  O_14 
REMARK    5  A    between atoms: C_19  and  C_18 
REMARK    6  A    between atoms: C_20  and  C_19 
ROOT
ATOM      1  C   UNL d   1      -4.619   4.225   0.000  0.00  0.00     0.058 A 
ATOM      2  C   UNL d   1      -4.606   5.050   0.000  0.00  0.00     0.007 A 
ATOM      3  C   UNL d   1      -5.327   3.832   0.000  0.00  0.00     0.007 A 
ATOM      4  C   UNL d   1      -6.034   5.088   0.000  0.00  0.00     0.100 A 
ATOM      5  C   UNL d   1      -5.314   5.469   0.000  0.00  0.00     0.025 A 
ATOM      6  C   UNL d   1      -6.030   4.238   0.000  0.00  0.00     0.025 A 
ENDROOT
BRANCH   1   7
ATOM      7  C   UNL d   1      -3.890   3.819   0.000  0.00  0.00     0.281 C 
ATOM      8  N   UNL d   1      -3.174   4.225   0.000  0.00  0.00    -0.189 NA
ATOM      9  O   UNL d   1      -3.890   2.998   0.000  0.00  0.00    -0.265 OA
BRANCH   8  10
ATOM     10  C   UNL d   1      -3.174   5.067   0.000  0.00  0.00     0.166 A 
ATOM     11  N   UNL d   1      -3.915   5.444   0.000  0.00  0.00    -0.227 NA
ATOM     12  C   UNL d   1      -3.945   6.248   0.000  0.00  0.00     0.083 A 
ATOM     13  C   UNL d   1      -4.682   6.708   0.000  0.00  0.00     0.021 C 
ATOM     14  C   UNL d   1      -3.224   6.683   0.000  0.00  0.00     0.019 A 
ATOM     15  C   UNL d   1      -2.496   6.285   0.000  0.00  0.00     0.005 A 
ATOM     16  C   UNL d   1      -2.500   5.481   0.000  0.00  0.00     0.039 A 
ENDBRANCH   8  10
ENDBRANCH   1   7
BRANCH   4  17
ATOM     17  O   UNL d   1      -6.750   5.507   0.000  0.00  0.00    -0.305 OA
BRANCH  17  18
ATOM     18  C   UNL d   1      -7.475   5.117   0.000  0.00  0.00     0.123 C 
BRANCH  18  19
ATOM     19  C   UNL d   1      -8.170   5.557   0.000  0.00  0.00     0.027 C 
BRANCH  19  20
ATOM     20  C   UNL d   1      -8.899   5.142   0.000  0.00  0.00     0.002 C 
ATOM     21  C   UNL d   1      -9.614   5.557   0.000  0.00  0.00     0.000 C 
ENDBRANCH  19  20
ENDBRANCH  18  19
ENDBRANCH  17  18
ENDBRANCH   4  17
TORSDOF 6
