REMARK  5 active torsions:
REMARK  status: ('A' for Active; 'I' for Inactive)
REMARK    1  A    between atoms: N_5  and  C_1 
REMARK    2  A    between atoms: C_8  and  C_2 
REMARK       I    between atoms: C_7  and  N_5 
REMARK    3  A    between atoms: C_10  and  C_7 
REMARK    4  A    between atoms: O_12  and  C_8 
REMARK    5  A    between atoms: C_16  and  O_12 
ROOT
ATOM      1  C   UNL d   1      -3.158   5.062   0.000  0.00  0.00     0.114 A 
ATOM      2  C   UNL d   1      -3.562   6.329   0.000  0.00  0.00     0.094 A 
ATOM      3  S   UNL d   1      -3.812   5.562   0.000  0.00  0.00    -0.062 SA
ATOM      4  C   UNL d   1      -2.721   6.292   0.000  0.00  0.00     0.013 A 
ATOM      5  C   UNL d   1      -2.496   5.542   0.000  0.00  0.00     0.027 A 
ATOM      6  C   UNL d   1      -2.208   6.942   0.000  0.00  0.00     0.001 C 
ENDROOT
BRANCH   1   7
ATOM      7  N   UNL d   1      -3.158   4.204   0.000  0.00  0.00    -0.201 NA
ATOM      8  C   UNL d   1      -3.871   3.800   0.000  0.00  0.00     0.280 C 
ATOM      9  O   UNL d   1      -4.583   4.204   0.000  0.00  0.00    -0.265 OA
BRANCH   8  10
ATOM     10  C   UNL d   1      -3.871   2.983   0.000  0.00  0.00     0.058 A 
ATOM     11  C   UNL d   1      -3.171   2.558   0.000  0.00  0.00     0.005 A 
ATOM     12  C   UNL d   1      -3.158   1.733   0.000  0.00  0.00     0.000 A 
ATOM     13  C   UNL d   1      -3.883   1.333   0.000  0.00  0.00     0.000 A 
ATOM     14  C   UNL d   1      -4.596   1.746   0.000  0.00  0.00     0.000 A 
ATOM     15  C   UNL d   1      -4.596   2.571   0.000  0.00  0.00     0.005 A 
ENDBRANCH   8  10
ENDBRANCH   1   7
BRANCH   2  16
ATOM     16  C   UNL d   1      -4.033   7.017   0.000  0.00  0.00     0.306 C 
ATOM     17  O   UNL d   1      -3.658   7.742   0.000  0.00  0.00    -0.258 OA
BRANCH  16  18
ATOM     18  O   UNL d   1      -4.850   6.979   0.000  0.00  0.00    -0.271 OA
BRANCH  18  19
ATOM     19  C   UNL d   1      -5.300   7.667   0.000  0.00  0.00     0.126 C 
ATOM     20  C   UNL d   1      -6.125   7.604   0.000  0.00  0.00     0.029 C 
ENDBRANCH  18  19
ENDBRANCH  16  18
ENDBRANCH   2  16
TORSDOF 5
