REMARK  5 active torsions:
REMARK  status: ('A' for Active; 'I' for Inactive)
REMARK    1  A    between atoms: S_2  and  C_1 
REMARK    2  A    between atoms: C_5  and  C_1 
REMARK    3  A    between atoms: C_10  and  S_2 
REMARK       I    between atoms: N_9  and  C_5 
REMARK    4  A    between atoms: C_19  and  N_9 
REMARK    5  A    between atoms: C_18  and  C_19 
ROOT
ATOM      1  C   UNL d   1      -0.231   0.308   0.000  0.00  0.00     0.277 C 
ATOM      2  N   UNL d   1       0.509   0.694   0.000  0.00  0.00    -0.209 NA
ATOM      3  O   UNL d   1      -0.251  -0.524   0.000  0.00  0.00    -0.268 OA
ENDROOT
BRANCH   1   4
ATOM      4  C   UNL d   1      -0.937   0.736   0.000  0.00  0.00     0.207 A 
ATOM      5  C   UNL d   1      -1.638   1.156   0.000  0.00  0.00    -0.001 A 
ATOM      6  C   UNL d   1      -0.921   1.569   0.000  0.00  0.00    -0.001 A 
BRANCH   4   7
ATOM      7  S   UNL d   1      -1.661   0.343   0.000  0.00  0.00     0.203 S 
ATOM      8  O   UNL d   1      -1.249  -0.397   0.000  0.00  0.00    -0.221 OA
ATOM      9  O   UNL d   1      -2.047   1.064   0.000  0.00  0.00    -0.221 OA
BRANCH   7  10
ATOM     10  C   UNL d   1      -2.378  -0.062   0.000  0.00  0.00     0.085 A 
ATOM     11  C   UNL d   1      -3.084   0.366   0.000  0.00  0.00     0.011 A 
ATOM     12  C   UNL d   1      -3.804  -0.027   0.000  0.00  0.00     0.001 A 
ATOM     13  C   UNL d   1      -3.824  -0.860   0.000  0.00  0.00     0.000 A 
ATOM     14  C   UNL d   1      -3.118  -1.284   0.000  0.00  0.00     0.001 A 
ATOM     15  C   UNL d   1      -2.401  -0.894   0.000  0.00  0.00     0.011 A 
ENDBRANCH   7  10
ENDBRANCH   4   7
ENDBRANCH   1   4
BRANCH   2  16
ATOM     16  C   UNL d   1       1.230   0.251   0.000  0.00  0.00     0.102 C 
BRANCH  16  17
ATOM     17  C   UNL d   1       1.970   0.659   0.000  0.00  0.00     0.021 A 
ATOM     18  C   UNL d   1       2.671   0.231   0.000  0.00  0.00     0.028 A 
ATOM     19  C   UNL d   1       3.392   0.644   0.000  0.00  0.00     0.119 A 
ATOM     20  O   UNL d   1       4.167   0.401   0.000  0.00  0.00    -0.300 OA
ATOM     21  C   UNL d   1       3.392   1.476   0.000  0.00  0.00     0.119 A 
ATOM     22  C   UNL d   1       4.629   1.064   0.000  0.00  0.00     0.304 A 
ATOM     23  O   UNL d   1       4.167   1.711   0.000  0.00  0.00    -0.300 OA
ATOM     24  C   UNL d   1       2.671   1.881   0.000  0.00  0.00     0.026 A 
ATOM     25  C   UNL d   1       1.970   1.453   0.000  0.00  0.00     0.004 A 
ENDBRANCH  16  17
ENDBRANCH   2  16
TORSDOF 5
