REMARK  7 active torsions:
REMARK  status: ('A' for Active; 'I' for Inactive)
REMARK    1  A    between atoms: N_10  and  C_4 
REMARK    2  A    between atoms: C_16  and  N_5 
REMARK    3  A    between atoms: C_18  and  N_11 
REMARK    4  A    between atoms: C_22  and  C_16 
REMARK    5  A    between atoms: C_21  and  C_18 
REMARK    6  A    between atoms: C_24  and  C_22 
REMARK    7  A    between atoms: C_23  and  C_24 
ROOT
ATOM      1  C   UNL d   1       0.491  -2.390   0.000  0.00  0.00     0.191 A 
ATOM      2  C   UNL d   1       0.491  -1.566   0.000  0.00  0.00     0.174 A 
ATOM      3  N   UNL d   1       1.274  -2.652   0.000  0.00  0.00    -0.042 NA
ATOM      4  C   UNL d   1       1.749  -1.974   0.000  0.00  0.00     0.722 A 
ATOM      5  N   UNL d   1       1.274  -1.303   0.000  0.00  0.00    -0.132 N 
ATOM      6  N   UNL d   1      -0.225  -2.811   0.000  0.00  0.00    -0.239 N 
ATOM      7  C   UNL d   1      -0.958  -2.390   0.000  0.00  0.00     0.358 A 
ATOM      8  N   UNL d   1      -0.958  -1.566   0.000  0.00  0.00    -0.152 NA
ATOM      9  C   UNL d   1      -0.225  -1.149   0.000  0.00  0.00     0.303 A 
ATOM     10  O   UNL d   1      -1.695  -2.811   0.000  0.00  0.00    -0.244 OA
ATOM     11  O   UNL d   1      -0.225  -0.317   0.000  0.00  0.00    -0.263 OA
ATOM     12  C   UNL d   1      -0.225  -3.635   0.000  0.00  0.00     0.105 C 
ENDROOT
BRANCH   4  13
ATOM     13  N   UNL d   1       2.577  -1.974   0.000  0.00  0.00    -0.136 N 
ATOM     14  C   UNL d   1       2.990  -2.690   0.000  0.00  0.00     0.117 A 
ATOM     15  C   UNL d   1       3.814  -2.690   0.000  0.00  0.00     0.100 A 
ATOM     16  N   UNL d   1       4.226  -1.978   0.000  0.00  0.00    -0.300 N 
ATOM     17  C   UNL d   1       3.822  -1.253   0.000  0.00  0.00     0.100 A 
ATOM     18  C   UNL d   1       2.990  -1.253   0.000  0.00  0.00     0.117 A 
BRANCH  16  19
ATOM     19  C   UNL d   1       4.938  -1.566   0.000  0.00  0.00     0.080 C 
BRANCH  19  20
ATOM     20  C   UNL d   1       5.650  -1.974   0.000  0.00  0.00     0.018 A 
ATOM     21  C   UNL d   1       5.650  -2.790   0.000  0.00  0.00     0.002 A 
ATOM     22  C   UNL d   1       6.362  -3.202   0.000  0.00  0.00     0.000 A 
ATOM     23  C   UNL d   1       7.074  -2.790   0.000  0.00  0.00     0.000 A 
ATOM     24  C   UNL d   1       7.070  -1.965   0.000  0.00  0.00     0.000 A 
ATOM     25  C   UNL d   1       6.358  -1.561   0.000  0.00  0.00     0.002 A 
ENDBRANCH  19  20
ENDBRANCH  16  19
ENDBRANCH   4  13
BRANCH   5  26
ATOM     26  C   UNL d   1       1.486  -0.504   0.000  0.00  0.00     0.098 C 
BRANCH  26  27
ATOM     27  C   UNL d   1       2.286  -0.291   0.000  0.00  0.00     0.020 C 
BRANCH  27  28
ATOM     28  C   UNL d   1       2.498   0.508   0.000  0.00  0.00     0.002 C 
BRANCH  28  29
ATOM     29  C   UNL d   1       3.298   0.720   0.000  0.00  0.00     0.000 A 
ATOM     30  C   UNL d   1       3.502   1.512   0.000  0.00  0.00     0.000 A 
ATOM     31  C   UNL d   1       4.301   1.732   0.000  0.00  0.00     0.000 A 
ATOM     32  C   UNL d   1       4.888   1.145   0.000  0.00  0.00     0.000 A 
ATOM     33  C   UNL d   1       4.676   0.346   0.000  0.00  0.00     0.000 A 
ATOM     34  C   UNL d   1       3.877   0.133   0.000  0.00  0.00     0.000 A 
ENDBRANCH  28  29
ENDBRANCH  27  28
ENDBRANCH  26  27
ENDBRANCH   5  26
TORSDOF 7
