REMARK  2 active torsions:
REMARK  status: ('A' for Active; 'I' for Inactive)
REMARK    1  A    between atoms: N_5  and  C_1 
REMARK       I    between atoms: C_4  and  N_5 
REMARK    2  A    between atoms: C_7  and  C_4 
ROOT
ATOM      1  C   UNL d   1      -4.604   4.296   0.000  0.00  0.00     0.060 A 
ATOM      2  C   UNL d   1      -6.048   4.372   0.000  0.00  0.00     0.123 A 
ATOM      3  C   UNL d   1      -5.351   3.933   0.000  0.00  0.00     0.032 A 
ATOM      4  C   UNL d   1      -6.010   5.204   0.000  0.00  0.00     0.123 A 
ATOM      5  O   UNL d   1      -6.778   4.009   0.000  0.00  0.00    -0.301 OA
ATOM      6  O   UNL d   1      -6.689   5.651   0.000  0.00  0.00    -0.301 OA
ATOM      7  C   UNL d   1      -4.566   5.119   0.000  0.00  0.00     0.007 A 
ATOM      8  C   UNL d   1      -5.276   5.575   0.000  0.00  0.00     0.027 A 
ATOM      9  C   UNL d   1      -7.483   4.436   0.000  0.00  0.00     0.149 A 
ATOM     10  C   UNL d   1      -7.449   5.271   0.000  0.00  0.00     0.149 A 
ENDROOT
BRANCH   1  11
ATOM     11  C   UNL d   1      -3.921   3.849   0.000  0.00  0.00     0.281 C 
ATOM     12  N   UNL d   1      -3.199   4.258   0.000  0.00  0.00    -0.187 NA
ATOM     13  O   UNL d   1      -3.870   2.975   0.000  0.00  0.00    -0.265 OA
BRANCH  12  14
ATOM     14  C   UNL d   1      -3.199   5.107   0.000  0.00  0.00     0.194 A 
ATOM     15  N   UNL d   1      -3.862   5.601   0.000  0.00  0.00    -0.107 NA
ATOM     16  O   UNL d   1      -3.604   6.386   0.000  0.00  0.00    -0.210 OA
ATOM     17  C   UNL d   1      -2.769   6.386   0.000  0.00  0.00     0.128 A 
ATOM     18  C   UNL d   1      -2.528   5.584   0.000  0.00  0.00     0.068 A 
ATOM     19  C   UNL d   1      -2.287   7.052   0.000  0.00  0.00     0.029 C 
ENDBRANCH  12  14
ENDBRANCH   1  11
TORSDOF 2
