REMARK  5 active torsions:
REMARK  status: ('A' for Active; 'I' for Inactive)
REMARK    1  A    between atoms: N_5  and  C_1 
REMARK    2  A    between atoms: C_9  and  C_2 
REMARK       I    between atoms: C_6  and  N_5 
REMARK    3  A    between atoms: C_8  and  C_6 
REMARK    4  A    between atoms: O_14  and  C_9 
REMARK    5  A    between atoms: C_16  and  O_14 
ROOT
ATOM      1  C   UNL d   1      -3.181   5.099   0.000  0.00  0.00     0.114 A 
ATOM      2  C   UNL d   1      -3.588   6.374   0.000  0.00  0.00     0.094 A 
ATOM      3  S   UNL d   1      -3.840   5.602   0.000  0.00  0.00    -0.062 SA
ATOM      4  C   UNL d   1      -2.740   6.337   0.000  0.00  0.00     0.013 A 
ATOM      5  C   UNL d   1      -2.514   5.581   0.000  0.00  0.00     0.027 A 
ATOM      6  C   UNL d   1      -2.224   6.991   0.000  0.00  0.00     0.001 C 
ENDROOT
BRANCH   1   7
ATOM      7  N   UNL d   1      -3.181   4.234   0.000  0.00  0.00    -0.201 NA
ATOM      8  C   UNL d   1      -3.898   3.827   0.000  0.00  0.00     0.280 C 
ATOM      9  O   UNL d   1      -4.616   4.234   0.000  0.00  0.00    -0.265 OA
BRANCH   8  10
ATOM     10  C   UNL d   1      -3.898   3.005   0.000  0.00  0.00     0.058 A 
ATOM     11  C   UNL d   1      -4.280   2.274   0.000  0.00  0.00     0.005 A 
ATOM     12  C   UNL d   1      -3.508   2.211   0.000  0.00  0.00     0.005 A 
ENDBRANCH   8  10
ENDBRANCH   1   7
BRANCH   2  13
ATOM     13  C   UNL d   1      -4.062   7.067   0.000  0.00  0.00     0.306 C 
ATOM     14  O   UNL d   1      -3.684   7.797   0.000  0.00  0.00    -0.258 OA
BRANCH  13  15
ATOM     15  O   UNL d   1      -4.885   7.029   0.000  0.00  0.00    -0.271 OA
BRANCH  15  16
ATOM     16  C   UNL d   1      -5.338   7.721   0.000  0.00  0.00     0.126 C 
ATOM     17  C   UNL d   1      -6.169   7.658   0.000  0.00  0.00     0.029 C 
ENDBRANCH  15  16
ENDBRANCH  13  15
ENDBRANCH   2  13
TORSDOF 5
