REMARK  4 active torsions:
REMARK  status: ('A' for Active; 'I' for Inactive)
REMARK    1  A    between atoms: N_10  and  C_5 
REMARK    2  A    between atoms: C_12  and  N_6 
REMARK    3  A    between atoms: C_19  and  N_11 
REMARK    4  A    between atoms: C_20  and  C_12 
ROOT
ATOM      1  C   UNL d   1      -1.280   1.837   0.000  0.00  0.00     0.191 A 
ATOM      2  C   UNL d   1      -0.879   2.566   0.000  0.00  0.00     0.173 A 
ATOM      3  N   UNL d   1      -0.701   1.247   0.000  0.00  0.00    -0.042 NA
ATOM      4  N   UNL d   1      -2.132   1.820   0.000  0.00  0.00    -0.240 N 
ATOM      5  C   UNL d   1       0.072   1.614   0.000  0.00  0.00     0.722 A 
ATOM      6  N   UNL d   1      -0.084   2.416   0.000  0.00  0.00    -0.133 N 
ATOM      7  N   UNL d   1      -2.148   3.217   0.000  0.00  0.00    -0.223 N 
ATOM      8  C   UNL d   1      -2.571   2.488   0.000  0.00  0.00     0.343 A 
ATOM      9  C   UNL d   1      -1.330   3.250   0.000  0.00  0.00     0.288 A 
ATOM     10  O   UNL d   1      -3.406   2.471   0.000  0.00  0.00    -0.245 OA
ATOM     11  O   UNL d   1      -0.946   3.985   0.000  0.00  0.00    -0.265 OA
ATOM     12  C   UNL d   1      -2.516   1.102   0.000  0.00  0.00     0.105 C 
ATOM     13  C   UNL d   1      -2.566   3.952   0.000  0.00  0.00     0.107 C 
ENDROOT
BRANCH   5  14
ATOM     14  N   UNL d   1       0.841   1.263   0.000  0.00  0.00    -0.136 N 
ATOM     15  C   UNL d   1       0.907   0.428   0.000  0.00  0.00     0.117 A 
ATOM     16  C   UNL d   1       1.670   0.078   0.000  0.00  0.00     0.100 A 
ATOM     17  N   UNL d   1       2.360   0.562   0.000  0.00  0.00    -0.301 N 
ATOM     18  C   UNL d   1       2.276   1.397   0.000  0.00  0.00     0.100 A 
ATOM     19  C   UNL d   1       1.520   1.753   0.000  0.00  0.00     0.117 A 
BRANCH  17  20
ATOM     20  C   UNL d   1       3.078   0.145   0.000  0.00  0.00     0.064 A 
ATOM     21  C   UNL d   1       3.078  -0.685   0.000  0.00  0.00     0.018 A 
ATOM     22  C   UNL d   1       3.796  -1.091   0.000  0.00  0.00     0.002 A 
ATOM     23  C   UNL d   1       4.514  -0.673   0.000  0.00  0.00     0.000 A 
ATOM     24  C   UNL d   1       4.514   0.161   0.000  0.00  0.00     0.002 A 
ATOM     25  C   UNL d   1       3.796   0.568   0.000  0.00  0.00     0.018 A 
ENDBRANCH  17  20
ENDBRANCH   5  14
BRANCH   6  26
ATOM     26  C   UNL d   1       0.317   3.117   0.000  0.00  0.00     0.098 C 
BRANCH  26  27
ATOM     27  C   UNL d   1       1.119   3.117   0.000  0.00  0.00     0.018 A 
ATOM     28  C   UNL d   1       1.508   3.801   0.000  0.00  0.00     0.002 A 
ATOM     29  C   UNL d   1       2.310   3.807   0.000  0.00  0.00     0.000 A 
ATOM     30  C   UNL d   1       2.878   4.386   0.000  0.00  0.00     0.000 C 
ATOM     31  C   UNL d   1       2.722   3.117   0.000  0.00  0.00     0.000 A 
ATOM     32  C   UNL d   1       2.310   2.416   0.000  0.00  0.00     0.000 A 
ATOM     33  C   UNL d   1       1.520   2.416   0.000  0.00  0.00     0.002 A 
ENDBRANCH  26  27
ENDBRANCH   6  26
TORSDOF 4
