REMARK  5 active torsions:
REMARK  status: ('A' for Active; 'I' for Inactive)
REMARK    1  A    between atoms: N_5  and  C_1 
REMARK    2  A    between atoms: C_8  and  C_2 
REMARK       I    between atoms: C_6  and  N_5 
REMARK    3  A    between atoms: C_9  and  C_6 
REMARK    4  A    between atoms: O_12  and  C_8 
REMARK    5  A    between atoms: C_17  and  O_12 
ROOT
ATOM      1  C   UNL d   1      -3.149   5.048   0.000  0.00  0.00     0.114 A 
ATOM      2  C   UNL d   1      -3.552   6.311   0.000  0.00  0.00     0.094 A 
ATOM      3  S   UNL d   1      -3.802   5.547   0.000  0.00  0.00    -0.062 SA
ATOM      4  C   UNL d   1      -2.713   6.274   0.000  0.00  0.00     0.013 A 
ATOM      5  C   UNL d   1      -2.489   5.526   0.000  0.00  0.00     0.026 A 
ATOM      6  C   UNL d   1      -2.202   6.922   0.000  0.00  0.00     0.001 C 
ENDROOT
BRANCH   1   7
ATOM      7  N   UNL d   1      -3.149   4.192   0.000  0.00  0.00    -0.205 NA
ATOM      8  C   UNL d   1      -3.860   3.789   0.000  0.00  0.00     0.255 C 
ATOM      9  O   UNL d   1      -4.570   4.188   0.000  0.00  0.00    -0.270 OA
BRANCH   8  10
ATOM     10  C   UNL d   1      -3.864   2.975   0.000  0.00  0.00     0.073 C 
ATOM     11  C   UNL d   1      -4.599   2.476   0.000  0.00  0.00     0.009 C 
ATOM     12  C   UNL d   1      -3.137   2.514   0.000  0.00  0.00     0.009 C 
ATOM     13  C   UNL d   1      -3.852   2.264   0.000  0.00  0.00     0.009 C 
ENDBRANCH   8  10
ENDBRANCH   1   7
BRANCH   2  14
ATOM     14  C   UNL d   1      -4.022   6.997   0.000  0.00  0.00     0.306 C 
ATOM     15  O   UNL d   1      -3.648   7.720   0.000  0.00  0.00    -0.258 OA
BRANCH  14  16
ATOM     16  O   UNL d   1      -4.836   6.959   0.000  0.00  0.00    -0.271 OA
BRANCH  16  17
ATOM     17  C   UNL d   1      -5.285   7.645   0.000  0.00  0.00     0.126 C 
ATOM     18  C   UNL d   1      -6.107   7.582   0.000  0.00  0.00     0.029 C 
ENDBRANCH  16  17
ENDBRANCH  14  16
ENDBRANCH   2  14
TORSDOF 5
