REMARK  5 active torsions:
REMARK  status: ('A' for Active; 'I' for Inactive)
REMARK    1  A    between atoms: C_10  and  N_6 
REMARK    2  A    between atoms: N_13  and  C_9 
REMARK    3  A    between atoms: C_14  and  C_10 
REMARK    4  A    between atoms: C_21  and  N_13 
REMARK    5  A    between atoms: C_24  and  C_21 
ROOT
ATOM      1  C   UNL d   1       0.461  -1.501   0.000  0.00  0.00     0.176 A 
ATOM      2  C   UNL d   1       0.461  -0.702   0.000  0.00  0.00     0.159 A 
ATOM      3  N   UNL d   1       1.146  -1.915   0.000  0.00  0.00    -0.181 NA
ATOM      4  N   UNL d   1      -0.241  -1.907   0.000  0.00  0.00    -0.240 N 
ATOM      5  N   UNL d   1      -0.934  -0.702   0.000  0.00  0.00    -0.223 N 
ATOM      6  N   UNL d   1       1.843  -0.702   0.000  0.00  0.00    -0.258 N 
ATOM      7  C   UNL d   1      -0.934  -1.514   0.000  0.00  0.00     0.343 A 
ATOM      8  C   UNL d   1      -0.241  -0.304   0.000  0.00  0.00     0.287 A 
ATOM      9  C   UNL d   1       1.831  -1.526   0.000  0.00  0.00     0.292 A 
ATOM     10  O   UNL d   1      -1.636  -1.915   0.000  0.00  0.00    -0.245 OA
ATOM     11  O   UNL d   1      -0.241   0.516   0.000  0.00  0.00    -0.265 OA
ATOM     12  C   UNL d   1      -0.241  -2.714   0.000  0.00  0.00     0.105 C 
ATOM     13  C   UNL d   1      -1.657  -0.283   0.000  0.00  0.00     0.107 C 
ENDROOT
BRANCH   6  14
ATOM     14  C   UNL d   1       2.262   0.008   0.000  0.00  0.00     0.084 C 
BRANCH  14  15
ATOM     15  C   UNL d   1       3.095   0.008   0.000  0.00  0.00     0.018 A 
ATOM     16  C   UNL d   1       3.492   0.731   0.000  0.00  0.00     0.002 A 
ATOM     17  C   UNL d   1       4.325   0.731   0.000  0.00  0.00     0.000 A 
ATOM     18  C   UNL d   1       4.913   1.327   0.000  0.00  0.00     0.000 C 
ATOM     19  C   UNL d   1       4.748   0.008   0.000  0.00  0.00     0.000 A 
ATOM     20  C   UNL d   1       4.325  -0.702   0.000  0.00  0.00     0.000 A 
ATOM     21  C   UNL d   1       3.501  -0.702   0.000  0.00  0.00     0.002 A 
ENDBRANCH  14  15
ENDBRANCH   6  14
BRANCH   9  22
ATOM     22  N   UNL d   1       2.524  -1.919   0.000  0.00  0.00    -0.365 NA
BRANCH  22  23
ATOM     23  C   UNL d   1       3.112  -2.511   0.000  0.00  0.00     0.164 C 
BRANCH  23  24
ATOM     24  C   UNL d   1       3.923  -2.296   0.000  0.00  0.00     0.035 C 
ATOM     25  C   UNL d   1       4.515  -2.883   0.000  0.00  0.00     0.003 C 
ENDBRANCH  23  24
ENDBRANCH  22  23
ENDBRANCH   9  22
TORSDOF 5
