REMARK  3 active torsions:
REMARK  status: ('A' for Active; 'I' for Inactive)
REMARK    1  A    between atoms: N_3  and  C_1 
REMARK    2  A    between atoms: N_6  and  N_2 
REMARK    3  A    between atoms: S_5  and  N_6 
ROOT
ATOM      1  C   UNL d   1      -0.353   1.604   0.000  0.00  0.00     0.771 A 
ATOM      2  N   UNL d   1       0.321   1.123   0.000  0.00  0.00    -0.026 N 
ATOM      3  N   UNL d   1      -0.105   2.388   0.000  0.00  0.00     0.048 NA
ATOM      4  C   UNL d   1       0.981   1.609   0.000  0.00  0.00     0.204 A 
ATOM      5  N   UNL d   1       0.720   2.393   0.000  0.00  0.00    -0.112 NA
ATOM      6  C   UNL d   1       1.765   1.361   0.000  0.00  0.00     0.044 C 
ENDROOT
BRANCH   1   7
ATOM      7  N   UNL d   1      -1.137   1.334   0.000  0.00  0.00    -0.056 N 
ATOM      8  N   UNL d   1      -1.384   0.545   0.000  0.00  0.00    -0.150 NA
ATOM      9  C   UNL d   1      -2.209   0.536   0.000  0.00  0.00     0.103 A 
ATOM     10  C   UNL d   1      -2.690  -0.138   0.000  0.00  0.00     0.022 C 
ATOM     11  C   UNL d   1      -2.470   1.315   0.000  0.00  0.00     0.041 A 
ATOM     12  C   UNL d   1      -1.810   1.810   0.000  0.00  0.00     0.102 A 
ATOM     13  C   UNL d   1      -1.824   2.635   0.000  0.00  0.00     0.021 C 
ENDBRANCH   1   7
BRANCH   2  14
ATOM     14  N   UNL d   1       0.321   0.298   0.000  0.00  0.00    -0.059 NA
BRANCH  14  15
ATOM     15  S   UNL d   1       1.045  -0.115   0.000  0.00  0.00     0.282 S 
ATOM     16  O   UNL d   1       0.706  -0.857   0.000  0.00  0.00    -0.201 OA
ATOM     17  O   UNL d   1       1.380   0.642   0.000  0.00  0.00    -0.201 OA
ATOM     18  C   UNL d   1       1.792  -0.445   0.000  0.00  0.00     0.167 C 
ENDBRANCH  14  15
ENDBRANCH   2  14
TORSDOF 3
