REMARK  3 active torsions:
REMARK  status: ('A' for Active; 'I' for Inactive)
REMARK    1  A    between atoms: C_3  and  C_1 
REMARK    2  A    between atoms: C_8  and  C_3 
REMARK    3  A    between atoms: C_10  and  C_4 
ROOT
ATOM      1  C   UNL d   1      -1.268   1.463   0.000  0.00  0.00     0.092 C 
ATOM      2  C   UNL d   1      -1.819   0.850   0.000  0.00  0.00     0.103 C 
ATOM      3  N   UNL d   1      -2.361   0.209   0.000  0.00  0.00    -0.191 NA
ENDROOT
BRANCH   1   4
ATOM      4  C   UNL d   1      -0.451   1.278   0.000  0.00  0.00     0.120 A 
ATOM      5  N   UNL d   1       0.190   1.824   0.000  0.00  0.00    -0.238 NA
ATOM      6  C   UNL d   1       0.898   1.392   0.000  0.00  0.00     0.088 A 
ATOM      7  C   UNL d   1       0.689   0.594   0.000  0.00  0.00     0.056 A 
ATOM      8  S   UNL d   1      -0.128   0.551   0.000  0.00  0.00    -0.065 SA
BRANCH   6   9
ATOM      9  C   UNL d   1       1.672   1.734   0.000  0.00  0.00     0.018 A 
ATOM     10  C   UNL d   1       1.744   2.561   0.000  0.00  0.00     0.002 A 
ATOM     11  C   UNL d   1       2.494   2.902   0.000  0.00  0.00     0.000 A 
ATOM     12  C   UNL d   1       3.197   2.418   0.000  0.00  0.00     0.000 A 
ATOM     13  C   UNL d   1       3.112   1.596   0.000  0.00  0.00     0.000 A 
ATOM     14  C   UNL d   1       2.337   1.254   0.000  0.00  0.00     0.002 A 
ENDBRANCH   6   9
ENDBRANCH   1   4
BRANCH   1  15
ATOM     15  C   UNL d   1      -1.539   2.237   0.000  0.00  0.00     0.012 A 
ATOM     16  C   UNL d   1      -2.295   2.589   0.000  0.00  0.00     0.001 A 
ATOM     17  C   UNL d   1      -2.204   3.401   0.000  0.00  0.00     0.000 A 
ATOM     18  C   UNL d   1      -1.406   3.558   0.000  0.00  0.00     0.000 A 
ATOM     19  C   UNL d   1      -0.993   2.850   0.000  0.00  0.00     0.001 A 
ENDBRANCH   1  15
TORSDOF 3
