REMARK  4 active torsions:
REMARK  status: ('A' for Active; 'I' for Inactive)
REMARK    1  A    between atoms: C_2  and  C_1 
REMARK    2  A    between atoms: C_15  and  C_8 
REMARK    3  A    between atoms: C_9  and  C_15 
REMARK    4  A    between atoms: C_18  and  C_10 
ROOT
ATOM      1  C   UNL d   1       1.970  -0.878   0.000  0.00  0.00     0.094 A 
ATOM      2  N   UNL d   1       1.415  -0.267   0.000  0.00  0.00    -0.238 NA
ATOM      3  C   UNL d   1       0.668  -0.633   0.000  0.00  0.00     0.113 A 
ATOM      4  S   UNL d   1       0.765  -1.468   0.000  0.00  0.00    -0.066 SA
ATOM      5  C   UNL d   1       1.577  -1.603   0.000  0.00  0.00     0.056 A 
ENDROOT
BRANCH   3   6
ATOM      6  C   UNL d   1      -0.048  -0.249   0.000  0.00  0.00     0.051 C 
BRANCH   6   7
ATOM      7  C   UNL d   1      -0.747  -0.668   0.000  0.00  0.00     0.113 A 
ATOM      8  N   UNL d   1      -1.542  -0.419   0.000  0.00  0.00    -0.238 NA
ATOM      9  C   UNL d   1      -2.027  -1.101   0.000  0.00  0.00     0.088 A 
ATOM     10  C   UNL d   1      -1.516  -1.748   0.000  0.00  0.00     0.056 A 
ATOM     11  S   UNL d   1      -0.747  -1.499   0.000  0.00  0.00    -0.066 SA
BRANCH   9  12
ATOM     12  C   UNL d   1      -2.844  -1.101   0.000  0.00  0.00     0.018 A 
ATOM     13  C   UNL d   1      -3.264  -1.787   0.000  0.00  0.00     0.002 A 
ATOM     14  C   UNL d   1      -4.085  -1.782   0.000  0.00  0.00     0.000 A 
ATOM     15  C   UNL d   1      -4.478  -1.066   0.000  0.00  0.00     0.000 A 
ATOM     16  C   UNL d   1      -4.059  -0.371   0.000  0.00  0.00     0.000 A 
ATOM     17  C   UNL d   1      -5.317  -1.066   0.000  0.00  0.00     0.000 C 
ATOM     18  C   UNL d   1      -3.246  -0.385   0.000  0.00  0.00     0.002 A 
ENDBRANCH   9  12
ENDBRANCH   6   7
ENDBRANCH   3   6
BRANCH   1  19
ATOM     19  C   UNL d   1       2.783  -0.686   0.000  0.00  0.00     0.082 A 
ATOM     20  C   UNL d   1       3.395  -1.311   0.000  0.00  0.00     0.302 A 
ATOM     21  O   UNL d   1       4.194  -1.101   0.000  0.00  0.00    -0.273 OA
ATOM     22  O   UNL d   1       3.198  -2.150   0.000  0.00  0.00    -0.259 OA
ATOM     23  C   UNL d   1       4.421  -0.293   0.000  0.00  0.00     0.103 A 
ATOM     24  C   UNL d   1       3.845   0.297   0.000  0.00  0.00     0.023 A 
ATOM     25  C   UNL d   1       5.230  -0.122   0.000  0.00  0.00     0.025 A 
ATOM     26  C   UNL d   1       3.028   0.105   0.000  0.00  0.00     0.009 A 
ATOM     27  C   UNL d   1       4.076   1.101   0.000  0.00  0.00     0.002 A 
ATOM     28  C   UNL d   1       4.876   1.311   0.000  0.00  0.00     0.000 A 
ATOM     29  C   UNL d   1       5.457   0.681   0.000  0.00  0.00     0.002 A 
ENDBRANCH   1  19
TORSDOF 4
