REMARK  1 active torsions:
REMARK  status: ('A' for Active; 'I' for Inactive)
REMARK    1  A    between atoms: C_10  and  C_4 
ROOT
ATOM      1  C   UNL d   1       0.384  -2.675   0.000  0.00  0.00     0.111 A 
ATOM      2  C   UNL d   1      -0.849  -1.927   0.000  0.00  0.00     0.062 A 
ATOM      3  C   UNL d   1      -0.027  -3.369   0.000  0.00  0.00     0.213 A 
ATOM      4  C   UNL d   1      -0.027  -1.927   0.000  0.00  0.00     0.018 A 
ATOM      5  C   UNL d   1      -1.276  -2.664   0.000  0.00  0.00     0.105 A 
ATOM      6  O   UNL d   1      -0.891  -3.353   0.000  0.00  0.00    -0.287 OA
ATOM      7  C   UNL d   1       1.201  -2.675   0.000  0.00  0.00     0.105 C 
ATOM      8  C   UNL d   1      -1.276  -1.223   0.000  0.00  0.00     0.198 A 
ATOM      9  N   UNL d   1       2.034  -2.675   0.000  0.00  0.00    -0.191 NA
ATOM     10  N   UNL d   1       0.368  -4.121   0.000  0.00  0.00    -0.120 N 
ATOM     11  O   UNL d   1      -0.827  -0.534   0.000  0.00  0.00    -0.286 OA
ATOM     12  C   UNL d   1      -2.109  -2.664   0.000  0.00  0.00     0.025 A 
ATOM     13  C   UNL d   1      -2.093  -1.223   0.000  0.00  0.00     0.042 A 
ATOM     14  C   UNL d   1      -2.525  -1.927   0.000  0.00  0.00     0.005 A 
ENDROOT
BRANCH   4  15
ATOM     15  C   UNL d   1       0.368  -1.217   0.000  0.00  0.00     0.001 A 
ATOM     16  C   UNL d   1      -0.043  -0.496   0.000  0.00  0.00     0.000 A 
ATOM     17  C   UNL d   1       0.368   0.219   0.000  0.00  0.00     0.000 A 
ATOM     18  C   UNL d   1       1.190   0.235   0.000  0.00  0.00     0.000 A 
ATOM     19  C   UNL d   1       1.602  -0.486   0.000  0.00  0.00     0.000 A 
ATOM     20  C   UNL d   1       1.190  -1.201   0.000  0.00  0.00     0.000 A 
ENDBRANCH   4  15
TORSDOF 1
