REMARK  3 active torsions:
REMARK  status: ('A' for Active; 'I' for Inactive)
REMARK    1  A    between atoms: C_10  and  C_5 
REMARK    2  A    between atoms: C_16  and  C_10 
REMARK    3  A    between atoms: C_17  and  C_16 
ROOT
ATOM      1  C   UNL d   1      -0.067  -2.896   0.000  0.00  0.00     0.111 A 
ATOM      2  C   UNL d   1      -1.331  -2.206   0.000  0.00  0.00     0.062 A 
ATOM      3  C   UNL d   1      -0.529  -3.648   0.000  0.00  0.00     0.213 A 
ATOM      4  C   UNL d   1      -1.732  -2.896   0.000  0.00  0.00     0.101 A 
ATOM      5  C   UNL d   1      -0.496  -2.206   0.000  0.00  0.00     0.018 A 
ATOM      6  O   UNL d   1      -1.331  -3.615   0.000  0.00  0.00    -0.288 OA
ATOM      7  C   UNL d   1      -1.732  -1.476   0.000  0.00  0.00     0.194 A 
ATOM      8  C   UNL d   1       0.757  -2.896   0.000  0.00  0.00     0.105 C 
ATOM      9  N   UNL d   1       1.587  -2.874   0.000  0.00  0.00    -0.191 NA
ATOM     10  C   UNL d   1      -2.557  -2.896   0.000  0.00  0.00     0.002 A 
ATOM     11  C   UNL d   1      -2.985  -2.206   0.000  0.00  0.00     0.042 A 
ATOM     12  C   UNL d   1      -2.534  -1.454   0.000  0.00  0.00     0.019 A 
ATOM     13  O   UNL d   1      -1.298  -0.735   0.000  0.00  0.00    -0.287 OA
ATOM     14  N   UNL d   1      -0.150  -4.417   0.000  0.00  0.00    -0.120 N 
ATOM     15  C   UNL d   1      -3.704  -2.629   0.000  0.00  0.00     0.009 C 
ATOM     16  C   UNL d   1      -3.542  -1.610   0.000  0.00  0.00     0.009 C 
ENDROOT
BRANCH   5  17
ATOM     17  C   UNL d   1      -0.044  -1.476   0.000  0.00  0.00     0.001 C 
BRANCH  17  18
ATOM     18  C   UNL d   1      -0.446  -0.757   0.000  0.00  0.00     0.000 C 
BRANCH  18  19
ATOM     19  C   UNL d   1       0.006  -0.067   0.000  0.00  0.00     0.000 A 
ATOM     20  C   UNL d   1      -0.395   0.663   0.000  0.00  0.00     0.000 A 
ATOM     21  C   UNL d   1       0.039   1.353   0.000  0.00  0.00     0.000 A 
ATOM     22  C   UNL d   1       0.869   1.331   0.000  0.00  0.00     0.000 A 
ATOM     23  C   UNL d   1       1.270   0.602   0.000  0.00  0.00     0.000 A 
ATOM     24  C   UNL d   1       0.841  -0.089   0.000  0.00  0.00     0.000 A 
ENDBRANCH  18  19
ENDBRANCH  17  18
ENDBRANCH   5  17
TORSDOF 3
