REMARK  5 active torsions:
REMARK  status: ('A' for Active; 'I' for Inactive)
REMARK    1  A    between atoms: N_2  and  C_1 
REMARK    2  A    between atoms: N_3  and  C_1 
REMARK       I    between atoms: C_4  and  N_2 
REMARK    3  A    between atoms: C_15  and  C_4 
REMARK    4  A    between atoms: O_17  and  C_9 
REMARK    5  A    between atoms: O_18  and  C_10 
ROOT
ATOM      1  N   UNL d   1       1.429  -2.228   0.000  0.00  0.00    -0.281 N 
ATOM      2  C   UNL d   1      -0.008  -2.236   0.000  0.00  0.00     0.020 A 
ATOM      3  C   UNL d   1       0.712  -2.640   0.000  0.00  0.00     0.082 A 
ATOM      4  C   UNL d   1      -0.008  -1.403   0.000  0.00  0.00     0.005 A 
ATOM      5  C   UNL d   1      -0.725  -2.640   0.000  0.00  0.00     0.028 A 
ATOM      6  C   UNL d   1      -1.437  -2.228   0.000  0.00  0.00     0.116 A 
ATOM      7  C   UNL d   1      -1.437  -1.403   0.000  0.00  0.00     0.116 A 
ATOM      8  C   UNL d   1      -0.725  -0.991   0.000  0.00  0.00     0.026 A 
ATOM      9  C   UNL d   1       1.429  -1.391   0.000  0.00  0.00     0.082 A 
ATOM     10  C   UNL d   1       0.704  -0.979   0.000  0.00  0.00     0.019 A 
ENDROOT
BRANCH   1  11
ATOM     11  C   UNL d   1       2.149  -2.640   0.000  0.00  0.00     0.209 C 
ATOM     12  S   UNL d   1       2.149  -3.465   0.000  0.00  0.00    -0.038 SA
BRANCH  11  13
ATOM     13  N   UNL d   1       2.861  -2.224   0.000  0.00  0.00    -0.180 NA
ATOM     14  C   UNL d   1       3.577  -2.636   0.000  0.00  0.00     0.281 C 
ATOM     15  O   UNL d   1       3.577  -3.461   0.000  0.00  0.00    -0.265 OA
BRANCH  14  16
ATOM     16  C   UNL d   1       4.290  -2.216   0.000  0.00  0.00     0.058 A 
ATOM     17  C   UNL d   1       5.002  -2.628   0.000  0.00  0.00     0.005 A 
ATOM     18  C   UNL d   1       5.714  -2.216   0.000  0.00  0.00     0.000 A 
ATOM     19  C   UNL d   1       5.710  -1.391   0.000  0.00  0.00     0.000 A 
ATOM     20  C   UNL d   1       4.989  -0.979   0.000  0.00  0.00     0.000 A 
ATOM     21  C   UNL d   1       4.277  -1.399   0.000  0.00  0.00     0.005 A 
ENDBRANCH  14  16
ENDBRANCH  11  13
ENDBRANCH   1  11
BRANCH   6  22
ATOM     22  O   UNL d   1      -2.149  -2.640   0.000  0.00  0.00    -0.326 OA
ATOM     23  C   UNL d   1      -2.149  -3.465   0.000  0.00  0.00     0.181 C 
ENDBRANCH   6  22
BRANCH   7  24
ATOM     24  O   UNL d   1      -2.157  -0.991   0.000  0.00  0.00    -0.326 OA
ATOM     25  C   UNL d   1      -2.869  -1.403   0.000  0.00  0.00     0.181 C 
ENDBRANCH   7  24
TORSDOF 5
