REMARK  5 active torsions:
REMARK  status: ('A' for Active; 'I' for Inactive)
REMARK    1  A    between atoms: C_3  and  C_2 
REMARK    2  A    between atoms: C_7  and  C_3 
REMARK    3  A    between atoms: C_10  and  C_4 
REMARK    4  A    between atoms: C_12  and  C_7 
REMARK    5  A    between atoms: C_18  and  C_11 
ROOT
ATOM      1  C   UNL d   1      -0.361   0.379   0.000  0.00  0.00     0.092 C 
ATOM      2  C   UNL d   1      -0.798   1.079   0.000  0.00  0.00     0.103 C 
ATOM      3  N   UNL d   1      -1.235   1.778   0.000  0.00  0.00    -0.191 NA
ENDROOT
BRANCH   1   4
ATOM      4  C   UNL d   1       0.463   0.412   0.000  0.00  0.00     0.120 A 
ATOM      5  N   UNL d   1       0.845   1.137   0.000  0.00  0.00    -0.238 NA
ATOM      6  C   UNL d   1       1.665   0.991   0.000  0.00  0.00     0.088 A 
ATOM      7  C   UNL d   1       1.764   0.186   0.000  0.00  0.00     0.056 A 
ATOM      8  S   UNL d   1       1.038  -0.179   0.000  0.00  0.00    -0.065 SA
BRANCH   6   9
ATOM      9  C   UNL d   1       2.190   1.629   0.000  0.00  0.00     0.018 A 
ATOM     10  C   UNL d   1       1.928   2.401   0.000  0.00  0.00     0.005 A 
ATOM     11  C   UNL d   1       2.452   3.013   0.000  0.00  0.00     0.042 A 
ATOM     12  C   UNL d   1       3.268   2.886   0.000  0.00  0.00     0.196 A 
ATOM     13  C   UNL d   1       3.545   2.110   0.000  0.00  0.00     0.042 A 
ATOM     14  O   UNL d   1       3.881   3.334   0.000  0.00  0.00    -0.287 OA
ATOM     15  C   UNL d   1       3.006   1.487   0.000  0.00  0.00     0.005 A 
ENDBRANCH   6   9
ENDBRANCH   1   4
BRANCH   1  16
ATOM     16  C   UNL d   1      -0.743  -0.353   0.000  0.00  0.00     0.012 C 
BRANCH  16  17
ATOM     17  C   UNL d   1      -1.585  -0.394   0.000  0.00  0.00     0.001 A 
ATOM     18  C   UNL d   1      -1.997   0.317   0.000  0.00  0.00     0.000 A 
ATOM     19  C   UNL d   1      -2.860   0.291   0.000  0.00  0.00     0.000 A 
ATOM     20  C   UNL d   1      -3.236  -0.452   0.000  0.00  0.00     0.000 A 
ATOM     21  C   UNL d   1      -2.798  -1.151   0.000  0.00  0.00     0.000 A 
ATOM     22  C   UNL d   1      -1.986  -1.137   0.000  0.00  0.00     0.000 A 
BRANCH  20  23
ATOM     23  C   UNL d   1      -4.085  -0.452   0.000  0.00  0.00     0.000 C 
ATOM     24  C   UNL d   1      -4.511   0.248   0.000  0.00  0.00     0.000 C 
ATOM     25  C   UNL d   1      -4.478  -1.181   0.000  0.00  0.00     0.000 C 
ENDBRANCH  20  23
ENDBRANCH  16  17
ENDBRANCH   1  16
TORSDOF 5
