REMARK  4 active torsions:
REMARK  status: ('A' for Active; 'I' for Inactive)
REMARK    1  A    between atoms: C_8  and  C_1 
REMARK    2  A    between atoms: C_14  and  C_5 
REMARK    3  A    between atoms: O_16  and  C_8 
REMARK    4  A    between atoms: C_21  and  O_16 
ROOT
ATOM      1  C   UNL d   1       0.167   0.607   0.000  0.00  0.00     0.106 A 
ATOM      2  C   UNL d   1       0.167  -0.218   0.000  0.00  0.00     0.208 A 
ATOM      3  C   UNL d   1      -1.270   0.607   0.000  0.00  0.00     0.061 A 
ATOM      4  C   UNL d   1      -1.270  -0.218   0.000  0.00  0.00     0.101 A 
ATOM      5  C   UNL d   1      -0.562   1.027   0.000  0.00  0.00     0.014 A 
ATOM      6  O   UNL d   1      -0.562  -0.628   0.000  0.00  0.00    -0.288 OA
ATOM      7  C   UNL d   1      -1.969   1.027   0.000  0.00  0.00     0.194 A 
ATOM      8  C   UNL d   1      -1.969  -0.628   0.000  0.00  0.00     0.002 A 
ATOM      9  C   UNL d   1      -2.672  -0.218   0.000  0.00  0.00     0.042 A 
ATOM     10  C   UNL d   1      -2.672   0.607   0.000  0.00  0.00     0.019 A 
ATOM     11  O   UNL d   1      -1.969   1.847   0.000  0.00  0.00    -0.287 OA
ATOM     12  N   UNL d   1       0.896  -0.628   0.000  0.00  0.00    -0.121 N 
ATOM     13  C   UNL d   1      -3.477  -0.035   0.000  0.00  0.00     0.009 C 
ATOM     14  C   UNL d   1      -3.092  -0.947   0.000  0.00  0.00     0.009 C 
ENDROOT
BRANCH   5  15
ATOM     15  C   UNL d   1      -0.562   1.847   0.000  0.00  0.00     0.000 A 
ATOM     16  C   UNL d   1      -1.270   2.262   0.000  0.00  0.00     0.000 A 
ATOM     17  C   UNL d   1      -1.240   3.092   0.000  0.00  0.00     0.000 A 
ATOM     18  C   UNL d   1      -0.541   3.502   0.000  0.00  0.00     0.000 A 
ATOM     19  C   UNL d   1       0.167   3.092   0.000  0.00  0.00     0.000 A 
ATOM     20  C   UNL d   1       0.167   2.262   0.000  0.00  0.00     0.000 A 
ENDBRANCH   5  15
BRANCH   1  21
ATOM     21  C   UNL d   1       0.896   1.027   0.000  0.00  0.00     0.304 C 
ATOM     22  O   UNL d   1       0.896   1.822   0.000  0.00  0.00    -0.259 OA
BRANCH  21  23
ATOM     23  O   UNL d   1       1.599   0.607   0.000  0.00  0.00    -0.271 OA
BRANCH  23  24
ATOM     24  C   UNL d   1       1.579  -0.035   0.000  0.00  0.00     0.126 C 
ATOM     25  C   UNL d   1       2.283  -0.506   0.000  0.00  0.00     0.029 C 
ENDBRANCH  23  24
ENDBRANCH  21  23
ENDBRANCH   1  21
TORSDOF 4
