REMARK  5 active torsions:
REMARK  status: ('A' for Active; 'I' for Inactive)
REMARK    1  A    between atoms: C_8  and  C_1 
REMARK    2  A    between atoms: C_10  and  C_2 
REMARK    3  A    between atoms: N_6  and  C_9 
REMARK    4  A    between atoms: O_19  and  C_8 
REMARK    5  A    between atoms: C_21  and  O_19 
ROOT
ATOM      1  C   UNL d   1       3.745  -4.331   0.000  0.00  0.00     0.099 A 
ATOM      2  C   UNL d   1       4.455  -3.910   0.000  0.00  0.00     0.093 A 
ATOM      3  C   UNL d   1       3.745  -5.161   0.000  0.00  0.00     0.093 A 
ATOM      4  N   UNL d   1       5.175  -4.331   0.000  0.00  0.00    -0.191 NA
ATOM      5  C   UNL d   1       5.175  -5.161   0.000  0.00  0.00     0.369 A 
ATOM      6  N   UNL d   1       4.455  -5.573   0.000  0.00  0.00    -0.191 NA
ATOM      7  O   UNL d   1       5.889  -5.573   0.000  0.00  0.00    -0.242 OA
ATOM      8  C   UNL d   1       3.030  -5.569   0.000  0.00  0.00     0.021 C 
ENDROOT
BRANCH   2   9
ATOM      9  C   UNL d   1       4.460  -3.085   0.000  0.00  0.00     0.018 A 
ATOM     10  C   UNL d   1       3.745  -2.681   0.000  0.00  0.00     0.003 A 
ATOM     11  C   UNL d   1       3.740  -1.861   0.000  0.00  0.00     0.024 A 
ATOM     12  C   UNL d   1       4.455  -1.435   0.000  0.00  0.00     0.127 A 
ATOM     13  C   UNL d   1       5.175  -1.847   0.000  0.00  0.00     0.024 A 
ATOM     14  C   UNL d   1       5.175  -2.672   0.000  0.00  0.00     0.003 A 
BRANCH  12  15
ATOM     15  N   UNL d   1       4.455  -0.610   0.000  0.00  0.00    -0.114 N 
ATOM     16  O   UNL d   1       5.170  -0.197   0.000  0.00  0.00    -0.532 OA
ATOM     17  O   UNL d   1       3.740  -0.197   0.000  0.00  0.00    -0.532 OA
ENDBRANCH  12  15
ENDBRANCH   2   9
BRANCH   1  18
ATOM     18  C   UNL d   1       3.030  -3.923   0.000  0.00  0.00     0.303 C 
ATOM     19  O   UNL d   1       3.025  -3.098   0.000  0.00  0.00    -0.259 OA
BRANCH  18  20
ATOM     20  O   UNL d   1       2.315  -4.336   0.000  0.00  0.00    -0.271 OA
BRANCH  20  21
ATOM     21  C   UNL d   1       1.600  -3.923   0.000  0.00  0.00     0.126 C 
ATOM     22  C   UNL d   1       0.894  -4.336   0.000  0.00  0.00     0.029 C 
ENDBRANCH  20  21
ENDBRANCH  18  20
ENDBRANCH   1  18
TORSDOF 5
