REMARK  2 active torsions:
REMARK  status: ('A' for Active; 'I' for Inactive)
REMARK    1  A    between atoms: C_7  and  C_3 
REMARK    2  A    between atoms: N_9  and  C_8 
ROOT
ATOM      1  N   UNL d   1      -1.755  -0.529   0.000  0.00  0.00    -0.227 NA
ATOM      2  N   UNL d   1      -1.035   0.694   0.000  0.00  0.00    -0.227 NA
ATOM      3  C   UNL d   1      -1.035  -0.139   0.000  0.00  0.00     0.162 A 
ATOM      4  C   UNL d   1      -1.755   1.099   0.000  0.00  0.00     0.085 A 
ATOM      5  C   UNL d   1      -2.486  -0.124   0.000  0.00  0.00     0.085 A 
ATOM      6  C   UNL d   1      -2.486   0.694   0.000  0.00  0.00     0.035 A 
ATOM      7  C   UNL d   1      -3.206   1.121   0.000  0.00  0.00     0.003 A 
ATOM      8  C   UNL d   1      -1.755   1.946   0.000  0.00  0.00     0.019 A 
ATOM      9  C   UNL d   1      -3.206  -0.529   0.000  0.00  0.00     0.019 A 
ATOM     10  C   UNL d   1      -3.934  -0.124   0.000  0.00  0.00     0.002 A 
ATOM     11  C   UNL d   1      -2.486   2.351   0.000  0.00  0.00     0.002 A 
ATOM     12  C   UNL d   1      -3.934   0.694   0.000  0.00  0.00     0.000 A 
ATOM     13  C   UNL d   1      -3.206   1.946   0.000  0.00  0.00     0.000 A 
ENDROOT
BRANCH   3  14
ATOM     14  C   UNL d   1      -0.345  -0.574   0.000  0.00  0.00     0.036 A 
ATOM     15  C   UNL d   1       0.386  -0.195   0.000  0.00  0.00     0.004 A 
ATOM     16  C   UNL d   1       1.084  -0.630   0.000  0.00  0.00     0.018 A 
ATOM     17  C   UNL d   1       1.061  -1.444   0.000  0.00  0.00     0.064 A 
ATOM     18  C   UNL d   1       0.330  -1.834   0.000  0.00  0.00     0.018 A 
ATOM     19  C   UNL d   1      -0.360  -1.395   0.000  0.00  0.00     0.004 A 
BRANCH  17  20
ATOM     20  N   UNL d   1       1.759  -1.879   0.000  0.00  0.00    -0.301 N 
ATOM     21  C   UNL d   1       1.736  -2.700   0.000  0.00  0.00     0.100 C 
ATOM     22  C   UNL d   1       2.479  -1.489   0.000  0.00  0.00     0.100 C 
ENDBRANCH  17  20
ENDBRANCH   3  14
TORSDOF 2
