REMARK  5 active torsions:
REMARK  status: ('A' for Active; 'I' for Inactive)
REMARK    1  A    between atoms: C_13  and  C_5 
REMARK    2  A    between atoms: C_16  and  C_13 
REMARK    3  A    between atoms: C_19  and  C_16 
REMARK    4  A    between atoms: C_17  and  C_18 
REMARK    5  A    between atoms: C_18  and  C_19 
ROOT
ATOM      1  C   UNL d   1      -0.931  -1.813   0.000  0.00  0.00     0.111 A 
ATOM      2  C   UNL d   1      -0.931  -0.371   0.000  0.00  0.00     0.062 A 
ATOM      3  C   UNL d   1      -1.743  -1.813   0.000  0.00  0.00     0.213 A 
ATOM      4  C   UNL d   1      -1.786  -0.387   0.000  0.00  0.00     0.105 A 
ATOM      5  C   UNL d   1      -0.511  -1.081   0.000  0.00  0.00     0.018 A 
ATOM      6  O   UNL d   1      -2.190  -1.071   0.000  0.00  0.00    -0.287 OA
ATOM      7  C   UNL d   1      -0.511  -2.524   0.000  0.00  0.00     0.105 C 
ATOM      8  C   UNL d   1      -0.543   0.350   0.000  0.00  0.00     0.198 A 
ATOM      9  N   UNL d   1      -0.081  -3.250   0.000  0.00  0.00    -0.191 NA
ATOM     10  N   UNL d   1      -2.190  -2.556   0.000  0.00  0.00    -0.120 N 
ATOM     11  O   UNL d   1       0.296   0.339   0.000  0.00  0.00    -0.286 OA
ATOM     12  C   UNL d   1      -2.212   0.339   0.000  0.00  0.00     0.025 A 
ATOM     13  C   UNL d   1      -0.969   1.060   0.000  0.00  0.00     0.042 A 
ATOM     14  C   UNL d   1      -1.802   1.060   0.000  0.00  0.00     0.005 A 
ENDROOT
BRANCH   5  15
ATOM     15  C   UNL d   1       0.296  -1.081   0.000  0.00  0.00     0.001 C 
BRANCH  15  16
ATOM     16  C   UNL d   1       0.716  -0.387   0.000  0.00  0.00     0.000 C 
BRANCH  16  17
ATOM     17  C   UNL d   1       1.571  -0.371   0.000  0.00  0.00     0.000 C 
BRANCH  17  18
ATOM     18  C   UNL d   1       1.959   0.350   0.000  0.00  0.00     0.000 C 
BRANCH  18  19
ATOM     19  C   UNL d   1       2.782   0.350   0.000  0.00  0.00     0.000 C 
ATOM     20  C   UNL d   1       3.186   1.049   0.000  0.00  0.00     0.000 C 
ENDBRANCH  18  19
ENDBRANCH  17  18
ENDBRANCH  16  17
ENDBRANCH  15  16
ENDBRANCH   5  15
TORSDOF 5
