REMARK  3 active torsions:
REMARK  status: ('A' for Active; 'I' for Inactive)
REMARK    1  A    between atoms: C_6  and  C_2 
REMARK    2  A    between atoms: C_8  and  C_3 
REMARK    3  A    between atoms: C_7  and  C_6 
ROOT
ATOM      1  N   UNL d   1      -0.086   0.826   0.000  0.00  0.00    -0.238 NA
ATOM      2  C   UNL d   1      -0.904   0.917   0.000  0.00  0.00     0.113 A 
ATOM      3  C   UNL d   1       0.104   0.000   0.000  0.00  0.00     0.088 A 
ATOM      4  S   UNL d   1      -1.228   0.156   0.000  0.00  0.00    -0.066 SA
ATOM      5  C   UNL d   1      -0.644  -0.402   0.000  0.00  0.00     0.056 A 
ENDROOT
BRANCH   3   6
ATOM      6  C   UNL d   1       0.870  -0.277   0.000  0.00  0.00     0.018 A 
ATOM      7  C   UNL d   1       1.510   0.221   0.000  0.00  0.00     0.002 A 
ATOM      8  C   UNL d   1       2.275  -0.056   0.000  0.00  0.00     0.011 A 
ATOM      9  C   UNL d   1       2.405  -0.887   0.000  0.00  0.00     0.058 A 
ATOM     10  C   UNL d   1       1.765  -1.402   0.000  0.00  0.00     0.011 A 
ATOM     11 CL   UNL d   1       3.171  -1.198   0.000  0.00  0.00    -0.082 Cl
ATOM     12  C   UNL d   1       0.991  -1.107   0.000  0.00  0.00     0.002 A 
ENDBRANCH   3   6
BRANCH   2  13
ATOM     13  C   UNL d   1      -1.332   1.622   0.000  0.00  0.00     0.058 C 
BRANCH  13  14
ATOM     14  C   UNL d   1      -2.150   1.609   0.000  0.00  0.00     0.159 C 
ATOM     15  S   UNL d   1      -2.660   2.306   0.000  0.00  0.00    -0.055 SA
ATOM     16  N   UNL d   1      -2.453   0.904   0.000  0.00  0.00    -0.136 N 
ENDBRANCH  13  14
ENDBRANCH   2  13
TORSDOF 3
