REMARK  6 active torsions:
REMARK  status: ('A' for Active; 'I' for Inactive)
REMARK    1  A    between atoms: C_9  and  N_1 
REMARK    2  A    between atoms: C_2  and  C_3 
REMARK    3  A    between atoms: C_4  and  C_6 
REMARK    4  A    between atoms: C_7  and  C_5 
REMARK       I    between atoms: C_6  and  N_8 
REMARK    5  A    between atoms: N_8  and  N_12 
REMARK    6  A    between atoms: N_12  and  C_17 
ROOT
ATOM      1  C   UNL d   1      -2.755  -0.695   0.000  0.00  0.00     0.005 A 
ATOM      2  C   UNL d   1      -2.049  -0.269   0.000  0.00  0.00     0.059 A 
ATOM      3  C   UNL d   1      -3.461  -0.269   0.000  0.00  0.00     0.000 A 
ATOM      4  C   UNL d   1      -2.049   0.541   0.000  0.00  0.00     0.005 A 
ATOM      5  C   UNL d   1      -3.461   0.559   0.000  0.00  0.00     0.000 A 
ATOM      6  C   UNL d   1      -2.755   0.945   0.000  0.00  0.00     0.000 A 
ENDROOT
BRANCH   2   7
ATOM      7  C   UNL d   1      -1.324  -0.695   0.000  0.00  0.00     0.297 C 
ATOM      8  N   UNL d   1      -0.618  -0.269   0.000  0.00  0.00    -0.106 NA
ATOM      9  O   UNL d   1      -1.324  -1.526   0.000  0.00  0.00    -0.264 OA
BRANCH   8  10
ATOM     10  N   UNL d   1      -0.618   0.559   0.000  0.00  0.00    -0.145 NA
BRANCH  10  11
ATOM     11  C   UNL d   1       0.088   0.967   0.000  0.00  0.00     0.103 A 
ATOM     12  C   UNL d   1       0.794   0.559   0.000  0.00  0.00     0.023 A 
ATOM     13  C   UNL d   1       1.515   0.967   0.000  0.00  0.00     0.025 A 
ATOM     14  C   UNL d   1       1.515   1.784   0.000  0.00  0.00     0.127 A 
ATOM     15  C   UNL d   1       0.809   2.203   0.000  0.00  0.00     0.025 A 
ATOM     16  C   UNL d   1       0.088   1.795   0.000  0.00  0.00     0.023 A 
BRANCH  14  17
ATOM     17  N   UNL d   1       2.240   2.181   0.000  0.00  0.00    -0.114 N 
ATOM     18  O   UNL d   1       2.946   1.784   0.000  0.00  0.00    -0.532 OA
ATOM     19  O   UNL d   1       2.255   3.019   0.000  0.00  0.00    -0.532 OA
ENDBRANCH  14  17
ENDBRANCH  10  11
ENDBRANCH   8  10
ENDBRANCH   2   7
BRANCH   1  20
ATOM     20  C   UNL d   1      -2.755  -1.504   0.000  0.00  0.00     0.006 A 
ATOM     21  C   UNL d   1      -3.461  -1.913   0.000  0.00  0.00     0.064 A 
ATOM     22  C   UNL d   1      -3.461  -2.740   0.000  0.00  0.00     0.006 A 
ATOM     23  C   UNL d   1      -2.755  -3.148   0.000  0.00  0.00     0.000 A 
ATOM     24  C   UNL d   1      -2.071  -2.762   0.000  0.00  0.00     0.000 A 
ATOM     25  C   UNL d   1      -2.049  -1.931   0.000  0.00  0.00     0.000 A 
BRANCH  21  26
ATOM     26  C   UNL d   1      -4.189  -1.504   0.000  0.00  0.00     0.211 C 
ATOM     27  O   UNL d   1      -4.910  -1.931   0.000  0.00  0.00    -0.644 OA
ATOM     28  O   UNL d   1      -4.211  -0.677   0.000  0.00  0.00    -0.644 OA
ENDBRANCH  21  26
ENDBRANCH   1  20
TORSDOF 6
