REMARK  4 active torsions:
REMARK  status: ('A' for Active; 'I' for Inactive)
REMARK    1  A    between atoms: N_3  and  C_1 
REMARK    2  A    between atoms: N_5  and  N_2 
REMARK    3  A    between atoms: S_4  and  N_5 
REMARK    4  A    between atoms: C_13  and  S_4 
ROOT
ATOM      1  C   UNL d   1       2.309  -0.553   0.000  0.00  0.00     0.771 A 
ATOM      2  N   UNL d   1       2.975  -1.028   0.000  0.00  0.00    -0.026 N 
ATOM      3  N   UNL d   1       2.563   0.233   0.000  0.00  0.00     0.048 NA
ATOM      4  C   UNL d   1       3.637  -0.553   0.000  0.00  0.00     0.204 A 
ATOM      5  N   UNL d   1       3.387   0.233   0.000  0.00  0.00    -0.112 NA
ATOM      6  C   UNL d   1       4.423  -0.803   0.000  0.00  0.00     0.044 C 
ENDROOT
BRANCH   2   7
ATOM      7  N   UNL d   1       2.988  -1.852   0.000  0.00  0.00    -0.056 NA
BRANCH   7   8
ATOM      8  S   UNL d   1       3.699  -2.264   0.000  0.00  0.00     0.301 S 
ATOM      9  O   UNL d   1       3.300  -2.975   0.000  0.00  0.00    -0.197 OA
ATOM     10  O   UNL d   1       4.099  -1.540   0.000  0.00  0.00    -0.197 OA
BRANCH   8  11
ATOM     11  C   UNL d   1       4.423  -2.659   0.000  0.00  0.00     0.107 A 
ATOM     12  C   UNL d   1       4.436  -3.483   0.000  0.00  0.00     0.015 A 
ATOM     13  C   UNL d   1       5.160  -3.882   0.000  0.00  0.00     0.030 A 
ATOM     14  C   UNL d   1       5.867  -3.450   0.000  0.00  0.00     0.140 A 
ATOM     15  C   UNL d   1       5.855  -2.626   0.000  0.00  0.00     0.030 A 
ATOM     16  F   UNL d   1       6.583  -3.849   0.000  0.00  0.00    -0.204 F 
ATOM     17  C   UNL d   1       5.131  -2.226   0.000  0.00  0.00     0.015 A 
ENDBRANCH   8  11
ENDBRANCH   7   8
ENDBRANCH   2   7
BRANCH   1  18
ATOM     18  N   UNL d   1       1.527  -0.816   0.000  0.00  0.00    -0.056 N 
ATOM     19  N   UNL d   1       1.278  -1.602   0.000  0.00  0.00    -0.150 NA
ATOM     20  C   UNL d   1       0.454  -1.610   0.000  0.00  0.00     0.103 A 
ATOM     21  C   UNL d   1      -0.025  -2.276   0.000  0.00  0.00     0.022 C 
ATOM     22  C   UNL d   1       0.191  -0.828   0.000  0.00  0.00     0.041 A 
ATOM     23  C   UNL d   1       0.861  -0.341   0.000  0.00  0.00     0.102 A 
ATOM     24  C   UNL d   1       0.853   0.483   0.000  0.00  0.00     0.021 C 
ENDBRANCH   1  18
TORSDOF 4
