REMARK  1 active torsions:
REMARK  status: ('A' for Active; 'I' for Inactive)
REMARK    1  A    between atoms: C_14  and  C_5 
ROOT
ATOM      1  C   UNL d   1      -0.067  -2.898   0.000  0.00  0.00     0.111 A 
ATOM      2  C   UNL d   1      -1.332  -2.207   0.000  0.00  0.00     0.062 A 
ATOM      3  C   UNL d   1      -0.529  -3.651   0.000  0.00  0.00     0.213 A 
ATOM      4  C   UNL d   1      -1.734  -2.898   0.000  0.00  0.00     0.101 A 
ATOM      5  C   UNL d   1      -0.496  -2.207   0.000  0.00  0.00     0.018 A 
ATOM      6  O   UNL d   1      -1.332  -3.618   0.000  0.00  0.00    -0.288 OA
ATOM      7  C   UNL d   1      -1.734  -1.477   0.000  0.00  0.00     0.194 A 
ATOM      8  C   UNL d   1       0.758  -2.898   0.000  0.00  0.00     0.105 C 
ATOM      9  N   UNL d   1       1.589  -2.876   0.000  0.00  0.00    -0.191 NA
ATOM     10  C   UNL d   1      -2.558  -2.898   0.000  0.00  0.00     0.002 A 
ATOM     11  C   UNL d   1      -2.988  -2.207   0.000  0.00  0.00     0.042 A 
ATOM     12  C   UNL d   1      -2.536  -1.455   0.000  0.00  0.00     0.019 A 
ATOM     13  O   UNL d   1      -1.299  -0.736   0.000  0.00  0.00    -0.287 OA
ATOM     14  N   UNL d   1      -0.150  -4.420   0.000  0.00  0.00    -0.120 N 
ATOM     15  C   UNL d   1      -3.707  -2.631   0.000  0.00  0.00     0.009 C 
ATOM     16  C   UNL d   1      -3.545  -1.611   0.000  0.00  0.00     0.009 C 
ENDROOT
BRANCH   5  17
ATOM     17  C   UNL d   1      -0.095  -1.511   0.000  0.00  0.00     0.001 A 
ATOM     18  C   UNL d   1      -0.513  -0.825   0.000  0.00  0.00     0.000 A 
ATOM     19  C   UNL d   1      -0.111  -0.089   0.000  0.00  0.00     0.000 A 
ATOM     20  C   UNL d   1       0.691  -0.072   0.000  0.00  0.00     0.000 A 
ATOM     21  C   UNL d   1       1.120  -0.786   0.000  0.00  0.00     0.000 A 
ATOM     22  C   UNL d   1       0.719  -1.511   0.000  0.00  0.00     0.000 A 
ENDBRANCH   5  17
TORSDOF 1
