REMARK  5 active torsions:
REMARK  status: ('A' for Active; 'I' for Inactive)
REMARK    1  A    between atoms: C_2  and  S_1 
REMARK    2  A    between atoms: C_3  and  S_1 
REMARK    3  A    between atoms: C_5  and  C_3 
REMARK    4  A    between atoms: O_13  and  C_8 
REMARK    5  A    between atoms: O_14  and  C_10 
ROOT
ATOM      1  C   UNL d   1       3.542  -2.004   0.000  0.00  0.00     0.048 A 
ATOM      2  C   UNL d   1       4.254  -2.413   0.000  0.00  0.00     0.030 A 
ATOM      3  C   UNL d   1       4.967  -1.992   0.000  0.00  0.00     0.116 A 
ATOM      4  C   UNL d   1       4.963  -1.167   0.000  0.00  0.00     0.116 A 
ATOM      5  C   UNL d   1       3.529  -1.179   0.000  0.00  0.00     0.006 A 
ATOM      6  C   UNL d   1       4.237  -0.762   0.000  0.00  0.00     0.026 A 
ENDROOT
BRANCH   1   7
ATOM      7  C   UNL d   1       2.829  -2.425   0.000  0.00  0.00     0.227 C 
ATOM      8  O   UNL d   1       2.842  -3.250   0.000  0.00  0.00    -0.279 OA
BRANCH   7   9
ATOM      9  S   UNL d   1       2.112  -2.017   0.000  0.00  0.00    -0.020 SA
BRANCH   9  10
ATOM     10  C   UNL d   1       1.404  -2.438   0.000  0.00  0.00     0.143 A 
ATOM     11  N   UNL d   1       0.642  -2.104   0.000  0.00  0.00    -0.230 NA
ATOM     12  C   UNL d   1       0.100  -2.729   0.000  0.00  0.00     0.107 A 
ATOM     13  C   UNL d   1       0.517  -3.438   0.000  0.00  0.00     0.058 A 
ATOM     14  S   UNL d   1       1.317  -3.254   0.000  0.00  0.00    -0.059 SA
ENDBRANCH   9  10
ENDBRANCH   7   9
ENDBRANCH   1   7
BRANCH   3  15
ATOM     15  O   UNL d   1       5.667  -2.425   0.000  0.00  0.00    -0.326 OA
ATOM     16  C   UNL d   1       6.392  -2.029   0.000  0.00  0.00     0.181 C 
ENDBRANCH   3  15
BRANCH   4  17
ATOM     17  O   UNL d   1       5.667  -0.750   0.000  0.00  0.00    -0.326 OA
ATOM     18  C   UNL d   1       5.662   0.075   0.000  0.00  0.00     0.181 C 
ENDBRANCH   4  17
TORSDOF 5
