REMARK  5 active torsions:
REMARK  status: ('A' for Active; 'I' for Inactive)
REMARK    1  A    between atoms: N_2  and  S_1 
REMARK    2  A    between atoms: C_10  and  S_1 
REMARK    3  A    between atoms: C_4  and  C_3 
REMARK       I    between atoms: N_5  and  C_4 
REMARK    4  A    between atoms: C_6  and  N_5 
REMARK    5  A    between atoms: O_24  and  C_21 
ROOT
ATOM      1  N   UNL d   1       2.745  -1.992   0.000  0.00  0.00    -0.226 N 
ATOM      2  C   UNL d   1       2.745  -1.156   0.000  0.00  0.00     0.133 A 
ATOM      3  C   UNL d   1       2.033  -2.403   0.000  0.00  0.00     0.092 A 
ATOM      4  C   UNL d   1       2.033  -0.740   0.000  0.00  0.00     0.023 A 
ATOM      5  C   UNL d   1       1.316  -1.992   0.000  0.00  0.00     0.018 A 
ATOM      6  C   UNL d   1       1.320  -1.156   0.000  0.00  0.00     0.003 A 
ATOM      7  C   UNL d   1       0.603  -2.398   0.000  0.00  0.00     0.002 A 
ATOM      8  C   UNL d   1       0.603  -0.745   0.000  0.00  0.00     0.000 A 
ATOM      9  C   UNL d   1      -0.105  -1.987   0.000  0.00  0.00     0.000 A 
ATOM     10  C   UNL d   1      -0.105  -1.165   0.000  0.00  0.00     0.000 A 
ENDROOT
BRANCH   1  11
ATOM     11  S   UNL d   1       3.472  -2.403   0.000  0.00  0.00     0.271 S 
ATOM     12  O   UNL d   1       3.061  -3.111   0.000  0.00  0.00    -0.200 OA
ATOM     13  O   UNL d   1       3.869  -1.690   0.000  0.00  0.00    -0.200 OA
BRANCH  11  14
ATOM     14  C   UNL d   1       4.184  -2.809   0.000  0.00  0.00     0.104 A 
ATOM     15  C   UNL d   1       4.897  -2.389   0.000  0.00  0.00     0.015 A 
ATOM     16  C   UNL d   1       5.609  -2.796   0.000  0.00  0.00     0.025 A 
ATOM     17  C   UNL d   1       5.619  -3.622   0.000  0.00  0.00     0.094 A 
ATOM     18  C   UNL d   1       4.906  -4.034   0.000  0.00  0.00     0.025 A 
ATOM     19  C   UNL d   1       4.184  -3.631   0.000  0.00  0.00     0.015 A 
BRANCH  17  20
ATOM     20  O   UNL d   1       6.331  -4.029   0.000  0.00  0.00    -0.328 OA
ATOM     21  C   UNL d   1       7.044  -3.609   0.000  0.00  0.00     0.181 C 
ENDBRANCH  17  20
ENDBRANCH  11  14
ENDBRANCH   1  11
BRANCH   2  22
ATOM     22  C   UNL d   1       3.467  -0.745   0.000  0.00  0.00     0.298 C 
ATOM     23  N   UNL d   1       3.467   0.078   0.000  0.00  0.00    -0.181 NA
ATOM     24  O   UNL d   1       4.180  -1.165   0.000  0.00  0.00    -0.264 OA
BRANCH  23  25
ATOM     25  C   UNL d   1       4.180   0.489   0.000  0.00  0.00     0.197 A 
ATOM     26  N   UNL d   1       5.057   0.233   0.000  0.00  0.00    -0.219 NA
ATOM     27  C   UNL d   1       5.555   0.968   0.000  0.00  0.00     0.108 A 
ATOM     28  C   UNL d   1       5.006   1.686   0.000  0.00  0.00     0.059 A 
ATOM     29  S   UNL d   1       4.157   1.393   0.000  0.00  0.00    -0.046 SA
ENDBRANCH  23  25
ENDBRANCH   2  22
TORSDOF 5
