REMARK  8 active torsions:
REMARK  status: ('A' for Active; 'I' for Inactive)
REMARK    1  A    between atoms: C_6  and  C_1 
REMARK    2  A    between atoms: S_11  and  C_3 
REMARK    3  A    between atoms: C_8  and  C_4 
REMARK       I    between atoms: N_10  and  C_6 
REMARK    4  A    between atoms: C_22  and  N_10 
REMARK    5  A    between atoms: C_21  and  S_11 
REMARK    6  A    between atoms: C_13  and  C_21 
REMARK    7  A    between atoms: O_20  and  C_13 
REMARK    8  A    between atoms: C_24  and  O_20 
ROOT
ATOM      1  C   UNL d   1      -1.420  -0.017   0.000  0.00  0.00     0.078 A 
ATOM      2  C   UNL d   1      -0.013  -0.017   0.000  0.00  0.00     0.094 A 
ATOM      3  C   UNL d   1      -0.013  -0.842   0.000  0.00  0.00     0.120 A 
ATOM      4  C   UNL d   1      -0.716   0.402   0.000  0.00  0.00     0.041 A 
ATOM      5  C   UNL d   1      -1.420  -0.842   0.000  0.00  0.00     0.087 A 
ATOM      6  N   UNL d   1      -0.716  -1.261   0.000  0.00  0.00    -0.238 NA
ATOM      7  C   UNL d   1       0.733   0.402   0.000  0.00  0.00     0.103 C 
ATOM      8  N   UNL d   1       1.458   0.825   0.000  0.00  0.00    -0.191 NA
ATOM      9  C   UNL d   1      -2.144  -1.286   0.000  0.00  0.00     0.021 C 
ENDROOT
BRANCH   4  10
ATOM     10  C   UNL d   1      -0.716   1.206   0.000  0.00  0.00     0.101 A 
ATOM     11  O   UNL d   1      -0.034   1.671   0.000  0.00  0.00    -0.305 OA
ATOM     12  C   UNL d   1      -0.251   2.458   0.000  0.00  0.00     0.123 A 
ATOM     13  C   UNL d   1      -1.055   2.475   0.000  0.00  0.00     0.029 A 
ATOM     14  C   UNL d   1      -1.357   1.730   0.000  0.00  0.00     0.027 A 
ENDBRANCH   4  10
BRANCH   3  15
ATOM     15  S   UNL d   1       0.708  -1.286   0.000  0.00  0.00    -0.061 SA
BRANCH  15  16
ATOM     16  C   UNL d   1       1.437  -0.884   0.000  0.00  0.00     0.105 C 
BRANCH  16  17
ATOM     17  C   UNL d   1       2.140  -1.307   0.000  0.00  0.00     0.307 C 
ATOM     18  O   UNL d   1       2.115  -2.128   0.000  0.00  0.00    -0.258 OA
BRANCH  17  19
ATOM     19  O   UNL d   1       2.865  -0.905   0.000  0.00  0.00    -0.273 OA
BRANCH  19  20
ATOM     20  C   UNL d   1       3.568  -1.323   0.000  0.00  0.00     0.103 C 
ATOM     21  C   UNL d   1       4.289  -0.921   0.000  0.00  0.00     0.027 C 
ATOM     22  C   UNL d   1       3.547  -2.148   0.000  0.00  0.00     0.027 C 
ENDBRANCH  19  20
ENDBRANCH  17  19
ENDBRANCH  16  17
ENDBRANCH  15  16
ENDBRANCH   3  15
BRANCH   1  23
ATOM     23  C   UNL d   1      -2.161   0.402   0.000  0.00  0.00     0.281 C 
ATOM     24  N   UNL d   1      -2.865  -0.017   0.000  0.00  0.00    -0.208 NA
ATOM     25  O   UNL d   1      -2.161   1.227   0.000  0.00  0.00    -0.265 OA
BRANCH  24  26
ATOM     26  C   UNL d   1      -3.589   0.402   0.000  0.00  0.00     0.085 A 
ATOM     27  C   UNL d   1      -3.589   1.227   0.000  0.00  0.00     0.019 A 
ATOM     28  C   UNL d   1      -4.318   1.629   0.000  0.00  0.00     0.002 A 
ATOM     29  C   UNL d   1      -5.022   1.206   0.000  0.00  0.00     0.000 A 
ATOM     30  C   UNL d   1      -4.996   0.385   0.000  0.00  0.00     0.002 A 
ATOM     31  C   UNL d   1      -4.293  -0.017   0.000  0.00  0.00     0.019 A 
ENDBRANCH  24  26
ENDBRANCH   1  23
TORSDOF 8
