REMARK  2 active torsions:
REMARK  status: ('A' for Active; 'I' for Inactive)
REMARK       I    between atoms: N_2  and  C_1 
REMARK       I    between atoms: N_3  and  C_1 
REMARK    1  A    between atoms: C_6  and  N_2 
REMARK    2  A    between atoms: C_5  and  N_3 
ROOT
ATOM      1  C   UNL d   1      -2.128   0.502   0.000  0.00  0.00     0.369 C 
ATOM      2  N   UNL d   1      -2.831   0.908   0.000  0.00  0.00    -0.191 NA
ATOM      3  N   UNL d   1      -2.128  -0.308   0.000  0.00  0.00    -0.191 NA
ATOM      4  O   UNL d   1      -1.359   0.879   0.000  0.00  0.00    -0.242 OA
ENDROOT
BRANCH   2   5
ATOM      5  C   UNL d   1      -3.534   0.494   0.000  0.00  0.00     0.086 A 
ATOM      6  C   UNL d   1      -4.248   0.897   0.000  0.00  0.00     0.019 A 
ATOM      7  C   UNL d   1      -4.974   0.494   0.000  0.00  0.00     0.002 A 
ATOM      8  C   UNL d   1      -4.974  -0.341   0.000  0.00  0.00     0.000 A 
ATOM      9  C   UNL d   1      -4.248  -0.747   0.000  0.00  0.00     0.002 A 
ATOM     10  C   UNL d   1      -3.534  -0.333   0.000  0.00  0.00     0.019 A 
ENDBRANCH   2   5
BRANCH   3  11
ATOM     11  C   UNL d   1      -1.425  -0.718   0.000  0.00  0.00     0.086 A 
ATOM     12  C   UNL d   1      -0.714  -0.311   0.000  0.00  0.00     0.019 A 
ATOM     13  C   UNL d   1       0.004  -0.718   0.000  0.00  0.00     0.002 A 
ATOM     14  C   UNL d   1       0.004  -1.553   0.000  0.00  0.00     0.000 A 
ATOM     15  C   UNL d   1      -0.714  -1.960   0.000  0.00  0.00     0.002 A 
ATOM     16  C   UNL d   1      -1.425  -1.542   0.000  0.00  0.00     0.019 A 
ENDBRANCH   3  11
TORSDOF 2
