REMARK  8 active torsions:
REMARK  status: ('A' for Active; 'I' for Inactive)
REMARK    1  A    between atoms: C_6  and  C_1 
REMARK    2  A    between atoms: C_8  and  N_3 
REMARK    3  A    between atoms: C_7  and  C_6 
REMARK    4  A    between atoms: C_9  and  C_7 
REMARK    5  A    between atoms: C_14  and  C_8 
REMARK    6  A    between atoms: C_17  and  C_14 
REMARK    7  A    between atoms: C_15  and  C_16 
REMARK    8  A    between atoms: C_16  and  C_17 
ROOT
ATOM      1  C   UNL d   1       3.030   5.012   0.000  0.00  0.00     0.148 A 
ATOM      2  N   UNL d   1       2.477   5.762   0.000  0.00  0.00    -0.227 NA
ATOM      3  N   UNL d   1       2.477   4.270   0.000  0.00  0.00    -0.289 N 
ATOM      4  C   UNL d   1       1.595   4.548   0.000  0.00  0.00     0.083 A 
ATOM      5  C   UNL d   1       1.595   5.492   0.000  0.00  0.00     0.099 A 
ATOM      6  C   UNL d   1       0.791   4.077   0.000  0.00  0.00     0.019 A 
ATOM      7  C   UNL d   1       0.791   5.937   0.000  0.00  0.00     0.021 A 
ATOM      8  C   UNL d   1       0.000   4.548   0.000  0.00  0.00     0.002 A 
ATOM      9  C   UNL d   1       0.000   5.492   0.000  0.00  0.00     0.002 A 
ENDROOT
BRANCH   1  10
ATOM     10  C   UNL d   1       3.713   4.638   0.000  0.00  0.00     0.037 C 
BRANCH  10  11
ATOM     11  C   UNL d   1       4.440   5.012   0.000  0.00  0.00     0.003 C 
BRANCH  11  12
ATOM     12  C   UNL d   1       5.164   4.608   0.000  0.00  0.00     0.000 A 
ATOM     13  C   UNL d   1       5.875   5.012   0.000  0.00  0.00     0.000 A 
ATOM     14  C   UNL d   1       6.589   4.608   0.000  0.00  0.00     0.000 A 
ATOM     15  C   UNL d   1       6.589   3.775   0.000  0.00  0.00     0.000 A 
ATOM     16  C   UNL d   1       5.875   3.371   0.000  0.00  0.00     0.000 A 
ATOM     17  C   UNL d   1       5.164   3.775   0.000  0.00  0.00     0.000 A 
ENDBRANCH  11  12
ENDBRANCH  10  11
ENDBRANCH   1  10
BRANCH   3  18
ATOM     18  C   UNL d   1       2.072   3.574   0.000  0.00  0.00     0.082 C 
BRANCH  18  19
ATOM     19  C   UNL d   1       2.477   2.863   0.000  0.00  0.00     0.019 C 
BRANCH  19  20
ATOM     20  C   UNL d   1       2.072   2.154   0.000  0.00  0.00     0.002 C 
BRANCH  20  21
ATOM     21  C   UNL d   1       2.477   1.435   0.000  0.00  0.00     0.000 C 
BRANCH  21  22
ATOM     22  C   UNL d   1       2.072   0.719   0.000  0.00  0.00     0.000 C 
ATOM     23  C   UNL d   1       2.477   0.000   0.000  0.00  0.00     0.000 C 
ENDBRANCH  21  22
ENDBRANCH  20  21
ENDBRANCH  19  20
ENDBRANCH  18  19
ENDBRANCH   3  18
TORSDOF 8
