REMARK  7 active torsions:
REMARK  status: ('A' for Active; 'I' for Inactive)
REMARK    1  A    between atoms: N_8  and  C_1 
REMARK    2  A    between atoms: C_14  and  C_2 
REMARK    3  A    between atoms: S_3  and  C_16 
REMARK    4  A    between atoms: N_7  and  S_3 
REMARK       I    between atoms: C_12  and  N_8 
REMARK       I    between atoms: C_13  and  N_11 
REMARK    5  A    between atoms: C_22  and  C_12 
REMARK    6  A    between atoms: O_33  and  C_13 
REMARK    7  A    between atoms: C_38  and  O_33 
ROOT
ATOM      1  C   UNL d   1       2.010   0.046   0.000  0.00  0.00     0.104 A 
ATOM      2  C   UNL d   1       0.443   0.535   0.000  0.00  0.00     0.056 A 
ATOM      3  C   UNL d   1       1.831   0.853   0.000  0.00  0.00     0.013 A 
ATOM      4  C   UNL d   1       1.409  -0.518   0.000  0.00  0.00     0.013 A 
ATOM      5  C   UNL d   1       1.045   1.099   0.000  0.00  0.00     0.005 A 
ATOM      6  C   UNL d   1       0.619  -0.268   0.000  0.00  0.00     0.005 A 
ENDROOT
BRANCH   2   7
ATOM      7  C   UNL d   1      -0.347   0.777   0.000  0.00  0.00     0.258 C 
ATOM      8  N   UNL d   1      -0.535   1.588   0.000  0.00  0.00    -0.316 N 
ATOM      9  H   UNL d   1       0.113   1.626   0.000  0.00  0.00     0.169 HD
ATOM     10  O   UNL d   1      -0.961   0.222   0.000  0.00  0.00    -0.267 OA
BRANCH   8  11
ATOM     11  C   UNL d   1      -1.325   1.831   0.000  0.00  0.00     0.094 A 
ATOM     12  C   UNL d   1      -1.588   2.608   0.000  0.00  0.00     0.081 A 
ATOM     13  C   UNL d   1      -2.416   2.608   0.000  0.00  0.00     0.008 A 
ATOM     14  C   UNL d   1      -2.967   3.218   0.000  0.00  0.00    -0.004 A 
ATOM     15  C   UNL d   1      -2.667   1.827   0.000  0.00  0.00     0.028 A 
ATOM     16  C   UNL d   1      -3.770   3.043   0.000  0.00  0.00     0.099 A 
ATOM     17  C   UNL d   1      -3.987   3.845   0.000  0.00  0.00     0.029 C 
ATOM     18  C   UNL d   1      -4.598   3.055   0.000  0.00  0.00     0.029 C 
ATOM     19  N   UNL d   1      -4.033   2.265   0.000  0.00  0.00    -0.294 NA
ATOM     20  C   UNL d   1      -3.473   1.651   0.000  0.00  0.00     0.104 A 
ATOM     21  C   UNL d   1      -3.260   0.848   0.000  0.00  0.00     0.029 C 
ATOM     22  C   UNL d   1      -4.284   1.438   0.000  0.00  0.00     0.029 C 
ATOM     23  S   UNL d   1      -1.994   1.337   0.000  0.00  0.00    -0.072 SA
BRANCH  12  24
ATOM     24  C   UNL d   1      -1.116   3.281   0.000  0.00  0.00     0.299 C 
ATOM     25  O   UNL d   1      -1.463   4.017   0.000  0.00  0.00    -0.264 OA
ATOM     26  N   UNL d   1      -0.309   3.206   0.000  0.00  0.00    -0.102 N 
ENDBRANCH  12  24
ENDBRANCH   8  11
ENDBRANCH   2   7
BRANCH   1  27
ATOM     27  S   UNL d   1       2.809  -0.201   0.000  0.00  0.00     0.271 S 
ATOM     28  O   UNL d   1       3.022   0.602   0.000  0.00  0.00    -0.200 OA
ATOM     29  O   UNL d   1       2.587  -0.995   0.000  0.00  0.00    -0.200 OA
BRANCH  27  30
ATOM     30  N   UNL d   1       3.590  -0.443   0.000  0.00  0.00    -0.226 N 
ATOM     31  C   UNL d   1       4.200   0.109   0.000  0.00  0.00     0.111 A 
ATOM     32  C   UNL d   1       4.982  -0.150   0.000  0.00  0.00     0.105 A 
ATOM     33  N   UNL d   1       5.158  -0.957   0.000  0.00  0.00    -0.248 N 
ATOM     34  C   UNL d   1       4.543  -1.505   0.000  0.00  0.00     0.105 A 
ATOM     35  C   UNL d   1       5.935  -1.208   0.000  0.00  0.00     0.378 C 
ATOM     36  C   UNL d   1       3.766  -1.246   0.000  0.00  0.00     0.111 A 
ATOM     37  O   UNL d   1       6.545  -0.656   0.000  0.00  0.00    -0.237 OA
BRANCH  35  38
ATOM     38  O   UNL d   1       6.106  -2.006   0.000  0.00  0.00    -0.257 OA
BRANCH  38  39
ATOM     39  C   UNL d   1       5.496  -2.550   0.000  0.00  0.00     0.128 C 
ATOM     40  C   UNL d   1       5.668  -3.360   0.000  0.00  0.00     0.029 C 
ENDBRANCH  38  39
ENDBRANCH  35  38
ENDBRANCH  27  30
ENDBRANCH   1  27
TORSDOF 7
