REMARK  4 active torsions:
REMARK  status: ('A' for Active; 'I' for Inactive)
REMARK    1  A    between atoms: C_6  and  C_1 
REMARK    2  A    between atoms: C_4  and  C_2 
REMARK    3  A    between atoms: C_3  and  N_5 
REMARK    4  A    between atoms: N_5  and  C_7 
ROOT
ATOM      1  C   UNL d   1       0.730  -0.068   0.000  0.00  0.00     0.073 A 
ATOM      2  C   UNL d   1       0.019   1.165   0.000  0.00  0.00     0.081 A 
ATOM      3  C   UNL d   1       0.019   0.341   0.000  0.00  0.00     0.023 A 
ATOM      4  C   UNL d   1       1.438   0.341   0.000  0.00  0.00     0.004 A 
ATOM      5  C   UNL d   1       1.438   1.168   0.000  0.00  0.00     0.002 A 
ATOM      6  C   UNL d   1       0.730   1.579   0.000  0.00  0.00     0.019 A 
ENDROOT
BRANCH   2   7
ATOM      7  N   UNL d   1      -0.690   1.579   0.000  0.00  0.00    -0.245 NA
BRANCH   7   8
ATOM      8  C   UNL d   1      -1.403   1.160   0.000  0.00  0.00     0.087 A 
ATOM      9  C   UNL d   1      -2.122   1.571   0.000  0.00  0.00     0.082 A 
ATOM     10  C   UNL d   1      -2.836   1.157   0.000  0.00  0.00     0.008 A 
ATOM     11  C   UNL d   1      -2.836   0.330   0.000  0.00  0.00     0.000 A 
ATOM     12  C   UNL d   1      -2.122  -0.084   0.000  0.00  0.00     0.002 A 
ATOM     13  C   UNL d   1      -1.403   0.330   0.000  0.00  0.00     0.019 A 
BRANCH   9  14
ATOM     14  C   UNL d   1      -2.125   2.406   0.000  0.00  0.00     0.212 C 
ATOM     15  O   UNL d   1      -1.409   2.809   0.000  0.00  0.00    -0.644 OA
ATOM     16  O   UNL d   1      -2.839   2.809   0.000  0.00  0.00    -0.644 OA
ENDBRANCH   9  14
ENDBRANCH   7   8
ENDBRANCH   2   7
BRANCH   1  17
ATOM     17  C   UNL d   1       0.730  -0.892   0.000  0.00  0.00     0.419 C 
ATOM     18  F   UNL d   1       0.011  -1.309   0.000  0.00  0.00    -0.166 F 
ATOM     19  F   UNL d   1       1.446  -1.309   0.000  0.00  0.00    -0.166 F 
ATOM     20  F   UNL d   1       0.511  -1.690   0.000  0.00  0.00    -0.166 F 
ENDBRANCH   1  17
TORSDOF 4
