REMARK  4 active torsions:
REMARK  status: ('A' for Active; 'I' for Inactive)
REMARK    1  A    between atoms: C_2  and  C_1 
REMARK    2  A    between atoms: C_6  and  C_2 
REMARK    3  A    between atoms: C_9  and  C_6 
REMARK    4  A    between atoms: O_18  and  C_12 
ROOT
ATOM      1  C   UNL d   1      -0.080   0.170   0.000  0.00  0.00     0.199 C 
ATOM      2  O   UNL d   1       0.240  -0.550   0.000  0.00  0.00    -0.286 OA
ENDROOT
BRANCH   1   3
ATOM      3  C   UNL d   1      -0.987   0.170   0.000  0.00  0.00     0.078 A 
ATOM      4  C   UNL d   1      -1.358   0.907   0.000  0.00  0.00     0.202 A 
ATOM      5  C   UNL d   1      -2.238   0.931   0.000  0.00  0.00     0.084 A 
ATOM      6  O   UNL d   1      -0.917   1.601   0.000  0.00  0.00    -0.286 OA
ATOM      7  C   UNL d   1      -2.679   0.210   0.000  0.00  0.00     0.199 A 
ATOM      8  C   UNL d   1      -2.282  -0.504   0.000  0.00  0.00     0.042 A 
ATOM      9  O   UNL d   1      -3.533   0.250   0.000  0.00  0.00    -0.286 OA
ATOM     10  C   UNL d   1      -1.418  -0.534   0.000  0.00  0.00     0.010 A 
ENDBRANCH   1   3
BRANCH   1  11
ATOM     11  C   UNL d   1       0.280   0.797   0.000  0.00  0.00     0.042 C 
BRANCH  11  12
ATOM     12  C   UNL d   1       1.084   0.787   0.000  0.00  0.00     0.003 A 
ATOM     13  C   UNL d   1       1.481   0.090   0.000  0.00  0.00     0.002 A 
ATOM     14  C   UNL d   1       2.325   0.077   0.000  0.00  0.00     0.024 A 
ATOM     15  C   UNL d   1       2.762   0.771   0.000  0.00  0.00     0.094 A 
ATOM     16  C   UNL d   1       2.365   1.478   0.000  0.00  0.00     0.024 A 
ATOM     17  C   UNL d   1       1.545   1.508   0.000  0.00  0.00     0.002 A 
BRANCH  15  18
ATOM     18  O   UNL d   1       3.616   0.761   0.000  0.00  0.00    -0.328 OA
ATOM     19  C   UNL d   1       4.027   0.050   0.000  0.00  0.00     0.181 C 
ENDBRANCH  15  18
ENDBRANCH  11  12
ENDBRANCH   1  11
TORSDOF 4
