REMARK  3 active torsions:
REMARK  status: ('A' for Active; 'I' for Inactive)
REMARK    1  A    between atoms: C_6  and  N_2 
REMARK    2  A    between atoms: C_7  and  C_6 
REMARK       I    between atoms: N_11  and  C_7 
REMARK    3  A    between atoms: C_14  and  N_11 
ROOT
ATOM      1  S   UNL d   1      -0.597   0.299   0.000  0.00  0.00     0.274 S 
ATOM      2  N   UNL d   1      -0.117   0.958   0.000  0.00  0.00    -0.192 N 
ATOM      3  C   UNL d   1      -0.597   1.633   0.000  0.00  0.00     0.275 A 
ATOM      4  C   UNL d   1      -1.373   1.373   0.000  0.00  0.00     0.069 A 
ATOM      5  C   UNL d   1      -1.373   0.558   0.000  0.00  0.00     0.109 A 
ATOM      6  O   UNL d   1       0.220   0.182   0.000  0.00  0.00    -0.200 OA
ATOM      7  O   UNL d   1      -0.856  -0.492   0.000  0.00  0.00    -0.200 OA
ATOM      8  O   UNL d   1      -0.351   2.412   0.000  0.00  0.00    -0.266 OA
ATOM      9  C   UNL d   1      -2.086   1.789   0.000  0.00  0.00     0.005 A 
ATOM     10  C   UNL d   1      -2.086   0.143   0.000  0.00  0.00     0.013 A 
ATOM     11  C   UNL d   1      -2.801   1.373   0.000  0.00  0.00     0.000 A 
ATOM     12  C   UNL d   1      -2.801   0.558   0.000  0.00  0.00     0.001 A 
ENDROOT
BRANCH   2  13
ATOM     13  C   UNL d   1       0.713   0.958   0.000  0.00  0.00     0.157 C 
BRANCH  13  14
ATOM     14  C   UNL d   1       1.115   0.247   0.000  0.00  0.00     0.298 C 
ATOM     15  N   UNL d   1       1.945   0.247   0.000  0.00  0.00    -0.207 NA
ATOM     16  O   UNL d   1       0.713  -0.467   0.000  0.00  0.00    -0.264 OA
BRANCH  15  17
ATOM     17  C   UNL d   1       2.360  -0.467   0.000  0.00  0.00     0.085 A 
ATOM     18  C   UNL d   1       1.945  -1.166   0.000  0.00  0.00     0.019 A 
ATOM     19  C   UNL d   1       2.360  -1.880   0.000  0.00  0.00     0.002 A 
ATOM     20  C   UNL d   1       3.177  -1.880   0.000  0.00  0.00     0.000 A 
ATOM     21  C   UNL d   1       3.592  -1.166   0.000  0.00  0.00     0.002 A 
ATOM     22  C   UNL d   1       3.189  -0.467   0.000  0.00  0.00     0.019 A 
ENDBRANCH  15  17
ENDBRANCH  13  14
ENDBRANCH   2  13
TORSDOF 3
