REMARK  6 active torsions:
REMARK  status: ('A' for Active; 'I' for Inactive)
REMARK    1  A    between atoms: C_7  and  C_1 
REMARK       I    between atoms: C_2  and  N_4 
REMARK    2  A    between atoms: C_10  and  C_2 
REMARK    3  A    between atoms: N_4  and  C_3 
REMARK    4  A    between atoms: O_20  and  C_5 
REMARK    5  A    between atoms: O_21  and  C_7 
REMARK    6  A    between atoms: C_11  and  C_12 
ROOT
ATOM      1  C   UNL d   1       3.648  -1.466   0.000  0.00  0.00     0.086 A 
ATOM      2  C   UNL d   1       2.236  -2.336   0.000  0.00  0.00     0.148 A 
ATOM      3  C   UNL d   1       3.652  -2.299   0.000  0.00  0.00     0.102 A 
ATOM      4  C   UNL d   1       2.915  -1.066   0.000  0.00  0.00     0.021 A 
ATOM      5  C   UNL d   1       2.953  -2.728   0.000  0.00  0.00     0.057 A 
ATOM      6  C   UNL d   1       2.203  -1.503   0.000  0.00  0.00     0.088 A 
ATOM      7 CL   UNL d   1       1.487  -1.104   0.000  0.00  0.00    -0.080 Cl
ENDROOT
BRANCH   2   8
ATOM      8  N   UNL d   1       1.516  -2.753   0.000  0.00  0.00    -0.364 NA
ATOM      9  C   UNL d   1       0.816  -3.198   0.000  0.00  0.00     0.328 C 
ATOM     10  O   UNL d   1       0.104  -2.798   0.000  0.00  0.00    -0.251 OA
BRANCH   9  11
ATOM     11  C   UNL d   1       0.850  -4.002   0.000  0.00  0.00     0.070 A 
ATOM     12  C   UNL d   1       0.150  -4.439   0.000  0.00  0.00     0.006 A 
ATOM     13  C   UNL d   1       0.167  -5.264   0.000  0.00  0.00    -0.004 A 
ATOM     14  C   UNL d   1       0.899  -5.663   0.000  0.00  0.00    -0.023 A 
ATOM     15  C   UNL d   1       1.599  -5.234   0.000  0.00  0.00    -0.004 A 
ATOM     16  C   UNL d   1       1.566  -4.402   0.000  0.00  0.00     0.006 A 
BRANCH  14  17
ATOM     17  C   UNL d   1       0.904  -6.496   0.000  0.00  0.00     0.019 C 
ATOM     18  C   UNL d   1       0.204  -6.913   0.000  0.00  0.00     0.004 C 
ATOM     19  C   UNL d   1       1.637  -6.884   0.000  0.00  0.00     0.004 C 
ATOM     20  C   UNL d   1       0.104  -6.296   0.000  0.00  0.00     0.004 C 
ENDBRANCH  14  17
ENDBRANCH   9  11
ENDBRANCH   2   8
BRANCH   3  21
ATOM     21  O   UNL d   1       4.364  -2.699   0.000  0.00  0.00    -0.328 OA
ATOM     22  C   UNL d   1       5.085  -2.265   0.000  0.00  0.00     0.181 C 
ENDBRANCH   3  21
BRANCH   1  23
ATOM     23  C   UNL d   1       4.348  -1.049   0.000  0.00  0.00     0.298 C 
ATOM     24  O   UNL d   1       4.335  -0.217   0.000  0.00  0.00    -0.259 OA
BRANCH  23  25
ATOM     25  O   UNL d   1       5.064  -1.449   0.000  0.00  0.00    -0.296 OA
ATOM     26  C   UNL d   1       5.784  -1.037   0.000  0.00  0.00     0.185 C 
ENDBRANCH  23  25
ENDBRANCH   1  23
TORSDOF 6
