REMARK  5 active torsions:
REMARK  status: ('A' for Active; 'I' for Inactive)
REMARK    1  A    between atoms: S_8  and  C_2 
REMARK    2  A    between atoms: C_4  and  C_3 
REMARK    3  A    between atoms: C_18  and  S_8 
REMARK    4  A    between atoms: C_9  and  C_18 
REMARK       I    between atoms: N_11  and  C_9 
REMARK    5  A    between atoms: C_13  and  N_11 
ROOT
ATOM      1  C   UNL d   1      -0.380  -0.250   0.000  0.00  0.00     0.096 A 
ATOM      2  C   UNL d   1      -0.380  -1.103   0.000  0.00  0.00     0.120 A 
ATOM      3  C   UNL d   1      -1.105   0.163   0.000  0.00  0.00     0.085 A 
ATOM      4  N   UNL d   1      -1.105  -1.496   0.000  0.00  0.00    -0.238 NA
ATOM      5  C   UNL d   1       0.317   0.170   0.000  0.00  0.00     0.103 C 
ATOM      6  N   UNL d   1       1.016   0.591   0.000  0.00  0.00    -0.191 NA
ATOM      7  C   UNL d   1      -1.829  -0.250   0.000  0.00  0.00     0.024 A 
ATOM      8  C   UNL d   1      -1.829  -1.103   0.000  0.00  0.00     0.082 A 
ATOM      9  C   UNL d   1      -2.513  -1.524   0.000  0.00  0.00     0.021 C 
ENDROOT
BRANCH   2  10
ATOM     10  S   UNL d   1       0.345  -1.496   0.000  0.00  0.00    -0.062 SA
BRANCH  10  11
ATOM     11  C   UNL d   1       1.050  -1.077   0.000  0.00  0.00     0.099 C 
BRANCH  11  12
ATOM     12  C   UNL d   1       1.768  -1.490   0.000  0.00  0.00     0.281 C 
ATOM     13  N   UNL d   1       2.466  -1.077   0.000  0.00  0.00    -0.238 NA
ATOM     14  O   UNL d   1       1.768  -2.323   0.000  0.00  0.00    -0.265 OA
BRANCH  13  15
ATOM     15  C   UNL d   1       2.460  -0.256   0.000  0.00  0.00     0.088 C 
ATOM     16  C   UNL d   1       2.460   0.583   0.000  0.00  0.00     0.025 C 
ATOM     17  C   UNL d   1       1.646  -0.264   0.000  0.00  0.00     0.025 C 
ATOM     18  C   UNL d   1       3.266  -0.264   0.000  0.00  0.00     0.025 C 
ENDBRANCH  13  15
ENDBRANCH  11  12
ENDBRANCH  10  11
ENDBRANCH   2  10
BRANCH   3  19
ATOM     19  C   UNL d   1      -1.105   0.982   0.000  0.00  0.00     0.419 C 
ATOM     20  F   UNL d   1      -1.105   1.795   0.000  0.00  0.00    -0.166 F 
ATOM     21  F   UNL d   1      -1.930   0.982   0.000  0.00  0.00    -0.166 F 
ATOM     22  F   UNL d   1      -0.278   0.982   0.000  0.00  0.00    -0.166 F 
ENDBRANCH   3  19
TORSDOF 5
