REMARK  5 active torsions:
REMARK  status: ('A' for Active; 'I' for Inactive)
REMARK    1  A    between atoms: C_6  and  N_1 
REMARK    2  A    between atoms: C_8  and  C_3 
REMARK    3  A    between atoms: C_7  and  C_6 
REMARK    4  A    between atoms: C_9  and  C_7 
REMARK    5  A    between atoms: C_14  and  C_8 
ROOT
ATOM      1  N   UNL d   1       2.220   2.917   0.000  0.00  0.00    -0.289 N 
ATOM      2  N   UNL d   1       2.212   4.260   0.000  0.00  0.00    -0.227 NA
ATOM      3  C   UNL d   1       2.703   3.590   0.000  0.00  0.00     0.148 A 
ATOM      4  C   UNL d   1       1.431   3.170   0.000  0.00  0.00     0.083 A 
ATOM      5  C   UNL d   1       1.424   3.995   0.000  0.00  0.00     0.099 A 
ATOM      6  C   UNL d   1       0.710   2.757   0.000  0.00  0.00     0.019 A 
ATOM      7  C   UNL d   1       0.710   4.407   0.000  0.00  0.00     0.021 A 
ATOM      8  C   UNL d   1       0.000   3.170   0.000  0.00  0.00     0.002 A 
ATOM      9  C   UNL d   1       0.000   3.995   0.000  0.00  0.00     0.002 A 
ENDROOT
BRANCH   1  10
ATOM     10  C   UNL d   1       2.475   2.141   0.000  0.00  0.00     0.082 C 
BRANCH  10  11
ATOM     11  C   UNL d   1       3.303   2.141   0.000  0.00  0.00     0.019 C 
BRANCH  11  12
ATOM     12  C   UNL d   1       3.712   1.427   0.000  0.00  0.00     0.002 A 
ATOM     13  C   UNL d   1       3.293   0.715   0.000  0.00  0.00     0.000 A 
ATOM     14  C   UNL d   1       3.705   0.000   0.000  0.00  0.00     0.000 A 
ATOM     15  C   UNL d   1       4.525   0.000   0.000  0.00  0.00     0.000 A 
ATOM     16  C   UNL d   1       4.938   0.715   0.000  0.00  0.00     0.000 A 
ATOM     17  C   UNL d   1       4.530   1.422   0.000  0.00  0.00     0.000 A 
ENDBRANCH  11  12
ENDBRANCH  10  11
ENDBRANCH   1  10
BRANCH   3  18
ATOM     18  C   UNL d   1       3.523   3.597   0.000  0.00  0.00     0.037 C 
BRANCH  18  19
ATOM     19  C   UNL d   1       3.929   4.319   0.000  0.00  0.00     0.003 C 
ATOM     20  C   UNL d   1       4.746   4.324   0.000  0.00  0.00     0.000 C 
ENDBRANCH  18  19
ENDBRANCH   3  18
TORSDOF 5
