REMARK  5 active torsions:
REMARK  status: ('A' for Active; 'I' for Inactive)
REMARK    1  A    between atoms: C_6  and  N_1 
REMARK    2  A    between atoms: C_10  and  C_3 
REMARK    3  A    between atoms: C_7  and  C_6 
REMARK    4  A    between atoms: C_13  and  C_10 
REMARK    5  A    between atoms: C_14  and  C_13 
ROOT
ATOM      1  N   UNL d   1       2.168   2.119   0.000  0.00  0.00    -0.289 N 
ATOM      2  N   UNL d   1       2.168   3.465   0.000  0.00  0.00    -0.227 NA
ATOM      3  C   UNL d   1       2.667   2.777   0.000  0.00  0.00     0.148 A 
ATOM      4  C   UNL d   1       1.402   2.365   0.000  0.00  0.00     0.083 A 
ATOM      5  C   UNL d   1       1.402   3.214   0.000  0.00  0.00     0.099 A 
ATOM      6  C   UNL d   1       0.688   1.957   0.000  0.00  0.00     0.019 A 
ATOM      7  C   UNL d   1       0.658   3.575   0.000  0.00  0.00     0.021 A 
ATOM      8  C   UNL d   1       0.000   2.365   0.000  0.00  0.00     0.002 A 
ATOM      9  C   UNL d   1       0.000   3.185   0.000  0.00  0.00     0.002 A 
ENDROOT
BRANCH   1  10
ATOM     10  C   UNL d   1       2.556   1.434   0.000  0.00  0.00     0.088 C 
BRANCH  10  11
ATOM     11  C   UNL d   1       2.168   0.719   0.000  0.00  0.00     0.052 C 
ATOM     12  C   UNL d   1       1.343   0.719   0.000  0.00  0.00     0.009 C 
ATOM     13 BR   UNL d   1       2.556   0.000   0.000  0.00  0.00    -0.048 Br
ENDBRANCH  10  11
ENDBRANCH   1  10
BRANCH   3  14
ATOM     14  C   UNL d   1       3.491   2.777   0.000  0.00  0.00     0.037 C 
BRANCH  14  15
ATOM     15  C   UNL d   1       3.904   2.062   0.000  0.00  0.00     0.003 C 
BRANCH  15  16
ATOM     16  C   UNL d   1       4.729   2.062   0.000  0.00  0.00     0.000 C 
ATOM     17  C   UNL d   1       5.141   1.348   0.000  0.00  0.00     0.000 C 
ENDBRANCH  15  16
ENDBRANCH  14  15
ENDBRANCH   3  14
TORSDOF 5
