REMARK  1 active torsions:
REMARK  status: ('A' for Active; 'I' for Inactive)
REMARK    1  A    between atoms: C_2  and  N_1 
ROOT
ATOM      1  C   UNL d   1      -1.409   0.600   0.000  0.00  0.00     0.130 A 
ATOM      2  C   UNL d   1      -1.409  -0.198   0.000  0.00  0.00     0.067 A 
ATOM      3  C   UNL d   1      -0.697  -0.626   0.000  0.00  0.00     0.215 A 
ATOM      4  C   UNL d   1       0.021  -0.219   0.000  0.00  0.00     0.120 A 
ATOM      5  C   UNL d   1      -0.697   1.028   0.000  0.00  0.00     0.025 A 
ATOM      6  C   UNL d   1       0.021   0.622   0.000  0.00  0.00     0.022 A 
ATOM      7  N   UNL d   1       0.734  -0.626   0.000  0.00  0.00    -0.241 NA
ATOM      8  O   UNL d   1      -0.697  -1.446   0.000  0.00  0.00    -0.285 OA
ATOM      9  C   UNL d   1       0.734   1.028   0.000  0.00  0.00     0.003 A 
ATOM     10  C   UNL d   1       1.446  -0.198   0.000  0.00  0.00     0.099 A 
ATOM     11  C   UNL d   1       1.446   0.600   0.000  0.00  0.00     0.021 A 
ENDROOT
BRANCH   1  12
ATOM     12  N   UNL d   1      -2.136   0.974   0.000  0.00  0.00    -0.114 N 
ATOM     13  O   UNL d   1      -2.164   1.799   0.000  0.00  0.00    -0.532 OA
ATOM     14  O   UNL d   1      -2.817   0.525   0.000  0.00  0.00    -0.532 OA
ENDBRANCH   1  12
TORSDOF 1
