REMARK  2 active torsions:
REMARK  status: ('A' for Active; 'I' for Inactive)
REMARK    1  A    between atoms: N_6  and  C_4 
REMARK    2  A    between atoms: C_9  and  N_6 
ROOT
ATOM      1  S   UNL d   1       3.241  -2.439   0.000  0.00  0.00     0.216 S 
ATOM      2  C   UNL d   1       3.914  -1.959   0.000  0.00  0.00     0.121 A 
ATOM      3  C   UNL d   1       2.596  -1.948   0.000  0.00  0.00     0.142 A 
ATOM      4  C   UNL d   1       3.683  -1.167   0.000  0.00  0.00     0.132 A 
ATOM      5  C   UNL d   1       2.863  -1.167   0.000  0.00  0.00     0.225 A 
ATOM      6  O   UNL d   1       3.914  -2.933   0.000  0.00  0.00    -0.217 OA
ATOM      7  O   UNL d   1       2.723  -3.073   0.000  0.00  0.00    -0.217 OA
ATOM      8  O   UNL d   1       2.358  -0.494   0.000  0.00  0.00    -0.284 OA
ENDROOT
BRANCH   4   9
ATOM      9  N   UNL d   1       4.082  -0.466   0.000  0.00  0.00    -0.242 NA
BRANCH   9  10
ATOM     10  C   UNL d   1       3.690   0.252   0.000  0.00  0.00     0.082 A 
ATOM     11  C   UNL d   1       2.884   0.263   0.000  0.00  0.00     0.020 A 
ATOM     12  C   UNL d   1       2.484   1.006   0.000  0.00  0.00     0.013 A 
ATOM     13  C   UNL d   1       2.915   1.699   0.000  0.00  0.00     0.058 A 
ATOM     14  C   UNL d   1       3.732   1.699   0.000  0.00  0.00     0.013 A 
ATOM     15 CL   UNL d   1       2.505   2.435   0.000  0.00  0.00    -0.082 Cl
ATOM     16  C   UNL d   1       4.121   0.964   0.000  0.00  0.00     0.020 A 
ENDBRANCH   9  10
ENDBRANCH   4   9
TORSDOF 2
