REMARK  3 active torsions:
REMARK  status: ('A' for Active; 'I' for Inactive)
REMARK    1  A    between atoms: S_6  and  C_2 
REMARK    2  A    between atoms: C_9  and  S_6 
REMARK    3  A    between atoms: C_7  and  C_9 
ROOT
ATOM      1  N   UNL d   1       3.995  -3.728   0.000  0.00  0.00    -0.243 NA
ATOM      2  C   UNL d   1       4.858  -2.719   0.000  0.00  0.00     0.046 A 
ATOM      3  C   UNL d   1       4.095  -2.406   0.000  0.00  0.00     0.025 A 
ATOM      4  C   UNL d   1       4.796  -3.532   0.000  0.00  0.00     0.105 A 
ATOM      5  C   UNL d   1       3.557  -3.032   0.000  0.00  0.00     0.082 A 
ATOM      6  C   UNL d   1       3.820  -1.631   0.000  0.00  0.00     0.002 A 
ATOM      7  C   UNL d   1       2.740  -2.881   0.000  0.00  0.00     0.019 A 
ATOM      8  C   UNL d   1       2.994  -1.468   0.000  0.00  0.00     0.000 A 
ATOM      9  C   UNL d   1       2.465  -2.093   0.000  0.00  0.00     0.002 A 
ENDROOT
BRANCH   2  10
ATOM     10  S   UNL d   1       5.571  -2.293   0.000  0.00  0.00    -0.101 SA
BRANCH  10  11
ATOM     11  C   UNL d   1       6.297  -2.694   0.000  0.00  0.00     0.160 C 
BRANCH  11  12
ATOM     12  C   UNL d   1       7.010  -2.277   0.000  0.00  0.00     0.197 C 
ATOM     13  O   UNL d   1       6.997  -1.443   0.000  0.00  0.00    -0.647 OA
ATOM     14  O   UNL d   1       7.735  -2.669   0.000  0.00  0.00    -0.647 OA
ENDBRANCH  11  12
ENDBRANCH  10  11
ENDBRANCH   2  10
TORSDOF 3
