REMARK  2 active torsions:
REMARK  status: ('A' for Active; 'I' for Inactive)
REMARK    1  A    between atoms: C_5  and  C_1 
REMARK    2  A    between atoms: C_7  and  C_5 
ROOT
ATOM      1  C   UNL d   1      -1.202  -0.605   0.000  0.00  0.00     0.158 A 
ATOM      2  C   UNL d   1      -1.202   0.219   0.000  0.00  0.00     0.131 A 
ATOM      3  O   UNL d   1      -1.926  -1.013   0.000  0.00  0.00    -0.302 OA
ATOM      4  C   UNL d   1      -2.657   0.219   0.000  0.00  0.00     0.044 A 
ATOM      5  C   UNL d   1      -2.657  -0.605   0.000  0.00  0.00     0.102 A 
ATOM      6  N   UNL d   1      -0.490   0.620   0.000  0.00  0.00    -0.146 N 
ATOM      7  C   UNL d   1      -3.381   0.624   0.000  0.00  0.00     0.004 A 
ATOM      8  C   UNL d   1      -3.381  -1.013   0.000  0.00  0.00     0.025 A 
ATOM      9  C   UNL d   1      -4.098   0.219   0.000  0.00  0.00     0.000 A 
ATOM     10  C   UNL d   1      -4.098  -0.605   0.000  0.00  0.00     0.002 A 
ENDROOT
BRANCH   1  11
ATOM     11  C   UNL d   1      -0.490  -1.006   0.000  0.00  0.00     0.220 C 
ATOM     12  O   UNL d   1      -0.490  -1.815   0.000  0.00  0.00    -0.284 OA
BRANCH  11  13
ATOM     13  C   UNL d   1       0.212  -0.624   0.000  0.00  0.00     0.041 A 
ATOM     14  C   UNL d   1       0.924  -1.039   0.000  0.00  0.00     0.003 A 
ATOM     15  C   UNL d   1       1.648  -0.624   0.000  0.00  0.00     0.000 A 
ATOM     16  C   UNL d   1       1.648   0.223   0.000  0.00  0.00     0.000 A 
ATOM     17  C   UNL d   1       0.924   0.624   0.000  0.00  0.00     0.000 A 
ATOM     18  C   UNL d   1       2.361   0.642   0.000  0.00  0.00     0.000 C 
ATOM     19  C   UNL d   1       0.212   0.223   0.000  0.00  0.00     0.003 A 
ENDBRANCH  11  13
ENDBRANCH   1  11
TORSDOF 2
