REMARK  2 active torsions:
REMARK  status: ('A' for Active; 'I' for Inactive)
REMARK    1  A    between atoms: C_9  and  C_3 
REMARK    2  A    between atoms: C_8  and  C_4 
ROOT
ATOM      1  N   UNL d   1      -0.494  -0.120   0.000  0.00  0.00    -0.242 NA
ATOM      2  N   UNL d   1      -0.494   1.528   0.000  0.00  0.00    -0.242 NA
ATOM      3  C   UNL d   1       0.219   0.293   0.000  0.00  0.00     0.099 A 
ATOM      4  C   UNL d   1       0.219   1.112   0.000  0.00  0.00     0.099 A 
ATOM      5  C   UNL d   1      -1.204   0.293   0.000  0.00  0.00     0.101 A 
ATOM      6  C   UNL d   1      -1.204   1.112   0.000  0.00  0.00     0.099 A 
ATOM      7  C   UNL d   1      -1.914  -0.120   0.000  0.00  0.00     0.042 A 
ATOM      8  C   UNL d   1      -1.914   1.528   0.000  0.00  0.00     0.022 A 
ATOM      9  C   UNL d   1      -2.626   0.293   0.000  0.00  0.00     0.104 A 
ATOM     10  N   UNL d   1      -3.331  -0.120   0.000  0.00  0.00    -0.148 N 
ATOM     11  C   UNL d   1      -2.626   1.112   0.000  0.00  0.00     0.023 A 
ENDROOT
BRANCH   3  12
ATOM     12  C   UNL d   1       0.924  -0.120   0.000  0.00  0.00     0.019 A 
ATOM     13  C   UNL d   1       1.647   0.293   0.000  0.00  0.00     0.002 A 
ATOM     14  C   UNL d   1       2.366  -0.120   0.000  0.00  0.00     0.000 A 
ATOM     15  C   UNL d   1       2.366  -0.953   0.000  0.00  0.00     0.000 A 
ATOM     16  C   UNL d   1       1.635  -1.362   0.000  0.00  0.00     0.000 A 
ATOM     17  C   UNL d   1       0.924  -0.946   0.000  0.00  0.00     0.002 A 
ENDBRANCH   3  12
BRANCH   4  18
ATOM     18  C   UNL d   1       0.924   1.528   0.000  0.00  0.00     0.019 A 
ATOM     19  C   UNL d   1       1.647   1.112   0.000  0.00  0.00     0.002 A 
ATOM     20  C   UNL d   1       2.366   1.528   0.000  0.00  0.00     0.000 A 
ATOM     21  C   UNL d   1       2.366   2.363   0.000  0.00  0.00     0.000 A 
ATOM     22  C   UNL d   1       1.647   2.780   0.000  0.00  0.00     0.000 A 
ATOM     23  C   UNL d   1       0.924   2.363   0.000  0.00  0.00     0.002 A 
ENDBRANCH   4  18
TORSDOF 2
