REMARK  12 active torsions:
REMARK  status: ('A' for Active; 'I' for Inactive)
REMARK    1  A    between atoms: C_23  and  N_1 
REMARK    2  A    between atoms: S_8  and  C_2 
REMARK    3  A    between atoms: C_7  and  C_11 
REMARK       I    between atoms: N_12  and  C_7 
REMARK    4  A    between atoms: C_24  and  S_8 
REMARK    5  A    between atoms: C_25  and  N_12 
REMARK    6  A    between atoms: C_13  and  C_25 
REMARK    7  A    between atoms: C_15  and  C_24 
REMARK    8  A    between atoms: O_26  and  C_15 
REMARK    9  A    between atoms: C_28  and  C_23 
REMARK   10  A    between atoms: C_27  and  O_26 
REMARK   11  A    between atoms: C_30  and  C_28 
REMARK   12  A    between atoms: C_29  and  C_30 
ROOT
ATOM      1  N   UNL d   1      -5.294  11.803   0.000  0.00  0.00    -0.253 N 
ATOM      2  C   UNL d   1      -5.998  11.390   0.000  0.00  0.00     0.182 A 
ATOM      3  C   UNL d   1      -5.294  12.625   0.000  0.00  0.00     0.268 A 
ATOM      4  N   UNL d   1      -6.706  11.803   0.000  0.00  0.00    -0.222 NA
ATOM      5  C   UNL d   1      -5.998  13.038   0.000  0.00  0.00     0.074 A 
ATOM      6  C   UNL d   1      -6.718  12.625   0.000  0.00  0.00     0.088 A 
ATOM      7  C   UNL d   1      -7.437  13.038   0.000  0.00  0.00     0.024 A 
ATOM      8  C   UNL d   1      -6.010  13.864   0.000  0.00  0.00     0.006 A 
ATOM      9  C   UNL d   1      -7.437  13.864   0.000  0.00  0.00     0.059 A 
ATOM     10  O   UNL d   1      -4.574  13.038   0.000  0.00  0.00    -0.267 OA
ATOM     11  C   UNL d   1      -6.718  14.277   0.000  0.00  0.00     0.005 A 
ENDROOT
BRANCH   9  12
ATOM     12  C   UNL d   1      -8.157  14.281   0.000  0.00  0.00     0.279 C 
ATOM     13  N   UNL d   1      -8.853  13.864   0.000  0.00  0.00    -0.204 NA
ATOM     14  O   UNL d   1      -8.141  15.103   0.000  0.00  0.00    -0.265 OA
BRANCH  13  15
ATOM     15  C   UNL d   1      -8.849  13.042   0.000  0.00  0.00     0.127 C 
BRANCH  15  16
ATOM     16  C   UNL d   1      -9.561  12.625   0.000  0.00  0.00     0.119 A 
ATOM     17  O   UNL d   1      -9.738  11.834   0.000  0.00  0.00    -0.304 OA
ATOM     18  C   UNL d   1     -10.552  11.732   0.000  0.00  0.00     0.123 A 
ATOM     19  C   UNL d   1     -10.879  12.495   0.000  0.00  0.00     0.029 A 
ATOM     20  C   UNL d   1     -10.281  13.042   0.000  0.00  0.00     0.028 A 
ENDBRANCH  15  16
ENDBRANCH  13  15
ENDBRANCH   9  12
BRANCH   2  21
ATOM     21  S   UNL d   1      -5.998  10.564   0.000  0.00  0.00    -0.044 SA
BRANCH  21  22
ATOM     22  C   UNL d   1      -6.706  10.151   0.000  0.00  0.00     0.107 C 
BRANCH  22  23
ATOM     23  C   UNL d   1      -6.694   9.325   0.000  0.00  0.00     0.307 C 
ATOM     24  O   UNL d   1      -5.974   8.912   0.000  0.00  0.00    -0.258 OA
BRANCH  23  25
ATOM     25  O   UNL d   1      -7.414   8.912   0.000  0.00  0.00    -0.271 OA
BRANCH  25  26
ATOM     26  C   UNL d   1      -7.398   8.086   0.000  0.00  0.00     0.126 C 
ATOM     27  C   UNL d   1      -8.106   7.685   0.000  0.00  0.00     0.029 C 
ENDBRANCH  25  26
ENDBRANCH  23  25
ENDBRANCH  22  23
ENDBRANCH  21  22
ENDBRANCH   2  21
BRANCH   1  28
ATOM     28  C   UNL d   1      -4.574  11.378   0.000  0.00  0.00     0.085 C 
BRANCH  28  29
ATOM     29  C   UNL d   1      -3.854  11.779   0.000  0.00  0.00     0.019 C 
BRANCH  29  30
ATOM     30  C   UNL d   1      -3.146  11.378   0.000  0.00  0.00     0.002 C 
BRANCH  30  31
ATOM     31  C   UNL d   1      -2.427  11.779   0.000  0.00  0.00     0.000 C 
ATOM     32  C   UNL d   1      -1.730  11.378   0.000  0.00  0.00     0.000 C 
ENDBRANCH  30  31
ENDBRANCH  29  30
ENDBRANCH  28  29
ENDBRANCH   1  28
TORSDOF 12
