REMARK  5 active torsions:
REMARK  status: ('A' for Active; 'I' for Inactive)
REMARK    1  A    between atoms: C_2  and  N_1 
REMARK    2  A    between atoms: O_4  and  N_1 
REMARK    3  A    between atoms: C_8  and  C_2 
REMARK    4  A    between atoms: C_3  and  O_4 
REMARK    5  A    between atoms: C_5  and  C_3 
ROOT
ATOM      1  O   UNL d   1       7.019  -2.019   0.000  0.00  0.00    -0.168 OA
ENDROOT
BRANCH   1   2
ATOM      2  C   UNL d   1       6.225  -2.468   0.000  0.00  0.00     0.319 C 
ATOM      3  O   UNL d   1       6.208  -3.367   0.000  0.00  0.00    -0.257 OA
BRANCH   2   4
ATOM      4  C   UNL d   1       5.510  -2.046   0.000  0.00  0.00     0.065 A 
ATOM      5  C   UNL d   1       5.510  -1.224   0.000  0.00  0.00     0.006 A 
ATOM      6  C   UNL d   1       4.810  -0.822   0.000  0.00  0.00     0.007 A 
ATOM      7  C   UNL d   1       4.082  -1.211   0.000  0.00  0.00     0.035 A 
ATOM      8  C   UNL d   1       4.082  -2.035   0.000  0.00  0.00     0.007 A 
ATOM      9 BR   UNL d   1       3.367  -0.797   0.000  0.00  0.00    -0.049 Br
ATOM     10  C   UNL d   1       4.793  -2.468   0.000  0.00  0.00     0.006 A 
ENDBRANCH   2   4
ENDBRANCH   1   2
BRANCH   1  11
ATOM     11  N   UNL d   1       7.730  -2.419   0.000  0.00  0.00    -0.102 NA
BRANCH  11  12
ATOM     12  C   UNL d   1       8.447  -2.019   0.000  0.00  0.00     0.210 C 
ATOM     13  N   UNL d   1       8.447  -1.194   0.000  0.00  0.00    -0.125 N 
BRANCH  12  14
ATOM     14  C   UNL d   1       9.162  -2.419   0.000  0.00  0.00     0.043 A 
ATOM     15  C   UNL d   1       9.873  -2.019   0.000  0.00  0.00     0.024 A 
ATOM     16  C   UNL d   1      10.590  -2.419   0.000  0.00  0.00     0.099 A 
ATOM     17  N   UNL d   1      10.576  -3.246   0.000  0.00  0.00    -0.242 NA
ATOM     18  C   UNL d   1       9.873  -3.665   0.000  0.00  0.00     0.099 A 
ATOM     19  C   UNL d   1       9.162  -3.246   0.000  0.00  0.00     0.024 A 
ENDBRANCH  12  14
ENDBRANCH  11  12
ENDBRANCH   1  11
TORSDOF 5
