REMARK  2 active torsions:
REMARK  status: ('A' for Active; 'I' for Inactive)
REMARK    1  A    between atoms: C_2  and  N_1 
REMARK    2  A    between atoms: O_12  and  C_10 
ROOT
ATOM      1  C   UNL d   1      -0.510   1.381   0.000  0.00  0.00     0.072 A 
ATOM      2  C   UNL d   1       0.000   0.736   0.000  0.00  0.00     0.042 A 
ATOM      3  C   UNL d   1       0.812   0.873   0.000  0.00  0.00     0.096 A 
ATOM      4  C   UNL d   1      -0.208   2.151   0.000  0.00  0.00     0.018 A 
ATOM      5  C   UNL d   1       0.584   2.288   0.000  0.00  0.00     0.004 A 
ATOM      6  C   UNL d   1       1.118   1.637   0.000  0.00  0.00     0.024 A 
ENDROOT
BRANCH   1   7
ATOM      7  N   UNL d   1      -1.325   1.246   0.000  0.00  0.00    -0.242 N 
ATOM      8  C   UNL d   1      -1.699   0.524   0.000  0.00  0.00     0.267 A 
ATOM      9  C   UNL d   1      -2.515   0.647   0.000  0.00  0.00     0.066 A 
ATOM     10  O   UNL d   1      -1.325  -0.212   0.000  0.00  0.00    -0.267 OA
ATOM     11  C   UNL d   1      -2.643   1.468   0.000  0.00  0.00     0.066 A 
ATOM     12  C   UNL d   1      -1.906   1.848   0.000  0.00  0.00     0.267 A 
ATOM     13  O   UNL d   1      -1.779   2.657   0.000  0.00  0.00    -0.267 OA
ENDBRANCH   1   7
BRANCH   3  14
ATOM     14  O   UNL d   1       1.335   0.222   0.000  0.00  0.00    -0.328 OA
ATOM     15  C   UNL d   1       1.024  -0.528   0.000  0.00  0.00     0.181 C 
ENDBRANCH   3  14
TORSDOF 2
