REMARK  5 active torsions:
REMARK  status: ('A' for Active; 'I' for Inactive)
REMARK    1  A    between atoms: N_2  and  S_1 
REMARK    2  A    between atoms: C_6  and  S_1 
REMARK       I    between atoms: C_3  and  N_4 
REMARK    3  A    between atoms: C_5  and  C_3 
REMARK    4  A    between atoms: O_22  and  C_12 
REMARK    5  A    between atoms: O_26  and  C_16 
ROOT
ATOM      1  N   UNL d   1      -1.308  -0.816   0.000  0.00  0.00    -0.226 N 
ATOM      2  C   UNL d   1       0.835   0.431   0.000  0.00  0.00     0.265 C 
ATOM      3  N   UNL d   1       0.123   0.015   0.000  0.00  0.00    -0.269 N 
ATOM      4  C   UNL d   1      -0.589  -1.206   0.000  0.00  0.00     0.111 A 
ATOM      5  C   UNL d   1      -1.308   0.015   0.000  0.00  0.00     0.111 A 
ATOM      6  C   UNL d   1      -0.589   0.412   0.000  0.00  0.00     0.103 A 
ATOM      7  C   UNL d   1       0.123  -0.816   0.000  0.00  0.00     0.103 A 
ATOM      8  O   UNL d   1       1.542   0.015   0.000  0.00  0.00    -0.267 OA
ENDROOT
BRANCH   2   9
ATOM      9  C   UNL d   1       0.835   1.239   0.000  0.00  0.00     0.059 A 
ATOM     10  C   UNL d   1       1.546   1.655   0.000  0.00  0.00     0.031 A 
ATOM     11  C   UNL d   1       1.546   2.457   0.000  0.00  0.00     0.116 A 
ATOM     12  C   UNL d   1       0.835   2.873   0.000  0.00  0.00     0.116 A 
ATOM     13  C   UNL d   1       0.123   2.457   0.000  0.00  0.00     0.026 A 
ATOM     14  C   UNL d   1       0.123   1.655   0.000  0.00  0.00     0.007 A 
BRANCH  11  15
ATOM     15  O   UNL d   1       2.289   2.849   0.000  0.00  0.00    -0.326 OA
ATOM     16  C   UNL d   1       2.320   3.689   0.000  0.00  0.00     0.181 C 
ENDBRANCH  11  15
BRANCH  12  17
ATOM     17  O   UNL d   1       0.830   3.703   0.000  0.00  0.00    -0.326 OA
ATOM     18  C   UNL d   1       0.064   3.991   0.000  0.00  0.00     0.181 C 
ENDBRANCH  12  17
ENDBRANCH   2   9
BRANCH   1  19
ATOM     19  S   UNL d   1      -2.017  -1.230   0.000  0.00  0.00     0.271 S 
ATOM     20  O   UNL d   1      -2.448  -0.518   0.000  0.00  0.00    -0.200 OA
ATOM     21  O   UNL d   1      -2.729  -1.662   0.000  0.00  0.00    -0.200 OA
BRANCH  19  22
ATOM     22  C   UNL d   1      -1.601  -1.943   0.000  0.00  0.00     0.104 A 
ATOM     23  C   UNL d   1      -1.998  -2.670   0.000  0.00  0.00     0.014 A 
ATOM     24  C   UNL d   1      -1.601  -3.383   0.000  0.00  0.00     0.012 A 
ATOM     25  C   UNL d   1      -0.773  -3.383   0.000  0.00  0.00     0.058 A 
ATOM     26  C   UNL d   1      -0.357  -2.670   0.000  0.00  0.00     0.012 A 
ATOM     27 CL   UNL d   1      -0.357  -4.096   0.000  0.00  0.00    -0.082 Cl
ATOM     28  C   UNL d   1      -0.773  -1.943   0.000  0.00  0.00     0.014 A 
ENDBRANCH  19  22
ENDBRANCH   1  19
TORSDOF 5
