REMARK  2 active torsions:
REMARK  status: ('A' for Active; 'I' for Inactive)
REMARK    1  A    between atoms: C_6  and  C_1 
REMARK    2  A    between atoms: C_7  and  C_5 
ROOT
ATOM      1  C   UNL d   1       3.022   1.068   0.000  0.00  0.00     0.169 A 
ATOM      2  C   UNL d   1       2.755   1.864   0.000  0.00  0.00     0.048 A 
ATOM      3  N   UNL d   1       1.668   1.068   0.000  0.00  0.00    -0.148 NA
ATOM      4  N   UNL d   1       2.356   0.590   0.000  0.00  0.00    -0.142 NA
ATOM      5  C   UNL d   1       1.934   1.864   0.000  0.00  0.00     0.105 A 
ENDROOT
BRANCH   5   6
ATOM      6  C   UNL d   1       1.445   2.526   0.000  0.00  0.00     0.019 A 
ATOM      7  C   UNL d   1       1.779   3.281   0.000  0.00  0.00     0.002 A 
ATOM      8  C   UNL d   1       1.294   3.946   0.000  0.00  0.00     0.011 A 
ATOM      9  C   UNL d   1       0.472   3.881   0.000  0.00  0.00     0.058 A 
ATOM     10  C   UNL d   1       0.146   3.125   0.000  0.00  0.00     0.011 A 
ATOM     11 CL   UNL d   1       0.000   4.533   0.000  0.00  0.00    -0.082 Cl
ATOM     12  C   UNL d   1       0.621   2.448   0.000  0.00  0.00     0.002 A 
ENDBRANCH   5   6
BRANCH   1  13
ATOM     13  C   UNL d   1       3.819   0.820   0.000  0.00  0.00     0.231 C 
ATOM     14  O   UNL d   1       4.441   1.372   0.000  0.00  0.00    -0.643 OA
ATOM     15  O   UNL d   1       3.977   0.000   0.000  0.00  0.00    -0.643 OA
ENDBRANCH   1  13
TORSDOF 2
