REMARK  7 active torsions:
REMARK  status: ('A' for Active; 'I' for Inactive)
REMARK    1  A    between atoms: C_3  and  S_1 
REMARK    2  A    between atoms: N_4  and  S_1 
REMARK    3  A    between atoms: C_6  and  C_2 
REMARK       I    between atoms: N_13  and  C_6 
REMARK    4  A    between atoms: C_17  and  N_13 
REMARK    5  A    between atoms: C_18  and  C_17 
REMARK    6  A    between atoms: C_20  and  C_18 
REMARK    7  A    between atoms: C_19  and  C_20 
ROOT
ATOM      1  C   UNL d   1       4.807  -1.931   0.000  0.00  0.00     0.086 A 
ATOM      2  C   UNL d   1       4.094  -3.175   0.000  0.00  0.00     0.104 A 
ATOM      3  C   UNL d   1       4.807  -2.761   0.000  0.00  0.00     0.020 A 
ATOM      4  C   UNL d   1       4.094  -1.520   0.000  0.00  0.00     0.145 A 
ATOM      5  C   UNL d   1       3.374  -2.761   0.000  0.00  0.00     0.015 A 
ATOM      6  C   UNL d   1       3.374  -1.941   0.000  0.00  0.00     0.030 A 
ATOM      7  F   UNL d   1       4.084  -0.700   0.000  0.00  0.00    -0.204 F 
ENDROOT
BRANCH   2   8
ATOM      8  S   UNL d   1       4.094  -4.008   0.000  0.00  0.00     0.271 S 
ATOM      9  O   UNL d   1       3.264  -3.995   0.000  0.00  0.00    -0.200 OA
ATOM     10  O   UNL d   1       4.919  -4.008   0.000  0.00  0.00    -0.200 OA
BRANCH   8  11
ATOM     11  N   UNL d   1       4.084  -4.830   0.000  0.00  0.00    -0.229 N 
ATOM     12  C   UNL d   1       3.364  -5.229   0.000  0.00  0.00     0.092 A 
ATOM     13  C   UNL d   1       3.359  -6.053   0.000  0.00  0.00     0.020 A 
ATOM     14  C   UNL d   1       4.061  -6.475   0.000  0.00  0.00     0.003 A 
ATOM     15  C   UNL d   1       4.782  -6.071   0.000  0.00  0.00     0.020 A 
ATOM     16  C   UNL d   1       4.792  -5.244   0.000  0.00  0.00     0.092 A 
ENDBRANCH   8  11
ENDBRANCH   2   8
BRANCH   1  17
ATOM     17  C   UNL d   1       5.525  -1.520   0.000  0.00  0.00     0.281 C 
ATOM     18  O   UNL d   1       5.517  -0.692   0.000  0.00  0.00    -0.265 OA
ATOM     19  N   UNL d   1       6.240  -1.926   0.000  0.00  0.00    -0.206 NA
BRANCH  19  20
ATOM     20  C   UNL d   1       6.958  -1.517   0.000  0.00  0.00     0.102 C 
BRANCH  20  21
ATOM     21  C   UNL d   1       7.670  -1.926   0.000  0.00  0.00     0.021 C 
BRANCH  21  22
ATOM     22  C   UNL d   1       8.378  -1.510   0.000  0.00  0.00     0.002 C 
BRANCH  22  23
ATOM     23  C   UNL d   1       9.098  -1.918   0.000  0.00  0.00     0.000 C 
ATOM     24  C   UNL d   1       9.808  -1.504   0.000  0.00  0.00     0.000 C 
ENDBRANCH  22  23
ENDBRANCH  21  22
ENDBRANCH  20  21
ENDBRANCH  19  20
ENDBRANCH   1  17
TORSDOF 7
