REMARK  3 active torsions:
REMARK  status: ('A' for Active; 'I' for Inactive)
REMARK    1  A    between atoms: C_10  and  C_2 
REMARK    2  A    between atoms: C_4  and  C_10 
REMARK    3  A    between atoms: C_27  and  N_13 
ROOT
ATOM      1  C   UNL d   1       5.679  -4.597   0.000  0.00  0.00     0.093 A 
ATOM      2  C   UNL d   1       7.142  -5.385   0.000  0.00  0.00     0.035 A 
ATOM      3  C   UNL d   1       5.679  -5.376   0.000  0.00  0.00    -0.012 A 
ATOM      4  C   UNL d   1       3.489  -5.774   0.000  0.00  0.00     0.056 A 
ATOM      5  C   UNL d   1       7.151  -4.597   0.000  0.00  0.00     0.180 A 
ATOM      6  C   UNL d   1       3.489  -6.545   0.000  0.00  0.00    -0.012 A 
ATOM      7  C   UNL d   1       4.216  -5.376   0.000  0.00  0.00    -0.016 A 
ATOM      8  C   UNL d   1       4.943  -5.766   0.000  0.00  0.00    -0.007 A 
ATOM      9  C   UNL d   1       6.407  -5.766   0.000  0.00  0.00    -0.001 A 
ATOM     10  C   UNL d   1       4.225  -6.935   0.000  0.00  0.00    -0.004 A 
ATOM     11  C   UNL d   1       4.943  -4.207   0.000  0.00  0.00    -0.016 A 
ATOM     12  C   UNL d   1       4.952  -6.545   0.000  0.00  0.00    -0.001 A 
ATOM     13  C   UNL d   1       4.216  -4.597   0.000  0.00  0.00    -0.007 A 
ATOM     14  C   UNL d   1       2.762  -5.385   0.000  0.00  0.00    -0.015 A 
ATOM     15  C   UNL d   1       2.744  -6.952   0.000  0.00  0.00     0.038 A 
ATOM     16  O   UNL d   1       7.740  -4.086   0.000  0.00  0.00    -0.291 OA
ATOM     17  C   UNL d   1       5.679  -3.809   0.000  0.00  0.00     0.017 C 
ATOM     18  C   UNL d   1       2.009  -5.766   0.000  0.00  0.00     0.038 A 
ATOM     19  C   UNL d   1       2.009  -6.554   0.000  0.00  0.00     0.195 A 
ATOM     20  C   UNL d   1       3.480  -4.710   0.000  0.00  0.00     0.013 C 
ATOM     21  O   UNL d   1       1.299  -6.943   0.000  0.00  0.00    -0.287 OA
ENDROOT
BRANCH   2  22
ATOM     22  C   UNL d   1       7.835  -5.801   0.000  0.00  0.00     0.006 C 
BRANCH  22  23
ATOM     23  C   UNL d   1       8.571  -5.437   0.000  0.00  0.00     0.039 A 
ATOM     24  C   UNL d   1       9.341  -5.671   0.000  0.00  0.00     0.085 A 
ATOM     25  N   UNL d   1       9.818  -4.978   0.000  0.00  0.00    -0.228 N 
ATOM     26  C   UNL d   1       9.523  -6.493   0.000  0.00  0.00     0.021 C 
ATOM     27  N   UNL d   1       9.341  -4.311   0.000  0.00  0.00    -0.164 NA
ATOM     28  C   UNL d   1       8.562  -4.597   0.000  0.00  0.00     0.122 A 
BRANCH  25  29
ATOM     29  C   UNL d   1      10.657  -4.978   0.000  0.00  0.00     0.101 C 
ATOM     30  C   UNL d   1      11.082  -4.242   0.000  0.00  0.00     0.022 C 
ENDBRANCH  25  29
ENDBRANCH  22  23
ENDBRANCH   2  22
TORSDOF 3
