REMARK  3 active torsions:
REMARK  status: ('A' for Active; 'I' for Inactive)
REMARK    1  A    between atoms: C_7  and  C_1 
REMARK    2  A    between atoms: N_9  and  C_7 
REMARK    3  A    between atoms: C_8  and  N_9 
ROOT
ATOM      1  C   UNL d   1      -1.534   0.834   0.000  0.00  0.00     0.146 A 
ATOM      2  C   UNL d   1      -1.966   0.127   0.000  0.00  0.00     0.304 A 
ATOM      3  C   UNL d   1      -1.966   1.568   0.000  0.00  0.00     0.304 A 
ATOM      4  O   UNL d   1      -2.769   1.568   0.000  0.00  0.00    -0.277 OA
ATOM      5  O   UNL d   1      -2.793   0.152   0.000  0.00  0.00    -0.277 OA
ATOM      6  C   UNL d   1      -3.202   0.834   0.000  0.00  0.00     0.203 A 
ATOM      7  O   UNL d   1      -1.534   2.290   0.000  0.00  0.00    -0.259 OA
ATOM      8  O   UNL d   1      -1.534  -0.629   0.000  0.00  0.00    -0.259 OA
ATOM      9  C   UNL d   1      -3.902   0.436   0.000  0.00  0.00     0.062 C 
ATOM     10  C   UNL d   1      -3.902   1.257   0.000  0.00  0.00     0.062 C 
ENDROOT
BRANCH   1  11
ATOM     11  C   UNL d   1      -0.709   0.834   0.000  0.00  0.00     0.129 C 
BRANCH  11  12
ATOM     12  N   UNL d   1      -0.310   0.127   0.000  0.00  0.00    -0.057 NA
BRANCH  12  13
ATOM     13  C   UNL d   1       0.524   0.127   0.000  0.00  0.00     0.750 A 
ATOM     14  N   UNL d   1       0.949  -0.602   0.000  0.00  0.00    -0.058 NA
ATOM     15  C   UNL d   1       1.781  -0.571   0.000  0.00  0.00     0.120 A 
ATOM     16  C   UNL d   1       2.187   0.127   0.000  0.00  0.00     0.043 A 
ATOM     17  C   UNL d   1       1.762   0.834   0.000  0.00  0.00     0.120 A 
ATOM     18  N   UNL d   1       0.949   0.834   0.000  0.00  0.00    -0.058 NA
ENDBRANCH  12  13
ENDBRANCH  11  12
ENDBRANCH   1  11
TORSDOF 3
