REMARK  4 active torsions:
REMARK  status: ('A' for Active; 'I' for Inactive)
REMARK    1  A    between atoms: N_2  and  S_1 
REMARK    2  A    between atoms: C_4  and  C_3 
REMARK       I    between atoms: N_9  and  C_4 
REMARK    3  A    between atoms: C_15  and  N_9 
REMARK    4  A    between atoms: C_10  and  C_15 
ROOT
ATOM      1  N   UNL d   1       1.601  -1.000   0.000  0.00  0.00    -0.233 N 
ATOM      2  C   UNL d   1       2.832  -1.714   0.000  0.00  0.00     0.076 A 
ATOM      3  C   UNL d   1       2.013  -1.714   0.000  0.00  0.00     0.096 A 
ATOM      4  C   UNL d   1       2.013  -0.287   0.000  0.00  0.00     0.091 A 
ATOM      5  C   UNL d   1       3.248  -1.000   0.000  0.00  0.00     0.008 A 
ATOM      6  C   UNL d   1       2.836  -0.290   0.000  0.00  0.00     0.020 A 
ENDROOT
BRANCH   2   7
ATOM      7  C   UNL d   1       3.244  -2.432   0.000  0.00  0.00     0.281 C 
ATOM      8  O   UNL d   1       2.832  -3.144   0.000  0.00  0.00    -0.265 OA
ATOM      9  N   UNL d   1       4.069  -2.436   0.000  0.00  0.00    -0.206 NA
BRANCH   9  10
ATOM     10  C   UNL d   1       4.470  -3.148   0.000  0.00  0.00     0.102 C 
BRANCH  10  11
ATOM     11  C   UNL d   1       5.295  -3.148   0.000  0.00  0.00     0.021 C 
ATOM     12  C   UNL d   1       5.708  -2.432   0.000  0.00  0.00     0.002 C 
ENDBRANCH  10  11
ENDBRANCH   9  10
ENDBRANCH   2   7
BRANCH   1  13
ATOM     13  S   UNL d   1       0.777  -1.000   0.000  0.00  0.00     0.252 S 
ATOM     14  O   UNL d   1       0.777  -1.825   0.000  0.00  0.00    -0.204 OA
ATOM     15  O   UNL d   1       0.777  -0.178   0.000  0.00  0.00    -0.204 OA
ATOM     16  C   UNL d   1      -0.048  -1.000   0.000  0.00  0.00     0.164 C 
ENDBRANCH   1  13
TORSDOF 4
