REMARK  0 active torsions:
REMARK  status: ('A' for Active; 'I' for Inactive)
ROOT
ATOM      1  C   UNL d   1       8.131  -2.471   0.000  0.00  0.00     0.311 A 
ATOM      2  N   UNL d   1       7.648  -1.795   0.000  0.00  0.00    -0.202 NA
ATOM      3  S   UNL d   1       7.648  -3.137   0.000  0.00  0.00    -0.024 SA
ATOM      4  C   UNL d   1       6.857  -2.054   0.000  0.00  0.00     0.091 A 
ATOM      5  C   UNL d   1       6.857  -2.880   0.000  0.00  0.00     0.052 A 
ATOM      6  O   UNL d   1       8.962  -2.471   0.000  0.00  0.00    -0.258 OA
ATOM      7  C   UNL d   1       6.143  -1.641   0.000  0.00  0.00     0.020 A 
ATOM      8  C   UNL d   1       6.143  -3.293   0.000  0.00  0.00     0.008 A 
ATOM      9  C   UNL d   1       5.428  -2.880   0.000  0.00  0.00     0.001 A 
ATOM     10  C   UNL d   1       5.428  -2.054   0.000  0.00  0.00     0.002 A 
ENDROOT
TORSDOF 0
