REMARK  6 active torsions:
REMARK  status: ('A' for Active; 'I' for Inactive)
REMARK    1  A    between atoms: C_12  and  N_1 
REMARK    2  A    between atoms: C_9  and  C_23 
REMARK       I    between atoms: N_10  and  C_9 
REMARK    3  A    between atoms: C_13  and  N_10 
REMARK    4  A    between atoms: C_22  and  C_12 
REMARK    5  A    between atoms: O_21  and  C_15 
REMARK    6  A    between atoms: C_23  and  C_22 
ROOT
ATOM      1  C   UNL d   1       6.122  -6.061   0.000  0.00  0.00     0.085 C 
ENDROOT
BRANCH   1   2
ATOM      2  N   UNL d   1       5.394  -6.459   0.000  0.00  0.00    -0.249 N 
ATOM      3  C   UNL d   1       5.394  -7.284   0.000  0.00  0.00     0.208 A 
ATOM      4  N   UNL d   1       4.671  -7.694   0.000  0.00  0.00    -0.218 NA
ATOM      5  S   UNL d   1       6.122  -7.687   0.000  0.00  0.00    -0.038 SA
ATOM      6  C   UNL d   1       3.958  -7.289   0.000  0.00  0.00     0.088 A 
ATOM      7  C   UNL d   1       3.958  -6.459   0.000  0.00  0.00     0.074 A 
ATOM      8  C   UNL d   1       3.244  -7.694   0.000  0.00  0.00     0.019 A 
ATOM      9  C   UNL d   1       4.671  -6.048   0.000  0.00  0.00     0.268 A 
ATOM     10  C   UNL d   1       3.244  -6.048   0.000  0.00  0.00     0.006 A 
ATOM     11  O   UNL d   1       4.671  -5.223   0.000  0.00  0.00    -0.267 OA
ATOM     12  C   UNL d   1       2.529  -6.459   0.000  0.00  0.00     0.000 A 
ATOM     13  C   UNL d   1       2.529  -7.284   0.000  0.00  0.00     0.002 A 
ENDBRANCH   1   2
BRANCH   1  14
ATOM     14  C   UNL d   1       6.135  -5.231   0.000  0.00  0.00     0.024 C 
BRANCH  14  15
ATOM     15  C   UNL d   1       6.862  -4.829   0.000  0.00  0.00     0.064 C 
BRANCH  15  16
ATOM     16  C   UNL d   1       6.875  -3.995   0.000  0.00  0.00     0.279 C 
ATOM     17  N   UNL d   1       7.587  -3.595   0.000  0.00  0.00    -0.208 NA
ATOM     18  O   UNL d   1       6.154  -3.568   0.000  0.00  0.00    -0.265 OA
BRANCH  17  19
ATOM     19  C   UNL d   1       7.600  -2.756   0.000  0.00  0.00     0.085 A 
ATOM     20  C   UNL d   1       8.315  -2.341   0.000  0.00  0.00     0.021 A 
ATOM     21  C   UNL d   1       8.315  -1.516   0.000  0.00  0.00     0.026 A 
ATOM     22  C   UNL d   1       7.596  -1.104   0.000  0.00  0.00     0.094 A 
ATOM     23  C   UNL d   1       6.881  -1.516   0.000  0.00  0.00     0.026 A 
ATOM     24  C   UNL d   1       6.888  -2.352   0.000  0.00  0.00     0.021 A 
BRANCH  22  25
ATOM     25  O   UNL d   1       7.587  -0.279   0.000  0.00  0.00    -0.328 OA
ATOM     26  C   UNL d   1       8.298   0.134   0.000  0.00  0.00     0.181 C 
ENDBRANCH  22  25
ENDBRANCH  17  19
ENDBRANCH  15  16
ENDBRANCH  14  15
ENDBRANCH   1  14
TORSDOF 6
