REMARK  5 active torsions:
REMARK  status: ('A' for Active; 'I' for Inactive)
REMARK    1  A    between atoms: C_5  and  C_1 
REMARK    2  A    between atoms: N_15  and  C_4 
REMARK       I    between atoms: N_9  and  C_5 
REMARK    3  A    between atoms: C_7  and  N_9 
REMARK    4  A    between atoms: C_18  and  N_15 
REMARK    5  A    between atoms: C_16  and  C_18 
ROOT
ATOM      1  C   UNL d   1      -0.287   0.906   0.000  0.00  0.00     0.128 A 
ATOM      2  N   UNL d   1      -1.705   1.727   0.000  0.00  0.00    -0.200 NA
ATOM      3  C   UNL d   1      -0.287   1.727   0.000  0.00  0.00     0.196 A 
ATOM      4  C   UNL d   1      -1.705   0.906   0.000  0.00  0.00     0.196 A 
ATOM      5  S   UNL d   1      -1.007   0.501   0.000  0.00  0.00    -0.041 SA
ATOM      6  N   UNL d   1       0.425   2.138   0.000  0.00  0.00    -0.126 N 
ENDROOT
BRANCH   1   7
ATOM      7  C   UNL d   1       0.433   0.498   0.000  0.00  0.00     0.290 C 
ATOM      8  N   UNL d   1       0.433  -0.338   0.000  0.00  0.00    -0.186 NA
ATOM      9  O   UNL d   1       1.153   0.906   0.000  0.00  0.00    -0.264 OA
BRANCH   8  10
ATOM     10  C   UNL d   1       1.153  -0.754   0.000  0.00  0.00     0.194 A 
ATOM     11  N   UNL d   1       1.370  -1.556   0.000  0.00  0.00    -0.107 NA
ATOM     12  O   UNL d   1       2.160  -1.775   0.000  0.00  0.00    -0.210 OA
ATOM     13  C   UNL d   1       2.760  -1.179   0.000  0.00  0.00     0.128 A 
ATOM     14  C   UNL d   1       2.543  -0.383   0.000  0.00  0.00     0.068 A 
ATOM     15  C   UNL d   1       3.601  -1.179   0.000  0.00  0.00     0.029 C 
ENDBRANCH   8  10
ENDBRANCH   1   7
BRANCH   4  16
ATOM     16  N   UNL d   1      -2.419   0.501   0.000  0.00  0.00    -0.220 NA
BRANCH  16  17
ATOM     17  C   UNL d   1      -2.419  -0.324   0.000  0.00  0.00     0.101 C 
BRANCH  17  18
ATOM     18  C   UNL d   1      -3.128  -0.731   0.000  0.00  0.00     0.021 C 
ATOM     19  C   UNL d   1      -3.128  -1.556   0.000  0.00  0.00     0.002 C 
ENDBRANCH  17  18
ENDBRANCH  16  17
ENDBRANCH   4  16
TORSDOF 5
