REMARK  5 active torsions:
REMARK  status: ('A' for Active; 'I' for Inactive)
REMARK    1  A    between atoms: C_6  and  N_1 
REMARK    2  A    between atoms: C_7  and  C_3 
REMARK    3  A    between atoms: C_10  and  C_7 
REMARK    4  A    between atoms: C_16  and  C_8 
REMARK    5  A    between atoms: C_14  and  C_18 
ROOT
ATOM      1  N   UNL d   1       4.906  -3.400   0.000  0.00  0.00    -0.252 N 
ATOM      2  C   UNL d   1       4.241  -2.920   0.000  0.00  0.00     0.203 A 
ATOM      3  C   UNL d   1       3.833  -4.184   0.000  0.00  0.00     0.091 A 
ATOM      4  C   UNL d   1       4.658  -4.184   0.000  0.00  0.00     0.272 A 
ATOM      5  S   UNL d   1       3.578  -3.400   0.000  0.00  0.00    -0.043 SA
ATOM      6  N   UNL d   1       4.241  -2.090   0.000  0.00  0.00    -0.121 N 
ATOM      7  O   UNL d   1       5.139  -4.849   0.000  0.00  0.00    -0.266 OA
ENDROOT
BRANCH   3   8
ATOM      8  C   UNL d   1       3.345  -4.849   0.000  0.00  0.00     0.036 C 
BRANCH   8   9
ATOM      9  C   UNL d   1       2.518  -4.770   0.000  0.00  0.00     0.101 A 
ATOM     10  O   UNL d   1       2.110  -4.052   0.000  0.00  0.00    -0.307 OA
ATOM     11  C   UNL d   1       1.297  -4.217   0.000  0.00  0.00     0.100 A 
ATOM     12  C   UNL d   1       1.212  -5.044   0.000  0.00  0.00     0.027 A 
ATOM     13  C   UNL d   1       1.969  -5.376   0.000  0.00  0.00     0.027 A 
BRANCH  11  14
ATOM     14  C   UNL d   1       0.692  -3.668   0.000  0.00  0.00     0.023 A 
ATOM     15  C   UNL d   1       0.858  -2.865   0.000  0.00  0.00     0.008 A 
ATOM     16  C   UNL d   1       0.237  -2.314   0.000  0.00  0.00     0.065 A 
ATOM     17  C   UNL d   1      -0.533  -2.564   0.000  0.00  0.00     0.006 A 
ATOM     18  C   UNL d   1      -0.716  -3.365   0.000  0.00  0.00     0.000 A 
ATOM     19  C   UNL d   1      -0.092  -3.914   0.000  0.00  0.00     0.002 A 
BRANCH  16  20
ATOM     20  C   UNL d   1       0.417  -1.490   0.000  0.00  0.00     0.211 C 
ATOM     21  O   UNL d   1      -0.189  -0.937   0.000  0.00  0.00    -0.644 OA
ATOM     22  O   UNL d   1       1.194  -1.240   0.000  0.00  0.00    -0.644 OA
ENDBRANCH  16  20
ENDBRANCH  11  14
ENDBRANCH   8   9
ENDBRANCH   3   8
BRANCH   1  23
ATOM     23  C   UNL d   1       5.692  -3.137   0.000  0.00  0.00     0.071 A 
ATOM     24  C   UNL d   1       6.311  -3.690   0.000  0.00  0.00     0.044 A 
ATOM     25  C   UNL d   1       7.106  -3.433   0.000  0.00  0.00     0.121 A 
ATOM     26  O   UNL d   1       7.819  -3.855   0.000  0.00  0.00    -0.299 OA
ATOM     27  C   UNL d   1       7.270  -2.630   0.000  0.00  0.00     0.119 A 
ATOM     28  C   UNL d   1       8.429  -3.301   0.000  0.00  0.00     0.304 A 
ATOM     29  O   UNL d   1       8.095  -2.538   0.000  0.00  0.00    -0.300 OA
ATOM     30  C   UNL d   1       6.664  -2.077   0.000  0.00  0.00     0.028 A 
ATOM     31  C   UNL d   1       5.870  -2.331   0.000  0.00  0.00     0.020 A 
ENDBRANCH   1  23
TORSDOF 5
