REMARK  8 active torsions:
REMARK  status: ('A' for Active; 'I' for Inactive)
REMARK    1  A    between atoms: C_21  and  N_5 
REMARK    2  A    between atoms: S_10  and  C_6 
REMARK    3  A    between atoms: C_17  and  C_7 
REMARK    4  A    between atoms: C_23  and  S_10 
REMARK    5  A    between atoms: C_13  and  C_23 
REMARK       I    between atoms: N_19  and  C_13 
REMARK    6  A    between atoms: C_28  and  N_19 
REMARK    7  A    between atoms: C_24  and  C_21 
REMARK    8  A    between atoms: C_27  and  C_28 
ROOT
ATOM      1  C   UNL d   1      -2.735   0.040   0.000  0.00  0.00     0.081 A 
ATOM      2  C   UNL d   1      -2.450  -0.707   0.000  0.00  0.00     0.117 A 
ATOM      3  N   UNL d   1      -1.616  -0.886   0.000  0.00  0.00    -0.215 NA
ATOM      4  C   UNL d   1      -2.168   0.677   0.000  0.00  0.00     0.268 A 
ATOM      5  N   UNL d   1      -1.361   0.530   0.000  0.00  0.00    -0.253 N 
ATOM      6  C   UNL d   1      -1.080  -0.295   0.000  0.00  0.00     0.182 A 
ATOM      7  C   UNL d   1      -3.548   0.025   0.000  0.00  0.00     0.013 A 
ATOM      8  S   UNL d   1      -3.100  -1.242   0.000  0.00  0.00    -0.067 SA
ATOM      9  C   UNL d   1      -3.785  -0.768   0.000  0.00  0.00     0.037 A 
ATOM     10  O   UNL d   1      -2.418   1.479   0.000  0.00  0.00    -0.267 OA
ENDROOT
BRANCH   6  11
ATOM     11  S   UNL d   1      -0.262  -0.471   0.000  0.00  0.00    -0.044 SA
BRANCH  11  12
ATOM     12  C   UNL d   1       0.295   0.101   0.000  0.00  0.00     0.101 C 
BRANCH  12  13
ATOM     13  C   UNL d   1       1.065  -0.055   0.000  0.00  0.00     0.286 C 
ATOM     14  N   UNL d   1       1.654   0.499   0.000  0.00  0.00    -0.206 NA
ATOM     15  O   UNL d   1       1.300  -0.828   0.000  0.00  0.00    -0.265 OA
BRANCH  14  16
ATOM     16  C   UNL d   1       1.359   1.282   0.000  0.00  0.00     0.102 C 
BRANCH  16  17
ATOM     17  C   UNL d   1       1.949   1.907   0.000  0.00  0.00     0.021 A 
ATOM     18  C   UNL d   1       2.780   1.739   0.000  0.00  0.00     0.028 A 
ATOM     19  C   UNL d   1       3.312   2.329   0.000  0.00  0.00     0.119 A 
ATOM     20  O   UNL d   1       4.138   2.301   0.000  0.00  0.00    -0.300 OA
ATOM     21  C   UNL d   1       3.075   3.115   0.000  0.00  0.00     0.119 A 
ATOM     22  C   UNL d   1       4.375   3.088   0.000  0.00  0.00     0.304 A 
ATOM     23  O   UNL d   1       3.726   3.587   0.000  0.00  0.00    -0.300 OA
ATOM     24  C   UNL d   1       2.247   3.307   0.000  0.00  0.00     0.026 A 
ATOM     25  C   UNL d   1       1.715   2.700   0.000  0.00  0.00     0.004 A 
ENDBRANCH  16  17
ENDBRANCH  14  16
ENDBRANCH  12  13
ENDBRANCH  11  12
ENDBRANCH   6  11
BRANCH   5  26
ATOM     26  C   UNL d   1      -0.870   1.222   0.000  0.00  0.00     0.085 C 
BRANCH  26  27
ATOM     27  C   UNL d   1      -1.209   2.010   0.000  0.00  0.00     0.019 C 
ATOM     28  C   UNL d   1      -0.691   2.655   0.000  0.00  0.00     0.002 C 
ENDBRANCH  26  27
ENDBRANCH   5  26
BRANCH   7  29
ATOM     29  C   UNL d   1      -4.259   0.380   0.000  0.00  0.00     0.001 A 
ATOM     30  C   UNL d   1      -4.991   0.000   0.000  0.00  0.00     0.000 A 
ATOM     31  C   UNL d   1      -5.702   0.356   0.000  0.00  0.00     0.000 A 
ATOM     32  C   UNL d   1      -5.718   1.184   0.000  0.00  0.00     0.000 A 
ATOM     33  C   UNL d   1      -5.005   1.596   0.000  0.00  0.00     0.000 A 
ATOM     34  C   UNL d   1      -4.281   1.200   0.000  0.00  0.00     0.000 A 
ENDBRANCH   7  29
TORSDOF 8
