REMARK  2 active torsions:
REMARK  status: ('A' for Active; 'I' for Inactive)
REMARK    1  A    between atoms: C_6  and  C_1 
REMARK    2  A    between atoms: C_8  and  C_5 
ROOT
ATOM      1  C   UNL d   1       6.385  -4.660   0.000  0.00  0.00     0.169 A 
ATOM      2  C   UNL d   1       6.119  -3.873   0.000  0.00  0.00     0.048 A 
ATOM      3  N   UNL d   1       5.055  -4.670   0.000  0.00  0.00    -0.148 NA
ATOM      4  N   UNL d   1       5.722  -5.156   0.000  0.00  0.00    -0.142 NA
ATOM      5  C   UNL d   1       5.310  -3.881   0.000  0.00  0.00     0.105 A 
ENDROOT
BRANCH   1   6
ATOM      6  C   UNL d   1       7.171  -4.909   0.000  0.00  0.00     0.231 C 
ATOM      7  O   UNL d   1       7.783  -4.356   0.000  0.00  0.00    -0.643 OA
ATOM      8  O   UNL d   1       7.345  -5.718   0.000  0.00  0.00    -0.643 OA
ENDBRANCH   1   6
BRANCH   5   9
ATOM      9  C   UNL d   1       4.822  -3.213   0.000  0.00  0.00     0.019 C 
ATOM     10  C   UNL d   1       4.009  -3.298   0.000  0.00  0.00     0.002 C 
ATOM     11  C   UNL d   1       5.158  -2.463   0.000  0.00  0.00     0.002 C 
ENDBRANCH   5   9
TORSDOF 2
