REMARK  5 active torsions:
REMARK  status: ('A' for Active; 'I' for Inactive)
REMARK    1  A    between atoms: C_7  and  C_1 
REMARK    2  A    between atoms: N_8  and  C_7 
REMARK    3  A    between atoms: C_9  and  N_8 
REMARK    4  A    between atoms: O_17  and  C_13 
REMARK    5  A    between atoms: O_20  and  C_15 
ROOT
ATOM      1  C   UNL d   1      -2.645  -0.664   0.000  0.00  0.00     0.145 A 
ATOM      2  C   UNL d   1      -3.359  -0.250   0.000  0.00  0.00     0.305 A 
ATOM      3  C   UNL d   1      -2.645  -1.487   0.000  0.00  0.00     0.305 A 
ATOM      4  O   UNL d   1      -3.359  -1.898   0.000  0.00  0.00    -0.269 OA
ATOM      5  O   UNL d   1      -4.064  -0.664   0.000  0.00  0.00    -0.269 OA
ATOM      6  C   UNL d   1      -4.064  -1.487   0.000  0.00  0.00     0.242 A 
ATOM      7  O   UNL d   1      -1.924  -1.909   0.000  0.00  0.00    -0.259 OA
ATOM      8  O   UNL d   1      -3.359   0.573   0.000  0.00  0.00    -0.259 OA
ATOM      9  C   UNL d   1      -3.654  -2.201   0.000  0.00  0.00     0.035 A 
ATOM     10  C   UNL d   1      -4.899  -1.487   0.000  0.00  0.00     0.035 A 
ATOM     11  C   UNL d   1      -5.312  -2.201   0.000  0.00  0.00     0.001 A 
ATOM     12  C   UNL d   1      -4.064  -2.915   0.000  0.00  0.00     0.001 A 
ATOM     13  C   UNL d   1      -4.899  -2.915   0.000  0.00  0.00    -0.000 A 
ENDROOT
BRANCH   1  14
ATOM     14  C   UNL d   1      -1.924  -0.250   0.000  0.00  0.00     0.110 C 
BRANCH  14  15
ATOM     15  N   UNL d   1      -1.210  -0.664   0.000  0.00  0.00    -0.242 NA
BRANCH  15  16
ATOM     16  C   UNL d   1      -0.497  -0.250   0.000  0.00  0.00     0.106 A 
ATOM     17  C   UNL d   1      -0.497   0.573   0.000  0.00  0.00     0.045 A 
ATOM     18  C   UNL d   1       0.209   0.986   0.000  0.00  0.00     0.096 A 
ATOM     19  C   UNL d   1       0.934   0.573   0.000  0.00  0.00     0.026 A 
ATOM     20  C   UNL d   1       0.934  -0.250   0.000  0.00  0.00     0.028 A 
ATOM     21  C   UNL d   1       0.217  -0.664   0.000  0.00  0.00     0.112 A 
BRANCH  18  22
ATOM     22  O   UNL d   1       0.205   1.807   0.000  0.00  0.00    -0.328 OA
ATOM     23  C   UNL d   1      -0.509   2.220   0.000  0.00  0.00     0.181 C 
ENDBRANCH  18  22
BRANCH  21  24
ATOM     24  O   UNL d   1       0.217  -1.487   0.000  0.00  0.00    -0.327 OA
ATOM     25  C   UNL d   1      -0.492  -1.898   0.000  0.00  0.00     0.181 C 
ENDBRANCH  21  24
ENDBRANCH  15  16
ENDBRANCH  14  15
ENDBRANCH   1  14
TORSDOF 5
