REMARK  3 active torsions:
REMARK  status: ('A' for Active; 'I' for Inactive)
REMARK    1  A    between atoms: C_10  and  C_3 
REMARK    2  A    between atoms: C_13  and  C_7 
REMARK    3  A    between atoms: C_12  and  C_13 
ROOT
ATOM      1  C   UNL d   1       1.343  -0.492   0.000  0.00  0.00     0.171 A 
ATOM      2  N   UNL d   1       1.343  -1.316   0.000  0.00  0.00    -0.212 N 
ATOM      3  C   UNL d   1       0.553  -0.238   0.000  0.00  0.00     0.121 A 
ATOM      4  N   UNL d   1       2.052  -0.078   0.000  0.00  0.00    -0.227 NA
ATOM      5  N   UNL d   1       0.553  -1.577   0.000  0.00  0.00    -0.162 NA
ATOM      6  C   UNL d   1       2.052  -1.730   0.000  0.00  0.00     0.086 A 
ATOM      7  C   UNL d   1       2.765  -1.316   0.000  0.00  0.00     0.035 A 
ATOM      8  C   UNL d   1       2.765  -0.492   0.000  0.00  0.00     0.085 A 
ATOM      9  C   UNL d   1       0.066  -0.904   0.000  0.00  0.00     0.130 A 
ATOM     10  C   UNL d   1       2.052  -2.556   0.000  0.00  0.00     0.021 C 
ATOM     11  C   UNL d   1       3.481  -0.078   0.000  0.00  0.00     0.021 C 
ENDROOT
BRANCH   3  12
ATOM     12  C   UNL d   1       0.300   0.547   0.000  0.00  0.00     0.215 C 
ATOM     13  O   UNL d   1      -0.510   0.723   0.000  0.00  0.00    -0.644 OA
ATOM     14  O   UNL d   1       0.851   1.165   0.000  0.00  0.00    -0.644 OA
ENDBRANCH   3  12
BRANCH   7  15
ATOM     15  C   UNL d   1       3.478  -1.730   0.000  0.00  0.00     0.003 C 
BRANCH  15  16
ATOM     16  C   UNL d   1       4.191  -1.316   0.000  0.00  0.00     0.000 C 
ATOM     17  C   UNL d   1       4.906  -1.730   0.000  0.00  0.00     0.000 C 
ENDBRANCH  15  16
ENDBRANCH   7  15
TORSDOF 3
