REMARK  6 active torsions:
REMARK  status: ('A' for Active; 'I' for Inactive)
REMARK    1  A    between atoms: N_7  and  C_1 
REMARK    2  A    between atoms: C_10  and  C_3 
REMARK    3  A    between atoms: C_17  and  C_5 
REMARK    4  A    between atoms: C_12  and  N_7 
REMARK    5  A    between atoms: C_8  and  C_9 
REMARK    6  A    between atoms: C_13  and  C_17 
ROOT
ATOM      1  C   UNL d   1       5.449  -1.157   0.000  0.00  0.00     0.165 A 
ATOM      2  N   UNL d   1       4.726  -1.570   0.000  0.00  0.00    -0.208 NA
ATOM      3  C   UNL d   1       4.008  -1.157   0.000  0.00  0.00     0.164 A 
ATOM      4  N   UNL d   1       4.008  -0.330   0.000  0.00  0.00    -0.227 NA
ATOM      5  C   UNL d   1       5.441  -0.330   0.000  0.00  0.00     0.054 A 
ATOM      6  C   UNL d   1       4.726   0.071   0.000  0.00  0.00     0.086 A 
ATOM      7  C   UNL d   1       4.726   0.902   0.000  0.00  0.00     0.021 C 
ENDROOT
BRANCH   1   8
ATOM      8  N   UNL d   1       6.163  -1.570   0.000  0.00  0.00    -0.227 NA
BRANCH   8   9
ATOM      9  C   UNL d   1       6.163  -2.405   0.000  0.00  0.00     0.083 A 
ATOM     10  C   UNL d   1       6.868  -2.806   0.000  0.00  0.00     0.019 A 
ATOM     11  C   UNL d   1       6.868  -3.637   0.000  0.00  0.00     0.008 A 
ATOM     12  C   UNL d   1       6.150  -4.046   0.000  0.00  0.00     0.065 A 
ATOM     13  C   UNL d   1       5.441  -3.637   0.000  0.00  0.00     0.008 A 
ATOM     14  C   UNL d   1       5.441  -2.810   0.000  0.00  0.00     0.019 A 
BRANCH  12  15
ATOM     15  C   UNL d   1       6.150  -4.877   0.000  0.00  0.00     0.211 C 
ATOM     16  O   UNL d   1       6.864  -5.290   0.000  0.00  0.00    -0.644 OA
ATOM     17  O   UNL d   1       5.441  -5.290   0.000  0.00  0.00    -0.644 OA
ENDBRANCH  12  15
ENDBRANCH   8   9
ENDBRANCH   1   8
BRANCH   5  18
ATOM     18  C   UNL d   1       6.150   0.084   0.000  0.00  0.00     0.005 C 
BRANCH  18  19
ATOM     19  C   UNL d   1       6.868  -0.305   0.000  0.00  0.00     0.000 C 
ATOM     20  C   UNL d   1       7.582   0.100   0.000  0.00  0.00     0.000 C 
ENDBRANCH  18  19
ENDBRANCH   5  18
BRANCH   3  21
ATOM     21  C   UNL d   1       3.294  -1.570   0.000  0.00  0.00     0.036 A 
ATOM     22  C   UNL d   1       3.294  -2.392   0.000  0.00  0.00     0.003 A 
ATOM     23  C   UNL d   1       2.584  -2.810   0.000  0.00  0.00     0.000 A 
ATOM     24  C   UNL d   1       1.858  -2.392   0.000  0.00  0.00     0.000 A 
ATOM     25  C   UNL d   1       1.858  -1.570   0.000  0.00  0.00     0.000 A 
ATOM     26  C   UNL d   1       2.584  -1.157   0.000  0.00  0.00     0.003 A 
ENDBRANCH   3  21
TORSDOF 6
