REMARK  1 active torsions:
REMARK  status: ('A' for Active; 'I' for Inactive)
REMARK    1  A    between atoms: C_5  and  C_1 
ROOT
ATOM      1  C   UNL d   1       6.367  -4.647   0.000  0.00  0.00     0.169 A 
ATOM      2  N   UNL d   1       5.706  -5.142   0.000  0.00  0.00    -0.142 NA
ATOM      3  C   UNL d   1       6.102  -3.863   0.000  0.00  0.00     0.048 A 
ATOM      4  N   UNL d   1       5.041  -4.657   0.000  0.00  0.00    -0.148 NA
ATOM      5  C   UNL d   1       5.296  -3.871   0.000  0.00  0.00     0.105 A 
ATOM      6  C   UNL d   1       4.809  -3.204   0.000  0.00  0.00     0.023 C 
ENDROOT
BRANCH   1   7
ATOM      7  C   UNL d   1       7.151  -4.896   0.000  0.00  0.00     0.231 C 
ATOM      8  O   UNL d   1       7.762  -4.344   0.000  0.00  0.00    -0.643 OA
ATOM      9  O   UNL d   1       7.325  -5.702   0.000  0.00  0.00    -0.643 OA
ENDBRANCH   1   7
TORSDOF 1
