REMARK  0 active torsions:
REMARK  status: ('A' for Active; 'I' for Inactive)
ROOT
ATOM      1  N   UNL d   1       0.749  -1.225   0.000  0.00  0.00    -0.183 NA
ATOM      2  C   UNL d   1       1.466  -0.814   0.000  0.00  0.00     0.339 A 
ATOM      3  N   UNL d   1       0.749   0.417   0.000  0.00  0.00    -0.201 NA
ATOM      4  C   UNL d   1       1.466   0.000   0.000  0.00  0.00     0.337 A 
ATOM      5  C   UNL d   1       0.035  -0.814   0.000  0.00  0.00     0.184 A 
ATOM      6  C   UNL d   1       0.035   0.000   0.000  0.00  0.00     0.121 A 
ATOM      7  N   UNL d   1      -0.681  -1.225   0.000  0.00  0.00    -0.223 NA
ATOM      8  C   UNL d   1      -0.681   0.417   0.000  0.00  0.00     0.031 A 
ATOM      9  O   UNL d   1       2.188  -1.225   0.000  0.00  0.00    -0.260 OA
ATOM     10  O   UNL d   1       2.188   0.417   0.000  0.00  0.00    -0.260 OA
ATOM     11  C   UNL d   1      -1.397   0.000   0.000  0.00  0.00     0.055 A 
ATOM     12  C   UNL d   1      -1.397  -0.814   0.000  0.00  0.00     0.107 A 
ATOM     13 BR   UNL d   1      -2.115   0.405   0.000  0.00  0.00    -0.048 Br
ENDROOT
TORSDOF 0
