REMARK  4 active torsions:
REMARK  status: ('A' for Active; 'I' for Inactive)
REMARK    1  A    between atoms: C_9  and  C_1 
REMARK    2  A    between atoms: C_8  and  C_6 
REMARK    3  A    between atoms: C_14  and  C_9 
REMARK    4  A    between atoms: C_15  and  C_10 
ROOT
ATOM      1  C   UNL d   1       1.173  -0.207   0.000  0.00  0.00     0.089 A 
ATOM      2  C   UNL d   1      -0.094   0.209   0.000  0.00  0.00     0.048 A 
ATOM      3  C   UNL d   1       0.695   0.453   0.000  0.00  0.00     0.114 A 
ATOM      4  C   UNL d   1      -0.094  -0.617   0.000  0.00  0.00     0.112 A 
ATOM      5  S   UNL d   1       0.695  -0.872   0.000  0.00  0.00    -0.063 SA
ATOM      6  C   UNL d   1      -0.810   0.624   0.000  0.00  0.00     0.076 A 
ATOM      7  N   UNL d   1      -0.810  -1.018   0.000  0.00  0.00    -0.239 NA
ATOM      8  C   UNL d   1      -1.519  -0.617   0.000  0.00  0.00     0.082 A 
ATOM      9  C   UNL d   1      -1.519   0.209   0.000  0.00  0.00     0.023 A 
ATOM     10  N   UNL d   1       0.950   1.250   0.000  0.00  0.00    -0.147 N 
ENDROOT
BRANCH   1  11
ATOM     11  C   UNL d   1       1.995  -0.207   0.000  0.00  0.00     0.203 C 
ATOM     12  O   UNL d   1       2.400   0.487   0.000  0.00  0.00    -0.286 OA
BRANCH  11  13
ATOM     13  C   UNL d   1       2.400  -0.930   0.000  0.00  0.00     0.040 A 
ATOM     14  C   UNL d   1       1.995  -1.646   0.000  0.00  0.00     0.003 A 
ATOM     15  C   UNL d   1       2.400  -2.351   0.000  0.00  0.00     0.000 A 
ATOM     16  C   UNL d   1       3.239  -2.351   0.000  0.00  0.00     0.000 A 
ATOM     17  C   UNL d   1       3.644  -1.646   0.000  0.00  0.00     0.000 A 
ATOM     18  C   UNL d   1       3.239  -0.930   0.000  0.00  0.00     0.003 A 
ENDBRANCH  11  13
ENDBRANCH   1  11
BRANCH   6  19
ATOM     19  C   UNL d   1      -0.810   1.448   0.000  0.00  0.00     0.419 C 
ATOM     20  F   UNL d   1      -0.810   2.261   0.000  0.00  0.00    -0.166 F 
ATOM     21  F   UNL d   1       0.020   1.448   0.000  0.00  0.00    -0.166 F 
ATOM     22  F   UNL d   1      -1.632   1.448   0.000  0.00  0.00    -0.166 F 
ENDBRANCH   6  19
BRANCH   8  23
ATOM     23  C   UNL d   1      -2.236  -1.018   0.000  0.00  0.00     0.018 A 
ATOM     24  C   UNL d   1      -2.236  -1.847   0.000  0.00  0.00     0.002 A 
ATOM     25  C   UNL d   1      -2.946  -2.273   0.000  0.00  0.00     0.000 A 
ATOM     26  C   UNL d   1      -3.669  -1.847   0.000  0.00  0.00     0.000 A 
ATOM     27  C   UNL d   1      -3.669  -1.018   0.000  0.00  0.00     0.000 A 
ATOM     28  C   UNL d   1      -2.946  -0.617   0.000  0.00  0.00     0.002 A 
ENDBRANCH   8  23
TORSDOF 4
