REMARK  7 active torsions:
REMARK  status: ('A' for Active; 'I' for Inactive)
REMARK    1  A    between atoms: C_4  and  S_1 
REMARK    2  A    between atoms: N_10  and  S_1 
REMARK    3  A    between atoms: C_3  and  C_2 
REMARK       I    between atoms: N_6  and  C_3 
REMARK    4  A    between atoms: C_16  and  N_6 
REMARK    5  A    between atoms: C_19  and  N_10 
REMARK    6  A    between atoms: C_12  and  C_24 
REMARK    7  A    between atoms: C_24  and  C_19 
ROOT
ATOM      1  C   UNL d   1      -1.744   4.222   0.000  0.00  0.00     0.086 A 
ATOM      2  C   UNL d   1      -3.171   4.222   0.000  0.00  0.00     0.106 A 
ATOM      3  C   UNL d   1      -2.457   3.811   0.000  0.00  0.00     0.020 A 
ATOM      4  C   UNL d   1      -1.744   5.050   0.000  0.00  0.00     0.145 A 
ATOM      5  C   UNL d   1      -3.171   5.045   0.000  0.00  0.00     0.015 A 
ATOM      6  C   UNL d   1      -2.456   5.459   0.000  0.00  0.00     0.030 A 
ATOM      7  F   UNL d   1      -1.038   5.464   0.000  0.00  0.00    -0.204 F 
ENDROOT
BRANCH   2   8
ATOM      8  S   UNL d   1      -3.888   3.812   0.000  0.00  0.00     0.285 S 
ATOM      9  O   UNL d   1      -3.477   3.100   0.000  0.00  0.00    -0.198 OA
ATOM     10  O   UNL d   1      -4.302   4.523   0.000  0.00  0.00    -0.198 OA
BRANCH   8  11
ATOM     11  N   UNL d   1      -4.603   3.408   0.000  0.00  0.00    -0.157 NA
BRANCH  11  12
ATOM     12  C   UNL d   1      -4.603   2.569   0.000  0.00  0.00     0.112 C 
BRANCH  12  13
ATOM     13  C   UNL d   1      -5.304   2.152   0.000  0.00  0.00     0.021 C 
BRANCH  13  14
ATOM     14  C   UNL d   1      -5.304   1.339   0.000  0.00  0.00     0.002 A 
ATOM     15  C   UNL d   1      -6.022   0.913   0.000  0.00  0.00     0.000 A 
ATOM     16  C   UNL d   1      -6.022   0.085   0.000  0.00  0.00     0.000 A 
ATOM     17  C   UNL d   1      -5.304  -0.339   0.000  0.00  0.00     0.000 A 
ATOM     18  C   UNL d   1      -4.588   0.089   0.000  0.00  0.00     0.000 A 
ATOM     19  C   UNL d   1      -4.588   0.917   0.000  0.00  0.00     0.000 A 
ENDBRANCH  13  14
ENDBRANCH  12  13
ENDBRANCH  11  12
ENDBRANCH   8  11
ENDBRANCH   2   8
BRANCH   1  20
ATOM     20  C   UNL d   1      -1.026   3.825   0.000  0.00  0.00     0.281 C 
ATOM     21  N   UNL d   1      -1.026   2.994   0.000  0.00  0.00    -0.208 NA
ATOM     22  O   UNL d   1      -0.315   4.234   0.000  0.00  0.00    -0.265 OA
BRANCH  21  23
ATOM     23  C   UNL d   1      -0.310   2.594   0.000  0.00  0.00     0.085 A 
ATOM     24  C   UNL d   1       0.392   3.008   0.000  0.00  0.00     0.019 A 
ATOM     25  C   UNL d   1       1.107   2.594   0.000  0.00  0.00     0.002 A 
ATOM     26  C   UNL d   1       1.121   1.769   0.000  0.00  0.00     0.000 A 
ATOM     27  C   UNL d   1       0.405   1.358   0.000  0.00  0.00     0.002 A 
ATOM     28  C   UNL d   1       1.832   1.358   0.000  0.00  0.00     0.000 C 
ATOM     29  C   UNL d   1      -0.310   1.766   0.000  0.00  0.00     0.019 A 
ENDBRANCH  21  23
ENDBRANCH   1  20
TORSDOF 7
