REMARK  4 active torsions:
REMARK  status: ('A' for Active; 'I' for Inactive)
REMARK    1  A    between atoms: C_7  and  C_3 
REMARK    2  A    between atoms: S_6  and  C_4 
REMARK    3  A    between atoms: C_9  and  S_6 
REMARK    4  A    between atoms: C_10  and  C_9 
ROOT
ATOM      1  O   UNL d   1       5.785  -3.828   0.000  0.00  0.00    -0.263 OA
ATOM      2  N   UNL d   1       5.255  -2.584   0.000  0.00  0.00    -0.120 NA
ATOM      3  C   UNL d   1       5.070  -3.404   0.000  0.00  0.00     0.205 A 
ATOM      4  C   UNL d   1       6.412  -3.281   0.000  0.00  0.00     0.236 A 
ATOM      5  N   UNL d   1       6.080  -2.525   0.000  0.00  0.00    -0.114 NA
ENDROOT
BRANCH   4   6
ATOM      6  S   UNL d   1       7.212  -3.463   0.000  0.00  0.00    -0.041 SA
BRANCH   6   7
ATOM      7  C   UNL d   1       7.469  -4.260   0.000  0.00  0.00     0.039 C 
BRANCH   7   8
ATOM      8  C   UNL d   1       8.255  -4.435   0.000  0.00  0.00     0.007 A 
ATOM      9  C   UNL d   1       8.510  -5.222   0.000  0.00  0.00     0.001 A 
ATOM     10  C   UNL d   1       9.312  -5.415   0.000  0.00  0.00     0.000 A 
ATOM     11  C   UNL d   1       9.873  -4.808   0.000  0.00  0.00     0.000 A 
ATOM     12  C   UNL d   1       9.613  -4.006   0.000  0.00  0.00     0.000 A 
ATOM     13  C   UNL d   1       8.819  -3.828   0.000  0.00  0.00     0.001 A 
ENDBRANCH   7   8
ENDBRANCH   6   7
ENDBRANCH   4   6
BRANCH   3  14
ATOM     14  C   UNL d   1       4.299  -3.682   0.000  0.00  0.00     0.046 A 
ATOM     15  C   UNL d   1       4.160  -4.499   0.000  0.00  0.00     0.024 A 
ATOM     16  C   UNL d   1       3.389  -4.782   0.000  0.00  0.00     0.099 A 
ATOM     17  N   UNL d   1       2.748  -4.245   0.000  0.00  0.00    -0.242 NA
ATOM     18  C   UNL d   1       2.910  -3.458   0.000  0.00  0.00     0.099 A 
ATOM     19  C   UNL d   1       3.679  -3.162   0.000  0.00  0.00     0.024 A 
ENDBRANCH   3  14
TORSDOF 4
