REMARK  7 active torsions:
REMARK  status: ('A' for Active; 'I' for Inactive)
REMARK    1  A    between atoms: C_2  and  S_1 
REMARK    2  A    between atoms: N_5  and  S_1 
REMARK    3  A    between atoms: C_3  and  C_7 
REMARK       I    between atoms: N_8  and  C_3 
REMARK    4  A    between atoms: C_16  and  N_5 
REMARK    5  A    between atoms: C_21  and  N_8 
REMARK    6  A    between atoms: C_15  and  C_16 
REMARK    7  A    between atoms: C_30  and  C_23 
ROOT
ATOM      1  C   UNL d   1      -6.282   3.531   0.000  0.00  0.00     0.133 A 
ATOM      2  C   UNL d   1      -6.983   3.120   0.000  0.00  0.00     0.020 A 
ATOM      3  C   UNL d   1      -7.699   3.531   0.000  0.00  0.00     0.059 A 
ATOM      4  C   UNL d   1      -6.282   4.356   0.000  0.00  0.00     0.152 A 
ATOM      5  C   UNL d   1      -7.699   4.356   0.000  0.00  0.00     0.007 A 
ATOM      6  C   UNL d   1      -6.983   4.764   0.000  0.00  0.00     0.030 A 
ATOM      7  F   UNL d   1      -5.550   4.777   0.000  0.00  0.00    -0.203 F 
ENDROOT
BRANCH   1   8
ATOM      8  S   UNL d   1      -5.550   3.100   0.000  0.00  0.00     0.288 S 
ATOM      9  O   UNL d   1      -5.973   2.393   0.000  0.00  0.00    -0.198 OA
ATOM     10  O   UNL d   1      -5.141   3.832   0.000  0.00  0.00    -0.198 OA
BRANCH   8  11
ATOM     11  N   UNL d   1      -4.841   2.707   0.000  0.00  0.00    -0.155 NA
BRANCH  11  12
ATOM     12  C   UNL d   1      -4.125   3.120   0.000  0.00  0.00     0.139 C 
BRANCH  12  13
ATOM     13  C   UNL d   1      -3.410   2.691   0.000  0.00  0.00     0.145 A 
ATOM     14  O   UNL d   1      -3.410   1.870   0.000  0.00  0.00    -0.301 OA
ATOM     15  C   UNL d   1      -2.694   1.456   0.000  0.00  0.00     0.123 A 
ATOM     16  C   UNL d   1      -2.694   0.629   0.000  0.00  0.00     0.027 A 
ATOM     17  C   UNL d   1      -1.980   1.870   0.000  0.00  0.00     0.123 A 
ATOM     18  C   UNL d   1      -1.980   0.216   0.000  0.00  0.00     0.002 A 
ATOM     19  C   UNL d   1      -1.264   0.629   0.000  0.00  0.00     0.002 A 
ATOM     20  C   UNL d   1      -1.264   1.456   0.000  0.00  0.00     0.027 A 
ATOM     21  O   UNL d   1      -1.980   2.691   0.000  0.00  0.00    -0.301 OA
ATOM     22  C   UNL d   1      -2.694   3.100   0.000  0.00  0.00     0.149 A 
ENDBRANCH  12  13
ENDBRANCH  11  12
ENDBRANCH   8  11
ENDBRANCH   1   8
BRANCH   3  23
ATOM     23  C   UNL d   1      -8.424   3.120   0.000  0.00  0.00     0.279 C 
ATOM     24  N   UNL d   1      -9.140   3.531   0.000  0.00  0.00    -0.208 NA
ATOM     25  O   UNL d   1      -8.424   2.301   0.000  0.00  0.00    -0.265 OA
BRANCH  24  26
ATOM     26  C   UNL d   1      -9.140   4.356   0.000  0.00  0.00     0.085 A 
ATOM     27  C   UNL d   1      -8.424   4.756   0.000  0.00  0.00     0.019 A 
ATOM     28  C   UNL d   1      -8.424   5.588   0.000  0.00  0.00     0.002 A 
ATOM     29  C   UNL d   1      -9.140   6.002   0.000  0.00  0.00     0.000 A 
ATOM     30  C   UNL d   1      -9.846   5.588   0.000  0.00  0.00     0.002 A 
ATOM     31  C   UNL d   1      -9.846   4.756   0.000  0.00  0.00     0.019 A 
BRANCH  29  32
ATOM     32  C   UNL d   1      -9.145   6.821   0.000  0.00  0.00     0.000 C 
ATOM     33  C   UNL d   1      -9.862   7.229   0.000  0.00  0.00     0.000 C 
ENDBRANCH  29  32
ENDBRANCH  24  26
ENDBRANCH   3  23
TORSDOF 7
