REMARK  7 active torsions:
REMARK  status: ('A' for Active; 'I' for Inactive)
REMARK    1  A    between atoms: C_3  and  C_1 
REMARK    2  A    between atoms: C_6  and  C_1 
REMARK    3  A    between atoms: C_2  and  C_3 
REMARK       I    between atoms: N_4  and  C_2 
REMARK    4  A    between atoms: C_12  and  N_4 
REMARK    5  A    between atoms: N_7  and  C_5 
REMARK    6  A    between atoms: C_16  and  N_7 
REMARK    7  A    between atoms: C_17  and  N_7 
ROOT
ATOM      1  C   UNL d   1       0.757   0.353   0.000  0.00  0.00     0.279 C 
ATOM      2  N   UNL d   1       0.357   1.071   0.000  0.00  0.00    -0.208 NA
ATOM      3  O   UNL d   1       1.586   0.353   0.000  0.00  0.00    -0.265 OA
ENDROOT
BRANCH   2   4
ATOM      4  C   UNL d   1      -0.463   1.071   0.000  0.00  0.00     0.085 A 
ATOM      5  C   UNL d   1      -0.872   0.353   0.000  0.00  0.00     0.021 A 
ATOM      6  C   UNL d   1      -1.702   0.353   0.000  0.00  0.00     0.019 A 
ATOM      7  C   UNL d   1      -2.118   1.057   0.000  0.00  0.00     0.064 A 
ATOM      8  C   UNL d   1      -1.702   1.781   0.000  0.00  0.00     0.019 A 
ATOM      9  C   UNL d   1      -0.872   1.781   0.000  0.00  0.00     0.021 A 
BRANCH   7  10
ATOM     10  N   UNL d   1      -2.934   1.057   0.000  0.00  0.00    -0.304 N 
BRANCH  10  11
ATOM     11  C   UNL d   1      -3.347   1.781   0.000  0.00  0.00     0.080 C 
ATOM     12  C   UNL d   1      -4.179   1.781   0.000  0.00  0.00     0.021 C 
ENDBRANCH  10  11
BRANCH  10  13
ATOM     13  C   UNL d   1      -3.347   0.353   0.000  0.00  0.00     0.080 C 
ATOM     14  C   UNL d   1      -2.934  -0.357   0.000  0.00  0.00     0.021 C 
ENDBRANCH  10  13
ENDBRANCH   7  10
ENDBRANCH   2   4
BRANCH   1  15
ATOM     15  C   UNL d   1       0.357  -0.360   0.000  0.00  0.00     0.063 C 
BRANCH  15  16
ATOM     16  C   UNL d   1       0.776  -1.071   0.000  0.00  0.00     0.006 C 
BRANCH  16  17
ATOM     17  C   UNL d   1       1.599  -1.071   0.000  0.00  0.00     0.011 A 
ATOM     18  C   UNL d   1       2.022  -1.768   0.000  0.00  0.00     0.058 A 
ATOM     19 CL   UNL d   1       1.625  -2.471   0.000  0.00  0.00    -0.082 Cl
ATOM     20  C   UNL d   1       2.855  -1.768   0.000  0.00  0.00     0.011 A 
ATOM     21  C   UNL d   1       3.264  -1.071   0.000  0.00  0.00     0.001 A 
ATOM     22  C   UNL d   1       2.838  -0.357   0.000  0.00  0.00     0.000 A 
ATOM     23  C   UNL d   1       2.022  -0.357   0.000  0.00  0.00     0.001 A 
ENDBRANCH  16  17
ENDBRANCH  15  16
ENDBRANCH   1  15
TORSDOF 7
