REMARK  7 active torsions:
REMARK  status: ('A' for Active; 'I' for Inactive)
REMARK    1  A    between atoms: C_2  and  S_1 
REMARK    2  A    between atoms: N_3  and  S_1 
REMARK    3  A    between atoms: C_5  and  C_7 
REMARK       I    between atoms: N_9  and  C_5 
REMARK    4  A    between atoms: C_8  and  N_6 
REMARK    5  A    between atoms: C_21  and  N_9 
REMARK    6  A    between atoms: O_28  and  C_23 
REMARK    7  A    between atoms: C_31  and  O_28 
ROOT
ATOM      1  C   UNL d   1       8.248  -4.365   0.000  0.00  0.00     0.132 A 
ATOM      2  C   UNL d   1       7.541  -3.951   0.000  0.00  0.00     0.020 A 
ATOM      3  C   UNL d   1       6.827  -4.365   0.000  0.00  0.00     0.059 A 
ATOM      4  C   UNL d   1       8.248  -5.196   0.000  0.00  0.00     0.152 A 
ATOM      5  C   UNL d   1       6.827  -5.196   0.000  0.00  0.00     0.007 A 
ATOM      6  C   UNL d   1       7.541  -5.610   0.000  0.00  0.00     0.030 A 
ATOM      7  F   UNL d   1       8.961  -5.610   0.000  0.00  0.00    -0.203 F 
ENDROOT
BRANCH   1   8
ATOM      8  S   UNL d   1       8.961  -3.945   0.000  0.00  0.00     0.274 S 
ATOM      9  O   UNL d   1       8.548  -3.231   0.000  0.00  0.00    -0.200 OA
ATOM     10  O   UNL d   1       9.375  -4.658   0.000  0.00  0.00    -0.200 OA
BRANCH   8  11
ATOM     11  N   UNL d   1       9.675  -3.531   0.000  0.00  0.00    -0.226 N 
ATOM     12  C   UNL d   1       9.672  -2.710   0.000  0.00  0.00     0.111 A 
ATOM     13  C   UNL d   1      10.389  -2.300   0.000  0.00  0.00     0.101 A 
ATOM     14  N   UNL d   1      11.103  -2.714   0.000  0.00  0.00    -0.286 N 
ATOM     15  C   UNL d   1      11.092  -3.531   0.000  0.00  0.00     0.101 A 
ATOM     16  C   UNL d   1      10.389  -3.945   0.000  0.00  0.00     0.111 A 
BRANCH  14  17
ATOM     17  C   UNL d   1      11.813  -2.300   0.000  0.00  0.00     0.148 A 
ATOM     18  N   UNL d   1      11.813  -1.479   0.000  0.00  0.00    -0.227 NA
ATOM     19  C   UNL d   1      12.527  -1.065   0.000  0.00  0.00     0.101 A 
ATOM     20  C   UNL d   1      13.240  -1.483   0.000  0.00  0.00     0.021 A 
ATOM     21  C   UNL d   1      13.240  -2.310   0.000  0.00  0.00     0.005 A 
ATOM     22  C   UNL d   1      12.527  -2.714   0.000  0.00  0.00     0.037 A 
ENDBRANCH  14  17
ENDBRANCH   8  11
ENDBRANCH   1   8
BRANCH   3  23
ATOM     23  C   UNL d   1       6.106  -3.962   0.000  0.00  0.00     0.279 C 
ATOM     24  N   UNL d   1       6.106  -3.134   0.000  0.00  0.00    -0.208 NA
ATOM     25  O   UNL d   1       5.400  -4.369   0.000  0.00  0.00    -0.265 OA
BRANCH  24  26
ATOM     26  C   UNL d   1       5.389  -2.724   0.000  0.00  0.00     0.085 A 
ATOM     27  C   UNL d   1       4.676  -3.134   0.000  0.00  0.00     0.021 A 
ATOM     28  C   UNL d   1       3.962  -2.724   0.000  0.00  0.00     0.026 A 
ATOM     29  C   UNL d   1       3.951  -1.886   0.000  0.00  0.00     0.100 A 
ATOM     30  C   UNL d   1       4.676  -1.479   0.000  0.00  0.00     0.026 A 
ATOM     31  C   UNL d   1       5.389  -1.886   0.000  0.00  0.00     0.021 A 
BRANCH  29  32
ATOM     32  O   UNL d   1       3.241  -1.483   0.000  0.00  0.00    -0.305 OA
BRANCH  32  33
ATOM     33  C   UNL d   1       2.527  -1.896   0.000  0.00  0.00     0.123 C 
ATOM     34  C   UNL d   1       1.810  -1.483   0.000  0.00  0.00     0.029 C 
ENDBRANCH  32  33
ENDBRANCH  29  32
ENDBRANCH  24  26
ENDBRANCH   3  23
TORSDOF 7
