REMARK  1 active torsions:
REMARK  status: ('A' for Active; 'I' for Inactive)
REMARK    1  A    between atoms: C_7  and  C_1 
ROOT
ATOM      1  C   UNL d   1       2.009  -2.164   0.000  0.00  0.00     0.122 A 
ATOM      2  C   UNL d   1       1.997  -3.001   0.000  0.00  0.00     0.285 A 
ATOM      3  C   UNL d   1       1.294  -1.758   0.000  0.00  0.00     0.012 A 
ATOM      4  N   UNL d   1       1.285  -3.416   0.000  0.00  0.00    -0.208 NA
ATOM      5  C   UNL d   1       0.569  -2.993   0.000  0.00  0.00     0.085 A 
ATOM      6  C   UNL d   1       0.569  -2.164   0.000  0.00  0.00     0.018 A 
ATOM      7  O   UNL d   1       2.712  -3.416   0.000  0.00  0.00    -0.265 OA
ATOM      8  C   UNL d   1      -0.146  -3.403   0.000  0.00  0.00     0.019 A 
ATOM      9  C   UNL d   1      -0.134  -1.746   0.000  0.00  0.00     0.002 A 
ATOM     10  C   UNL d   1      -0.850  -2.160   0.000  0.00  0.00     0.000 A 
ATOM     11  C   UNL d   1      -0.854  -2.980   0.000  0.00  0.00     0.002 A 
ENDROOT
BRANCH   1  12
ATOM     12  C   UNL d   1       2.717  -1.758   0.000  0.00  0.00     0.216 C 
ATOM     13  O   UNL d   1       2.712  -0.921   0.000  0.00  0.00    -0.644 OA
ATOM     14  O   UNL d   1       3.433  -2.164   0.000  0.00  0.00    -0.644 OA
ENDBRANCH   1  12
TORSDOF 1
