REMARK  4 active torsions:
REMARK  status: ('A' for Active; 'I' for Inactive)
REMARK    1  A    between atoms: C_18  and  N_4 
REMARK    2  A    between atoms: C_11  and  C_6 
REMARK       I    between atoms: N_15  and  C_11 
REMARK    3  A    between atoms: C_26  and  N_15 
REMARK    4  A    between atoms: C_17  and  C_26 
ROOT
ATOM      1  C   UNL d   1       6.110  -4.366   0.000  0.00  0.00     0.155 A 
ATOM      2  C   UNL d   1       6.110  -3.542   0.000  0.00  0.00     0.091 A 
ATOM      3  N   UNL d   1       5.388  -4.770   0.000  0.00  0.00    -0.210 NA
ATOM      4  N   UNL d   1       6.814  -4.770   0.000  0.00  0.00    -0.275 N 
ATOM      5  C   UNL d   1       7.527  -4.372   0.000  0.00  0.00     0.175 A 
ATOM      6  C   UNL d   1       7.527  -3.550   0.000  0.00  0.00     0.094 A 
ATOM      7  N   UNL d   1       4.673  -3.530   0.000  0.00  0.00    -0.258 N 
ATOM      8  C   UNL d   1       4.673  -4.366   0.000  0.00  0.00     0.152 A 
ATOM      9  C   UNL d   1       5.388  -3.112   0.000  0.00  0.00     0.269 A 
ATOM     10  C   UNL d   1       6.823  -3.127   0.000  0.00  0.00     0.016 A 
ATOM     11  C   UNL d   1       3.963  -4.770   0.000  0.00  0.00     0.035 A 
ATOM     12  N   UNL d   1       8.249  -4.784   0.000  0.00  0.00    -0.128 N 
ATOM     13  C   UNL d   1       3.963  -3.112   0.000  0.00  0.00     0.084 A 
ATOM     14  O   UNL d   1       5.397  -2.296   0.000  0.00  0.00    -0.266 OA
ATOM     15  C   UNL d   1       3.250  -3.530   0.000  0.00  0.00     0.019 A 
ATOM     16  C   UNL d   1       3.250  -4.366   0.000  0.00  0.00     0.005 A 
ATOM     17  C   UNL d   1       3.963  -5.600   0.000  0.00  0.00     0.003 C 
ENDROOT
BRANCH   6  18
ATOM     18  C   UNL d   1       8.249  -3.138   0.000  0.00  0.00     0.282 C 
ATOM     19  N   UNL d   1       8.257  -2.313   0.000  0.00  0.00    -0.204 NA
ATOM     20  O   UNL d   1       8.962  -3.559   0.000  0.00  0.00    -0.265 OA
BRANCH  19  21
ATOM     21  C   UNL d   1       8.970  -1.907   0.000  0.00  0.00     0.127 C 
BRANCH  21  22
ATOM     22  C   UNL d   1       9.689  -2.322   0.000  0.00  0.00     0.119 A 
ATOM     23  O   UNL d   1      10.445  -1.987   0.000  0.00  0.00    -0.304 OA
ATOM     24  C   UNL d   1      10.994  -2.606   0.000  0.00  0.00     0.123 A 
ATOM     25  C   UNL d   1      10.576  -3.316   0.000  0.00  0.00     0.029 A 
ATOM     26  C   UNL d   1       9.766  -3.138   0.000  0.00  0.00     0.028 A 
ENDBRANCH  21  22
ENDBRANCH  19  21
ENDBRANCH   6  18
BRANCH   4  27
ATOM     27  C   UNL d   1       6.814  -5.600   0.000  0.00  0.00     0.067 A 
ATOM     28  C   UNL d   1       6.141  -6.076   0.000  0.00  0.00     0.018 A 
ATOM     29  C   UNL d   1       6.391  -6.863   0.000  0.00  0.00     0.002 A 
ATOM     30  C   UNL d   1       7.227  -6.874   0.000  0.00  0.00     0.002 A 
ATOM     31  C   UNL d   1       7.476  -6.090   0.000  0.00  0.00     0.018 A 
ENDBRANCH   4  27
TORSDOF 4
