REMARK  0 active torsions:
REMARK  status: ('A' for Active; 'I' for Inactive)
ROOT
ATOM      1  N   UNL d   1       2.794  -4.218   0.000  0.00  0.00    -0.202 NA
ATOM      2  N   UNL d   1       2.799  -2.575   0.000  0.00  0.00    -0.202 NA
ATOM      3  C   UNL d   1       3.512  -2.984   0.000  0.00  0.00     0.337 A 
ATOM      4  C   UNL d   1       3.512  -3.812   0.000  0.00  0.00     0.337 A 
ATOM      5  C   UNL d   1       2.090  -2.984   0.000  0.00  0.00     0.102 A 
ATOM      6  C   UNL d   1       2.090  -3.799   0.000  0.00  0.00     0.102 A 
ATOM      7  C   UNL d   1       1.377  -4.218   0.000  0.00  0.00     0.021 A 
ATOM      8  C   UNL d   1       1.377  -2.562   0.000  0.00  0.00     0.021 A 
ATOM      9  C   UNL d   1       0.661  -2.984   0.000  0.00  0.00     0.002 A 
ATOM     10  C   UNL d   1       0.661  -3.806   0.000  0.00  0.00     0.002 A 
ATOM     11  O   UNL d   1       4.225  -2.575   0.000  0.00  0.00    -0.260 OA
ATOM     12  O   UNL d   1       4.225  -4.225   0.000  0.00  0.00    -0.260 OA
ATOM     13  C   UNL d   1      -0.053  -4.218   0.000  0.00  0.00     0.000 C 
ATOM     14  C   UNL d   1      -0.046  -2.571   0.000  0.00  0.00     0.000 C 
ENDROOT
TORSDOF 0
