REMARK  2 active torsions:
REMARK  status: ('A' for Active; 'I' for Inactive)
REMARK    1  A    between atoms: N_10  and  C_6 
REMARK    2  A    between atoms: C_12  and  N_10 
ROOT
ATOM      1  N   UNL d   1       3.585   0.013   0.000  0.00  0.00    -0.169 N 
ATOM      2  C   UNL d   1       3.579  -0.813   0.000  0.00  0.00     0.201 A 
ATOM      3  C   UNL d   1       2.880   0.423   0.000  0.00  0.00     0.283 A 
ATOM      4  S   UNL d   1       4.360  -1.076   0.000  0.00  0.00    -0.008 SA
ATOM      5  N   UNL d   1       4.377   0.258   0.000  0.00  0.00    -0.134 NA
ATOM      6  C   UNL d   1       4.849  -0.409   0.000  0.00  0.00     0.216 A 
ATOM      7  N   UNL d   1       2.880  -1.228   0.000  0.00  0.00    -0.221 NA
ATOM      8  C   UNL d   1       2.162   0.013   0.000  0.00  0.00     0.076 A 
ATOM      9  C   UNL d   1       2.162  -0.813   0.000  0.00  0.00     0.088 A 
ATOM     10  O   UNL d   1       2.880   1.249   0.000  0.00  0.00    -0.265 OA
ATOM     11  C   UNL d   1       1.444   0.423   0.000  0.00  0.00     0.006 A 
ATOM     12  C   UNL d   1       1.444  -1.228   0.000  0.00  0.00     0.019 A 
ATOM     13  C   UNL d   1       0.724   0.000   0.000  0.00  0.00     0.000 A 
ATOM     14  C   UNL d   1       0.724  -0.813   0.000  0.00  0.00     0.002 A 
ENDROOT
BRANCH   6  15
ATOM     15  N   UNL d   1       5.675  -0.421   0.000  0.00  0.00    -0.220 NA
BRANCH  15  16
ATOM     16  C   UNL d   1       6.092  -1.127   0.000  0.00  0.00     0.084 A 
ATOM     17  C   UNL d   1       6.908  -1.127   0.000  0.00  0.00     0.019 A 
ATOM     18  C   UNL d   1       7.312  -1.842   0.000  0.00  0.00     0.002 A 
ATOM     19  C   UNL d   1       8.132  -1.849   0.000  0.00  0.00     0.000 C 
ATOM     20  C   UNL d   1       6.888  -2.550   0.000  0.00  0.00     0.000 A 
ATOM     21  C   UNL d   1       6.075  -2.550   0.000  0.00  0.00     0.002 A 
ATOM     22  C   UNL d   1       5.669  -1.832   0.000  0.00  0.00     0.019 A 
ENDBRANCH  15  16
ENDBRANCH   6  15
TORSDOF 2
