REMARK  9 active torsions:
REMARK  status: ('A' for Active; 'I' for Inactive)
REMARK    1  A    between atoms: C_10  and  N_1 
REMARK    2  A    between atoms: S_13  and  C_2 
REMARK    3  A    between atoms: C_6  and  N_11 
REMARK    4  A    between atoms: C_24  and  C_10 
REMARK       I    between atoms: N_11  and  C_15 
REMARK    5  A    between atoms: C_21  and  S_13 
REMARK    6  A    between atoms: C_15  and  C_21 
REMARK    7  A    between atoms: O_27  and  C_17 
REMARK    8  A    between atoms: O_28  and  C_18 
REMARK    9  A    between atoms: C_23  and  C_24 
ROOT
ATOM      1  N   UNL d   1       6.585  -5.633   0.000  0.00  0.00    -0.253 N 
ATOM      2  C   UNL d   1       6.585  -6.449   0.000  0.00  0.00     0.182 A 
ATOM      3  C   UNL d   1       5.868  -5.211   0.000  0.00  0.00     0.268 A 
ATOM      4  N   UNL d   1       5.868  -6.865   0.000  0.00  0.00    -0.222 NA
ATOM      5  C   UNL d   1       5.154  -5.633   0.000  0.00  0.00     0.074 A 
ATOM      6  C   UNL d   1       5.154  -6.449   0.000  0.00  0.00     0.088 A 
ATOM      7  O   UNL d   1       5.868  -4.397   0.000  0.00  0.00    -0.267 OA
ATOM      8  C   UNL d   1       4.433  -5.211   0.000  0.00  0.00     0.006 A 
ATOM      9  C   UNL d   1       4.433  -6.865   0.000  0.00  0.00     0.019 A 
ATOM     10  C   UNL d   1       3.725  -5.633   0.000  0.00  0.00     0.000 A 
ATOM     11  C   UNL d   1       3.725  -6.449   0.000  0.00  0.00     0.002 A 
ENDROOT
BRANCH   1  12
ATOM     12  C   UNL d   1       7.308  -5.211   0.000  0.00  0.00     0.085 C 
BRANCH  12  13
ATOM     13  C   UNL d   1       7.308  -4.385   0.000  0.00  0.00     0.019 C 
BRANCH  13  14
ATOM     14  C   UNL d   1       8.023  -3.972   0.000  0.00  0.00     0.004 A 
ATOM     15  C   UNL d   1       8.023  -3.146   0.000  0.00  0.00     0.026 A 
ATOM     16  C   UNL d   1       8.728  -2.733   0.000  0.00  0.00     0.116 A 
ATOM     17  C   UNL d   1       9.451  -3.146   0.000  0.00  0.00     0.116 A 
ATOM     18  C   UNL d   1       9.442  -3.978   0.000  0.00  0.00     0.026 A 
ATOM     19  C   UNL d   1       8.728  -4.385   0.000  0.00  0.00     0.002 A 
BRANCH  16  20
ATOM     20  O   UNL d   1       8.728  -1.911   0.000  0.00  0.00    -0.326 OA
ATOM     21  C   UNL d   1       9.433  -1.501   0.000  0.00  0.00     0.181 C 
ENDBRANCH  16  20
BRANCH  17  22
ATOM     22  O   UNL d   1      10.156  -2.743   0.000  0.00  0.00    -0.326 OA
ATOM     23  C   UNL d   1      10.877  -3.146   0.000  0.00  0.00     0.181 C 
ENDBRANCH  17  22
ENDBRANCH  13  14
ENDBRANCH  12  13
ENDBRANCH   1  12
BRANCH   2  24
ATOM     24  S   UNL d   1       7.308  -6.874   0.000  0.00  0.00    -0.044 SA
BRANCH  24  25
ATOM     25  C   UNL d   1       7.308  -7.703   0.000  0.00  0.00     0.101 C 
BRANCH  25  26
ATOM     26  C   UNL d   1       8.023  -8.110   0.000  0.00  0.00     0.287 C 
ATOM     27  N   UNL d   1       8.728  -7.703   0.000  0.00  0.00    -0.186 NA
ATOM     28  O   UNL d   1       8.023  -8.936   0.000  0.00  0.00    -0.265 OA
BRANCH  27  29
ATOM     29  C   UNL d   1       9.442  -8.110   0.000  0.00  0.00     0.194 A 
ATOM     30  N   UNL d   1       9.542  -8.933   0.000  0.00  0.00    -0.107 NA
ATOM     31  O   UNL d   1      10.346  -9.099   0.000  0.00  0.00    -0.210 OA
ATOM     32  C   UNL d   1      10.759  -8.384   0.000  0.00  0.00     0.128 A 
ATOM     33  C   UNL d   1      10.202  -7.776   0.000  0.00  0.00     0.068 A 
ATOM     34  C   UNL d   1      11.573  -8.300   0.000  0.00  0.00     0.029 C 
ENDBRANCH  27  29
ENDBRANCH  25  26
ENDBRANCH  24  25
ENDBRANCH   2  24
TORSDOF 9
