REMARK  3 active torsions:
REMARK  status: ('A' for Active; 'I' for Inactive)
REMARK    1  A    between atoms: C_17  and  N_4 
REMARK    2  A    between atoms: C_11  and  C_5 
REMARK       I    between atoms: N_13  and  C_11 
REMARK    3  A    between atoms: C_21  and  N_13 
ROOT
ATOM      1  C   UNL d   1       6.094  -4.354   0.000  0.00  0.00     0.155 A 
ATOM      2  C   UNL d   1       6.094  -3.531   0.000  0.00  0.00     0.091 A 
ATOM      3  N   UNL d   1       5.372  -4.758   0.000  0.00  0.00    -0.210 NA
ATOM      4  N   UNL d   1       6.794  -4.758   0.000  0.00  0.00    -0.275 N 
ATOM      5  C   UNL d   1       7.513  -3.539   0.000  0.00  0.00     0.094 A 
ATOM      6  C   UNL d   1       7.513  -4.357   0.000  0.00  0.00     0.175 A 
ATOM      7  N   UNL d   1       4.659  -3.520   0.000  0.00  0.00    -0.258 N 
ATOM      8  C   UNL d   1       4.659  -4.354   0.000  0.00  0.00     0.152 A 
ATOM      9  C   UNL d   1       5.372  -3.106   0.000  0.00  0.00     0.269 A 
ATOM     10  C   UNL d   1       6.808  -3.119   0.000  0.00  0.00     0.016 A 
ATOM     11  C   UNL d   1       3.953  -4.758   0.000  0.00  0.00     0.035 A 
ATOM     12  N   UNL d   1       8.227  -4.771   0.000  0.00  0.00    -0.128 N 
ATOM     13  C   UNL d   1       3.953  -3.106   0.000  0.00  0.00     0.084 A 
ATOM     14  O   UNL d   1       5.383  -2.288   0.000  0.00  0.00    -0.266 OA
ATOM     15  C   UNL d   1       3.239  -3.520   0.000  0.00  0.00     0.019 A 
ATOM     16  C   UNL d   1       3.239  -4.354   0.000  0.00  0.00     0.005 A 
ATOM     17  C   UNL d   1       3.953  -5.583   0.000  0.00  0.00     0.003 C 
ENDROOT
BRANCH   5  18
ATOM     18  C   UNL d   1       8.227  -3.130   0.000  0.00  0.00     0.282 C 
ATOM     19  N   UNL d   1       8.238  -2.301   0.000  0.00  0.00    -0.208 NA
ATOM     20  O   UNL d   1       8.949  -3.552   0.000  0.00  0.00    -0.265 OA
BRANCH  19  21
ATOM     21  C   UNL d   1       8.959  -1.900   0.000  0.00  0.00     0.085 A 
ATOM     22  C   UNL d   1       9.047  -1.085   0.000  0.00  0.00     0.019 A 
ATOM     23  C   UNL d   1       9.863  -0.930   0.000  0.00  0.00     0.002 A 
ATOM     24  C   UNL d   1      10.264  -1.652   0.000  0.00  0.00     0.002 A 
ATOM     25  C   UNL d   1       9.710  -2.248   0.000  0.00  0.00     0.019 A 
ENDBRANCH  19  21
ENDBRANCH   5  18
BRANCH   4  26
ATOM     26  C   UNL d   1       6.794  -5.583   0.000  0.00  0.00     0.067 A 
ATOM     27  C   UNL d   1       6.121  -6.062   0.000  0.00  0.00     0.018 A 
ATOM     28  C   UNL d   1       6.375  -6.842   0.000  0.00  0.00     0.002 A 
ATOM     29  C   UNL d   1       7.209  -6.858   0.000  0.00  0.00     0.002 A 
ATOM     30  C   UNL d   1       7.460  -6.073   0.000  0.00  0.00     0.018 A 
ENDBRANCH   4  26
TORSDOF 3
