REMARK  6 active torsions:
REMARK  status: ('A' for Active; 'I' for Inactive)
REMARK    1  A    between atoms: C_6  and  C_1 
REMARK    2  A    between atoms: C_8  and  N_2 
REMARK    3  A    between atoms: C_12  and  C_5 
REMARK    4  A    between atoms: C_7  and  C_6 
REMARK    5  A    between atoms: C_18  and  C_8 
REMARK    6  A    between atoms: N_10  and  C_18 
ROOT
ATOM      1  C   UNL d   1       1.907  -4.665   0.000  0.00  0.00     0.099 A 
ATOM      2  N   UNL d   1       2.997  -3.886   0.000  0.00  0.00    -0.269 N 
ATOM      3  C   UNL d   1       1.639  -3.886   0.000  0.00  0.00     0.256 A 
ATOM      4  C   UNL d   1       2.307  -3.411   0.000  0.00  0.00     0.304 A 
ATOM      5  C   UNL d   1       2.723  -4.665   0.000  0.00  0.00     0.073 A 
ATOM      6  O   UNL d   1       2.307  -2.591   0.000  0.00  0.00    -0.263 OA
ATOM      7  O   UNL d   1       0.849  -3.639   0.000  0.00  0.00    -0.281 OA
ENDROOT
BRANCH   2   8
ATOM      8  C   UNL d   1       3.792  -3.639   0.000  0.00  0.00     0.102 C 
BRANCH   8   9
ATOM      9  C   UNL d   1       3.965  -2.839   0.000  0.00  0.00     0.100 C 
BRANCH   9  10
ATOM     10  N   UNL d   1       4.744  -2.579   0.000  0.00  0.00    -0.298 N 
ATOM     11  C   UNL d   1       5.360  -3.160   0.000  0.00  0.00     0.107 A 
ATOM     12  C   UNL d   1       6.160  -2.907   0.000  0.00  0.00     0.142 A 
ATOM     13  O   UNL d   1       6.327  -2.090   0.000  0.00  0.00    -0.300 OA
ATOM     14  C   UNL d   1       5.728  -1.528   0.000  0.00  0.00     0.142 A 
ATOM     15  C   UNL d   1       4.923  -1.784   0.000  0.00  0.00     0.107 A 
ENDBRANCH   9  10
ENDBRANCH   8   9
ENDBRANCH   2   8
BRANCH   5  16
ATOM     16  C   UNL d   1       3.218  -5.328   0.000  0.00  0.00     0.016 A 
ATOM     17  C   UNL d   1       4.037  -5.232   0.000  0.00  0.00     0.001 A 
ATOM     18  C   UNL d   1       4.528  -5.886   0.000  0.00  0.00     0.000 A 
ATOM     19  C   UNL d   1       4.202  -6.650   0.000  0.00  0.00     0.000 A 
ATOM     20  C   UNL d   1       3.384  -6.737   0.000  0.00  0.00     0.000 A 
ATOM     21  C   UNL d   1       2.891  -6.069   0.000  0.00  0.00     0.001 A 
ENDBRANCH   5  16
BRANCH   1  22
ATOM     22  C   UNL d   1       1.416  -5.328   0.000  0.00  0.00     0.206 C 
ATOM     23  O   UNL d   1       1.744  -6.069   0.000  0.00  0.00    -0.286 OA
BRANCH  22  24
ATOM     24  C   UNL d   1       0.576  -5.237   0.000  0.00  0.00     0.069 A 
ATOM     25  S   UNL d   1       0.018  -5.849   0.000  0.00  0.00    -0.083 SA
ATOM     26  C   UNL d   1      -0.732  -5.507   0.000  0.00  0.00     0.035 A 
ATOM     27  C   UNL d   1      -0.651  -4.691   0.000  0.00  0.00     0.008 A 
ATOM     28  C   UNL d   1       0.163  -4.523   0.000  0.00  0.00     0.010 A 
ENDBRANCH  22  24
ENDBRANCH   1  22
TORSDOF 6
