REMARK  6 active torsions:
REMARK  status: ('A' for Active; 'I' for Inactive)
REMARK       I    between atoms: C_2  and  N_1 
REMARK    1  A    between atoms: C_4  and  N_1 
REMARK    2  A    between atoms: C_11  and  N_1 
REMARK    3  A    between atoms: C_3  and  C_2 
REMARK    4  A    between atoms: C_5  and  C_4 
REMARK       I    between atoms: N_10  and  C_5 
REMARK    5  A    between atoms: C_21  and  N_10 
REMARK    6  A    between atoms: C_13  and  C_11 
ROOT
ATOM      1  N   UNL d   1       3.460  -0.997   0.000  0.00  0.00    -0.281 N 
ATOM      2  C   UNL d   1       4.081  -0.453   0.000  0.00  0.00     0.263 C 
ATOM      3  O   UNL d   1       3.934   0.345   0.000  0.00  0.00    -0.267 OA
ENDROOT
BRANCH   1   4
ATOM      4  C   UNL d   1       2.068  -0.745   0.000  0.00  0.00     0.181 A 
ATOM      5  C   UNL d   1       1.447  -0.412   0.000  0.00  0.00     0.007 A 
ATOM      6  C   UNL d   1       1.447   0.398   0.000  0.00  0.00    -0.002 A 
ATOM      7  C   UNL d   1       2.150   0.811   0.000  0.00  0.00    -0.001 A 
ATOM      8  C   UNL d   1       2.861   0.398   0.000  0.00  0.00    -0.002 A 
ATOM      9  C   UNL d   1       2.861  -0.412   0.000  0.00  0.00     0.007 A 
BRANCH   4  10
ATOM     10  C   UNL d   1       0.646  -0.687   0.000  0.00  0.00     0.282 C 
ATOM     11  N   UNL d   1       0.029  -1.235   0.000  0.00  0.00    -0.210 NA
ATOM     12  O   UNL d   1       0.493   0.121   0.000  0.00  0.00    -0.268 OA
BRANCH  11  13
ATOM     13  C   UNL d   1      -0.753  -0.971   0.000  0.00  0.00     0.084 A 
ATOM     14  C   UNL d   1      -0.993  -0.189   0.000  0.00  0.00     0.019 A 
ATOM     15  C   UNL d   1      -1.802  -0.176   0.000  0.00  0.00     0.002 A 
ATOM     16  C   UNL d   1      -2.070  -0.954   0.000  0.00  0.00     0.002 A 
ATOM     17  C   UNL d   1      -1.420  -1.434   0.000  0.00  0.00     0.019 A 
ENDBRANCH  11  13
ENDBRANCH   4  10
ENDBRANCH   1   4
BRANCH   1  18
ATOM     18  C   UNL d   1       3.687  -1.832   0.000  0.00  0.00     0.104 C 
BRANCH  18  19
ATOM     19  C   UNL d   1       4.535  -2.050   0.000  0.00  0.00     0.117 A 
ATOM     20  O   UNL d   1       5.128  -1.562   0.000  0.00  0.00    -0.304 OA
ATOM     21  C   UNL d   1       5.871  -2.027   0.000  0.00  0.00     0.123 A 
ATOM     22  C   UNL d   1       5.725  -2.799   0.000  0.00  0.00     0.029 A 
ATOM     23  C   UNL d   1       4.853  -2.861   0.000  0.00  0.00     0.028 A 
ENDBRANCH  18  19
ENDBRANCH   1  18
BRANCH   2  24
ATOM     24  C   UNL d   1       5.034  -0.216   0.000  0.00  0.00     0.076 A 
ATOM     25  C   UNL d   1       5.222  -1.090   0.000  0.00  0.00     0.107 A 
ATOM     26  N   UNL d   1       6.041  -1.365   0.000  0.00  0.00    -0.206 NA
ATOM     27  C   UNL d   1       6.667  -0.798   0.000  0.00  0.00     0.279 A 
ATOM     28  C   UNL d   1       6.509   0.062   0.000  0.00  0.00     0.063 A 
ATOM     29  O   UNL d   1       7.490  -1.085   0.000  0.00  0.00    -0.265 OA
ATOM     30  C   UNL d   1       5.688   0.345   0.000  0.00  0.00     0.011 A 
ENDBRANCH   2  24
TORSDOF 6
