REMARK  9 active torsions:
REMARK  status: ('A' for Active; 'I' for Inactive)
REMARK    1  A    between atoms: C_19  and  N_1 
REMARK    2  A    between atoms: S_15  and  C_2 
REMARK    3  A    between atoms: C_7  and  C_10 
REMARK       I    between atoms: N_12  and  C_7 
REMARK    4  A    between atoms: C_20  and  N_12 
REMARK    5  A    between atoms: C_22  and  S_15 
REMARK    6  A    between atoms: C_24  and  C_19 
REMARK    7  A    between atoms: C_21  and  C_20 
REMARK    8  A    between atoms: C_27  and  C_24 
REMARK    9  A    between atoms: C_26  and  C_27 
ROOT
ATOM      1  N   UNL d   1       9.006  -4.231   0.000  0.00  0.00    -0.195 NA
ATOM      2  C   UNL d   1       8.291  -3.816   0.000  0.00  0.00     0.086 C 
ATOM      3  C   UNL d   1       7.580  -3.401   0.000  0.00  0.00     0.170 C 
ENDROOT
BRANCH   3   4
ATOM      4  S   UNL d   1       6.867  -3.807   0.000  0.00  0.00    -0.060 SA
BRANCH   4   5
ATOM      5  C   UNL d   1       6.138  -3.380   0.000  0.00  0.00     0.178 A 
ATOM      6  N   UNL d   1       6.138  -2.554   0.000  0.00  0.00    -0.253 N 
ATOM      7  C   UNL d   1       5.427  -2.141   0.000  0.00  0.00     0.268 A 
ATOM      8  C   UNL d   1       4.707  -2.563   0.000  0.00  0.00     0.074 A 
ATOM      9  O   UNL d   1       5.420  -1.316   0.000  0.00  0.00    -0.267 OA
ATOM     10  C   UNL d   1       4.707  -3.380   0.000  0.00  0.00     0.088 A 
ATOM     11  C   UNL d   1       3.992  -2.148   0.000  0.00  0.00     0.006 A 
ATOM     12  C   UNL d   1       3.992  -3.792   0.000  0.00  0.00     0.024 A 
ATOM     13  N   UNL d   1       5.420  -3.792   0.000  0.00  0.00    -0.222 NA
ATOM     14  C   UNL d   1       3.281  -3.380   0.000  0.00  0.00     0.059 A 
ATOM     15  C   UNL d   1       3.281  -2.563   0.000  0.00  0.00     0.005 A 
BRANCH   6  16
ATOM     16  C   UNL d   1       6.867  -2.141   0.000  0.00  0.00     0.085 C 
BRANCH  16  17
ATOM     17  C   UNL d   1       6.853  -1.316   0.000  0.00  0.00     0.019 C 
BRANCH  17  18
ATOM     18  C   UNL d   1       7.578  -0.903   0.000  0.00  0.00     0.002 C 
BRANCH  18  19
ATOM     19  C   UNL d   1       7.571  -0.066   0.000  0.00  0.00     0.000 C 
ATOM     20  C   UNL d   1       8.284   0.338   0.000  0.00  0.00     0.000 C 
ENDBRANCH  18  19
ENDBRANCH  17  18
ENDBRANCH  16  17
ENDBRANCH   6  16
BRANCH  14  21
ATOM     21  C   UNL d   1       2.568  -3.792   0.000  0.00  0.00     0.279 C 
ATOM     22  N   UNL d   1       1.851  -3.387   0.000  0.00  0.00    -0.204 NA
ATOM     23  O   UNL d   1       2.568  -4.618   0.000  0.00  0.00    -0.265 OA
BRANCH  22  24
ATOM     24  C   UNL d   1       1.135  -3.802   0.000  0.00  0.00     0.127 C 
BRANCH  24  25
ATOM     25  C   UNL d   1       0.415  -3.387   0.000  0.00  0.00     0.119 A 
ATOM     26  O   UNL d   1      -0.335  -3.724   0.000  0.00  0.00    -0.304 OA
ATOM     27  C   UNL d   1      -0.891  -3.112   0.000  0.00  0.00     0.123 A 
ATOM     28  C   UNL d   1      -0.476  -2.395   0.000  0.00  0.00     0.029 A 
ATOM     29  C   UNL d   1       0.326  -2.568   0.000  0.00  0.00     0.028 A 
ENDBRANCH  24  25
ENDBRANCH  22  24
ENDBRANCH  14  21
ENDBRANCH   4   5
ENDBRANCH   3   4
TORSDOF 9
