REMARK  5 active torsions:
REMARK  status: ('A' for Active; 'I' for Inactive)
REMARK    1  A    between atoms: C_3  and  C_1 
REMARK       I    between atoms: N_2  and  C_4 
REMARK    2  A    between atoms: C_5  and  N_2 
REMARK       I    between atoms: N_6  and  C_3 
REMARK    3  A    between atoms: C_4  and  C_7 
REMARK    4  A    between atoms: C_7  and  N_6 
REMARK    5  A    between atoms: C_21  and  C_7 
ROOT
ATOM      1  C   UNL d   1      -0.765   0.622   0.000  0.00  0.00     0.263 C 
ATOM      2  N   UNL d   1      -0.347  -0.081   0.000  0.00  0.00    -0.206 NA
ATOM      3  O   UNL d   1      -0.347   1.337   0.000  0.00  0.00    -0.270 OA
ENDROOT
BRANCH   2   4
ATOM      4  C   UNL d   1       0.469  -0.081   0.000  0.00  0.00     0.142 C 
BRANCH   4   5
ATOM      5  C   UNL d   1       0.893  -0.799   0.000  0.00  0.00     0.299 C 
ATOM      6  N   UNL d   1       1.704  -0.799   0.000  0.00  0.00    -0.181 NA
ATOM      7  O   UNL d   1       0.469  -1.506   0.000  0.00  0.00    -0.263 OA
BRANCH   6   8
ATOM      8  C   UNL d   1       2.128  -1.506   0.000  0.00  0.00     0.197 A 
ATOM      9  N   UNL d   1       2.967  -1.506   0.000  0.00  0.00    -0.219 NA
ATOM     10  C   UNL d   1       3.210  -2.297   0.000  0.00  0.00     0.108 A 
ATOM     11  C   UNL d   1       2.579  -2.772   0.000  0.00  0.00     0.059 A 
ATOM     12  S   UNL d   1       1.865  -2.297   0.000  0.00  0.00    -0.046 SA
ENDBRANCH   6   8
ENDBRANCH   4   5
BRANCH   4  13
ATOM     13  C   UNL d   1       0.868   0.633   0.000  0.00  0.00     0.022 C 
ATOM     14  C   UNL d   1       1.694   0.639   0.000  0.00  0.00     0.002 C 
ATOM     15  C   UNL d   1       0.431   1.309   0.000  0.00  0.00     0.002 C 
ENDBRANCH   4  13
ENDBRANCH   2   4
BRANCH   1  16
ATOM     16  C   UNL d   1      -1.571   0.622   0.000  0.00  0.00     0.111 A 
ATOM     17  C   UNL d   1      -1.571   1.337   0.000  0.00  0.00     0.026 A 
ATOM     18  C   UNL d   1      -2.232   1.719   0.000  0.00  0.00     0.045 A 
ATOM     19  C   UNL d   1      -2.912   1.098   0.000  0.00  0.00    -0.022 A 
ATOM     20  C   UNL d   1      -3.068   1.415   0.000  0.00  0.00    -0.022 A 
ATOM     21  C   UNL d   1      -2.912   0.261   0.000  0.00  0.00    -0.007 A 
ATOM     22  C   UNL d   1      -2.109  -0.021   0.000  0.00  0.00    -0.014 A 
ATOM     23  C   UNL d   1      -3.642  -0.021   0.000  0.00  0.00    -0.001 A 
ATOM     24  C   UNL d   1      -3.068   0.659   0.000  0.00  0.00    -0.007 A 
ATOM     25  C   UNL d   1      -2.232   0.338   0.000  0.00  0.00    -0.014 A 
ENDBRANCH   1  16
TORSDOF 5
