REMARK  3 active torsions:
REMARK  status: ('A' for Active; 'I' for Inactive)
REMARK    1  A    between atoms: C_21  and  N_1 
REMARK       I    between atoms: N_6  and  C_8 
REMARK    2  A    between atoms: C_8  and  C_9 
REMARK    3  A    between atoms: C_24  and  C_21 
ROOT
ATOM      1  N   UNL d   1      -2.446   7.932   0.000  0.00  0.00    -0.249 N 
ATOM      2  C   UNL d   1      -1.742   7.518   0.000  0.00  0.00     0.208 A 
ATOM      3  C   UNL d   1      -3.166   7.526   0.000  0.00  0.00     0.268 A 
ATOM      4  C   UNL d   1      -3.162   6.701   0.000  0.00  0.00     0.074 A 
ATOM      5  N   UNL d   1      -1.742   6.688   0.000  0.00  0.00    -0.218 NA
ATOM      6  C   UNL d   1      -2.458   6.295   0.000  0.00  0.00     0.088 A 
ATOM      7  C   UNL d   1      -3.175   5.055   0.000  0.00  0.00     0.058 A 
ATOM      8  C   UNL d   1      -2.458   5.470   0.000  0.00  0.00     0.024 A 
ATOM      9  C   UNL d   1      -3.878   6.299   0.000  0.00  0.00     0.006 A 
ATOM     10  S   UNL d   1      -1.014   7.932   0.000  0.00  0.00    -0.038 SA
ATOM     11  O   UNL d   1      -3.878   7.940   0.000  0.00  0.00    -0.267 OA
ATOM     12  C   UNL d   1      -3.882   5.470   0.000  0.00  0.00     0.005 A 
ENDROOT
BRANCH   7  13
ATOM     13  C   UNL d   1      -3.175   4.226   0.000  0.00  0.00     0.265 C 
ATOM     14  N   UNL d   1      -3.891   3.819   0.000  0.00  0.00    -0.272 N 
ATOM     15  C   UNL d   1      -3.891   2.999   0.000  0.00  0.00     0.083 A 
ATOM     16  C   UNL d   1      -4.607   4.226   0.000  0.00  0.00     0.083 A 
ATOM     17  C   UNL d   1      -4.594   2.596   0.000  0.00  0.00     0.018 A 
ATOM     18  C   UNL d   1      -4.582   1.767   0.000  0.00  0.00     0.002 A 
ATOM     19  C   UNL d   1      -5.310   2.999   0.000  0.00  0.00     0.003 A 
ATOM     20  C   UNL d   1      -5.298   1.340   0.000  0.00  0.00     0.000 A 
ATOM     21  C   UNL d   1      -6.018   1.742   0.000  0.00  0.00     0.000 A 
ATOM     22  C   UNL d   1      -6.018   2.571   0.000  0.00  0.00     0.000 A 
ATOM     23  C   UNL d   1      -5.315   3.815   0.000  0.00  0.00     0.019 A 
ATOM     24  O   UNL d   1      -2.458   3.819   0.000  0.00  0.00    -0.267 OA
ENDBRANCH   7  13
BRANCH   1  25
ATOM     25  C   UNL d   1      -2.446   8.770   0.000  0.00  0.00     0.085 C 
BRANCH  25  26
ATOM     26  C   UNL d   1      -3.162   9.176   0.000  0.00  0.00     0.019 C 
ATOM     27  C   UNL d   1      -3.154  10.005   0.000  0.00  0.00     0.002 C 
ENDBRANCH  25  26
ENDBRANCH   1  25
TORSDOF 3
