REMARK  9 active torsions:
REMARK  status: ('A' for Active; 'I' for Inactive)
REMARK    1  A    between atoms: C_9  and  N_1 
REMARK    2  A    between atoms: S_8  and  C_2 
REMARK    3  A    between atoms: C_7  and  C_12 
REMARK       I    between atoms: N_13  and  C_7 
REMARK    4  A    between atoms: C_26  and  S_8 
REMARK    5  A    between atoms: C_27  and  N_13 
REMARK    6  A    between atoms: C_15  and  C_27 
REMARK    7  A    between atoms: C_16  and  C_26 
REMARK    8  A    between atoms: O_31  and  C_16 
REMARK    9  A    between atoms: C_33  and  O_31 
ROOT
ATOM      1  N   UNL d   1      -5.288  11.790   0.000  0.00  0.00    -0.254 N 
ATOM      2  C   UNL d   1      -5.991  11.377   0.000  0.00  0.00     0.182 A 
ATOM      3  C   UNL d   1      -5.288  12.611   0.000  0.00  0.00     0.268 A 
ATOM      4  N   UNL d   1      -6.698  11.790   0.000  0.00  0.00    -0.222 NA
ATOM      5  C   UNL d   1      -5.991  13.023   0.000  0.00  0.00     0.074 A 
ATOM      6  C   UNL d   1      -6.710  12.611   0.000  0.00  0.00     0.088 A 
ATOM      7  C   UNL d   1      -7.429  13.023   0.000  0.00  0.00     0.024 A 
ATOM      8  C   UNL d   1      -6.003  13.848   0.000  0.00  0.00     0.006 A 
ATOM      9  C   UNL d   1      -7.429  13.848   0.000  0.00  0.00     0.059 A 
ATOM     10  O   UNL d   1      -4.569  13.023   0.000  0.00  0.00    -0.267 OA
ATOM     11  C   UNL d   1      -6.710  14.261   0.000  0.00  0.00     0.005 A 
ENDROOT
BRANCH   9  12
ATOM     12  C   UNL d   1      -8.148  14.265   0.000  0.00  0.00     0.279 C 
ATOM     13  N   UNL d   1      -8.843  13.848   0.000  0.00  0.00    -0.204 NA
ATOM     14  O   UNL d   1      -8.132  15.086   0.000  0.00  0.00    -0.265 OA
BRANCH  13  15
ATOM     15  C   UNL d   1      -8.839  13.027   0.000  0.00  0.00     0.127 C 
BRANCH  15  16
ATOM     16  C   UNL d   1      -9.550  12.611   0.000  0.00  0.00     0.119 A 
ATOM     17  O   UNL d   1      -9.727  11.821   0.000  0.00  0.00    -0.304 OA
ATOM     18  C   UNL d   1     -10.540  11.719   0.000  0.00  0.00     0.123 A 
ATOM     19  C   UNL d   1     -10.866  12.481   0.000  0.00  0.00     0.029 A 
ATOM     20  C   UNL d   1     -10.269  13.027   0.000  0.00  0.00     0.028 A 
ENDBRANCH  15  16
ENDBRANCH  13  15
ENDBRANCH   9  12
BRANCH   2  21
ATOM     21  S   UNL d   1      -5.991  10.552   0.000  0.00  0.00    -0.044 SA
BRANCH  21  22
ATOM     22  C   UNL d   1      -6.698  10.140   0.000  0.00  0.00     0.107 C 
BRANCH  22  23
ATOM     23  C   UNL d   1      -6.686   9.315   0.000  0.00  0.00     0.307 C 
ATOM     24  O   UNL d   1      -5.968   8.902   0.000  0.00  0.00    -0.258 OA
BRANCH  23  25
ATOM     25  O   UNL d   1      -7.405   8.902   0.000  0.00  0.00    -0.271 OA
BRANCH  25  26
ATOM     26  C   UNL d   1      -7.390   8.077   0.000  0.00  0.00     0.126 C 
ATOM     27  C   UNL d   1      -8.097   7.676   0.000  0.00  0.00     0.029 C 
ENDBRANCH  25  26
ENDBRANCH  23  25
ENDBRANCH  22  23
ENDBRANCH  21  22
ENDBRANCH   2  21
BRANCH   1  28
ATOM     28  C   UNL d   1      -4.573  11.377   0.000  0.00  0.00     0.069 A 
ATOM     29  C   UNL d   1      -4.573  10.552   0.000  0.00  0.00     0.020 A 
ATOM     30  C   UNL d   1      -3.873  10.140   0.000  0.00  0.00     0.031 A 
ATOM     31  C   UNL d   1      -3.159  10.552   0.000  0.00  0.00     0.140 A 
ATOM     32  C   UNL d   1      -3.159  11.377   0.000  0.00  0.00     0.031 A 
ATOM     33  F   UNL d   1      -2.440  10.128   0.000  0.00  0.00    -0.204 F 
ATOM     34  C   UNL d   1      -3.862  11.790   0.000  0.00  0.00     0.020 A 
ENDBRANCH   1  28
TORSDOF 9
