REMARK  8 active torsions:
REMARK  status: ('A' for Active; 'I' for Inactive)
REMARK    1  A    between atoms: C_11  and  N_1 
REMARK    2  A    between atoms: S_10  and  C_2 
REMARK    3  A    between atoms: N_8  and  C_9 
REMARK    4  A    between atoms: C_18  and  S_10 
REMARK    5  A    between atoms: C_19  and  C_11 
REMARK    6  A    between atoms: C_13  and  C_18 
REMARK    7  A    between atoms: O_20  and  C_13 
REMARK    8  A    between atoms: C_25  and  O_20 
ROOT
ATOM      1  N   UNL d   1       4.678  -3.602   0.000  0.00  0.00    -0.253 N 
ATOM      2  C   UNL d   1       4.678  -4.418   0.000  0.00  0.00     0.182 A 
ATOM      3  C   UNL d   1       3.956  -3.183   0.000  0.00  0.00     0.268 A 
ATOM      4  C   UNL d   1       3.228  -3.615   0.000  0.00  0.00     0.076 A 
ATOM      5  N   UNL d   1       3.950  -4.849   0.000  0.00  0.00    -0.222 NA
ATOM      6  C   UNL d   1       3.233  -4.444   0.000  0.00  0.00     0.088 A 
ATOM      7  C   UNL d   1       2.507  -3.190   0.000  0.00  0.00     0.024 A 
ATOM      8  C   UNL d   1       1.799  -3.615   0.000  0.00  0.00     0.065 A 
ATOM      9  O   UNL d   1       3.950  -2.357   0.000  0.00  0.00    -0.267 OA
ATOM     10  C   UNL d   1       2.518  -4.849   0.000  0.00  0.00     0.021 A 
ATOM     11  C   UNL d   1       1.799  -4.444   0.000  0.00  0.00     0.019 A 
ENDROOT
BRANCH   1  12
ATOM     12  C   UNL d   1       5.386  -3.183   0.000  0.00  0.00     0.085 C 
BRANCH  12  13
ATOM     13  C   UNL d   1       5.377  -2.359   0.000  0.00  0.00     0.018 A 
ATOM     14  C   UNL d   1       4.662  -1.960   0.000  0.00  0.00     0.002 A 
ATOM     15  C   UNL d   1       4.662  -1.133   0.000  0.00  0.00     0.000 A 
ATOM     16  C   UNL d   1       5.373  -0.721   0.000  0.00  0.00     0.000 A 
ATOM     17  C   UNL d   1       6.088  -1.123   0.000  0.00  0.00     0.000 A 
ATOM     18  C   UNL d   1       6.088  -1.947   0.000  0.00  0.00     0.002 A 
ENDBRANCH  12  13
ENDBRANCH   1  12
BRANCH   2  19
ATOM     19  S   UNL d   1       5.386  -4.830   0.000  0.00  0.00    -0.044 SA
BRANCH  19  20
ATOM     20  C   UNL d   1       5.386  -5.650   0.000  0.00  0.00     0.107 C 
BRANCH  20  21
ATOM     21  C   UNL d   1       6.101  -6.073   0.000  0.00  0.00     0.307 C 
ATOM     22  O   UNL d   1       6.101  -6.893   0.000  0.00  0.00    -0.258 OA
BRANCH  21  23
ATOM     23  O   UNL d   1       6.809  -5.663   0.000  0.00  0.00    -0.271 OA
BRANCH  23  24
ATOM     24  C   UNL d   1       7.522  -6.075   0.000  0.00  0.00     0.126 C 
ATOM     25  C   UNL d   1       8.243  -5.663   0.000  0.00  0.00     0.029 C 
ENDBRANCH  23  24
ENDBRANCH  21  23
ENDBRANCH  20  21
ENDBRANCH  19  20
ENDBRANCH   2  19
BRANCH   8  26
ATOM     26  N   UNL d   1       1.084  -3.207   0.000  0.00  0.00    -0.300 N 
ATOM     27  C   UNL d   1       0.373  -3.619   0.000  0.00  0.00     0.107 A 
ATOM     28  C   UNL d   1      -0.346  -3.207   0.000  0.00  0.00     0.142 A 
ATOM     29  O   UNL d   1      -0.346  -2.385   0.000  0.00  0.00    -0.300 OA
ATOM     30  C   UNL d   1       0.363  -1.973   0.000  0.00  0.00     0.142 A 
ATOM     31  C   UNL d   1       1.075  -2.378   0.000  0.00  0.00     0.107 A 
ENDBRANCH   8  26
TORSDOF 8
