REMARK  5 active torsions:
REMARK  status: ('A' for Active; 'I' for Inactive)
REMARK    1  A    between atoms: C_2  and  C_1 
REMARK    2  A    between atoms: C_7  and  C_2 
REMARK    3  A    between atoms: O_17  and  C_6 
REMARK    4  A    between atoms: C_10  and  C_7 
REMARK    5  A    between atoms: O_18  and  C_8 
ROOT
ATOM      1  C   UNL d   1       3.759  -2.556   0.000  0.00  0.00     0.042 C 
ENDROOT
BRANCH   1   2
ATOM      2  C   UNL d   1       3.045  -2.959   0.000  0.00  0.00     0.199 C 
ATOM      3  O   UNL d   1       3.045  -3.796   0.000  0.00  0.00    -0.286 OA
BRANCH   2   4
ATOM      4  C   UNL d   1       2.321  -2.556   0.000  0.00  0.00     0.078 A 
ATOM      5  C   UNL d   1       2.321  -1.719   0.000  0.00  0.00     0.202 A 
ATOM      6  C   UNL d   1       1.607  -1.307   0.000  0.00  0.00     0.084 A 
ATOM      7  O   UNL d   1       3.045  -1.303   0.000  0.00  0.00    -0.286 OA
ATOM      8  C   UNL d   1       0.902  -1.719   0.000  0.00  0.00     0.199 A 
ATOM      9  C   UNL d   1       0.902  -2.556   0.000  0.00  0.00     0.042 A 
ATOM     10  O   UNL d   1       0.180  -1.307   0.000  0.00  0.00    -0.286 OA
ATOM     11  C   UNL d   1       1.607  -2.959   0.000  0.00  0.00     0.010 A 
ENDBRANCH   2   4
ENDBRANCH   1   2
BRANCH   1  12
ATOM     12  C   UNL d   1       4.478  -2.959   0.000  0.00  0.00     0.005 A 
ATOM     13  C   UNL d   1       5.177  -2.541   0.000  0.00  0.00     0.026 A 
ATOM     14  C   UNL d   1       5.899  -2.957   0.000  0.00  0.00     0.116 A 
ATOM     15  C   UNL d   1       5.914  -3.773   0.000  0.00  0.00     0.116 A 
ATOM     16  C   UNL d   1       5.192  -4.197   0.000  0.00  0.00     0.026 A 
ATOM     17  C   UNL d   1       4.464  -3.788   0.000  0.00  0.00     0.002 A 
BRANCH  14  18
ATOM     18  O   UNL d   1       6.615  -2.535   0.000  0.00  0.00    -0.326 OA
ATOM     19  C   UNL d   1       7.335  -2.942   0.000  0.00  0.00     0.181 C 
ENDBRANCH  14  18
BRANCH  15  20
ATOM     20  O   UNL d   1       6.621  -4.197   0.000  0.00  0.00    -0.326 OA
ATOM     21  C   UNL d   1       6.621  -5.016   0.000  0.00  0.00     0.181 C 
ENDBRANCH  15  20
ENDBRANCH   1  12
TORSDOF 5
