REMARK  3 active torsions:
REMARK  status: ('A' for Active; 'I' for Inactive)
REMARK    1  A    between atoms: C_7  and  N_1 
REMARK    2  A    between atoms: C_5  and  C_2 
REMARK    3  A    between atoms: C_11  and  C_7 
ROOT
ATOM      1  N   UNL d   1       4.088  -0.127   0.000  0.00  0.00    -0.262 N 
ATOM      2  C   UNL d   1       3.322   0.184   0.000  0.00  0.00     0.173 A 
ATOM      3  N   UNL d   1       3.408   1.003   0.000  0.00  0.00    -0.128 NA
ATOM      4  C   UNL d   1       4.627   0.475   0.000  0.00  0.00     0.227 A 
ATOM      5  N   UNL d   1       4.210   1.187   0.000  0.00  0.00    -0.117 NA
ATOM      6  S   UNL d   1       5.462   0.485   0.000  0.00  0.00    -0.036 SA
ENDROOT
BRANCH   2   7
ATOM      7  C   UNL d   1       2.610  -0.227   0.000  0.00  0.00     0.064 A 
ATOM      8  C   UNL d   1       2.222  -0.950   0.000  0.00  0.00     0.143 A 
ATOM      9  F   UNL d   1       2.806  -1.540   0.000  0.00  0.00    -0.204 F 
ATOM     10  C   UNL d   1       1.389  -0.968   0.000  0.00  0.00     0.030 A 
ATOM     11  C   UNL d   1       0.955  -0.266   0.000  0.00  0.00     0.002 A 
ATOM     12  C   UNL d   1       1.351   0.450   0.000  0.00  0.00     0.000 A 
ATOM     13  C   UNL d   1       2.184   0.475   0.000  0.00  0.00     0.005 A 
ENDBRANCH   2   7
BRANCH   1  14
ATOM     14  C   UNL d   1       4.295  -0.930   0.000  0.00  0.00     0.108 C 
BRANCH  14  15
ATOM     15  C   UNL d   1       5.091  -1.140   0.000  0.00  0.00     0.118 A 
ATOM     16  O   UNL d   1       5.392  -1.908   0.000  0.00  0.00    -0.304 OA
ATOM     17  C   UNL d   1       6.215  -1.871   0.000  0.00  0.00     0.123 A 
ATOM     18  C   UNL d   1       6.420  -1.068   0.000  0.00  0.00     0.029 A 
ATOM     19  C   UNL d   1       5.730  -0.617   0.000  0.00  0.00     0.028 A 
ENDBRANCH  14  15
ENDBRANCH   1  14
TORSDOF 3
