REMARK  4 active torsions:
REMARK  status: ('A' for Active; 'I' for Inactive)
REMARK    1  A    between atoms: C_23  and  N_1 
REMARK       I    between atoms: N_7  and  C_10 
REMARK    2  A    between atoms: C_10  and  C_25 
REMARK    3  A    between atoms: C_26  and  C_23 
REMARK    4  A    between atoms: C_25  and  C_26 
ROOT
ATOM      1  N   UNL d   1       4.866  -4.889   0.000  0.00  0.00    -0.249 N 
ATOM      2  C   UNL d   1       4.152  -4.478   0.000  0.00  0.00     0.268 A 
ATOM      3  C   UNL d   1       4.866  -5.704   0.000  0.00  0.00     0.208 A 
ATOM      4  C   UNL d   1       3.436  -4.889   0.000  0.00  0.00     0.076 A 
ATOM      5  C   UNL d   1       3.436  -5.704   0.000  0.00  0.00     0.090 A 
ATOM      6  N   UNL d   1       4.152  -6.092   0.000  0.00  0.00    -0.218 NA
ATOM      7  C   UNL d   1       2.717  -4.478   0.000  0.00  0.00     0.033 A 
ATOM      8  C   UNL d   1       2.715  -6.092   0.000  0.00  0.00     0.046 A 
ATOM      9  C   UNL d   1       1.988  -4.889   0.000  0.00  0.00     0.119 A 
ATOM     10  C   UNL d   1       2.001  -5.704   0.000  0.00  0.00     0.121 A 
ATOM     11  S   UNL d   1       5.595  -6.099   0.000  0.00  0.00    -0.038 SA
ATOM     12  O   UNL d   1       4.152  -3.671   0.000  0.00  0.00    -0.267 OA
ATOM     13  O   UNL d   1       1.202  -4.649   0.000  0.00  0.00    -0.300 OA
ATOM     14  O   UNL d   1       1.205  -5.944   0.000  0.00  0.00    -0.299 OA
ATOM     15  C   UNL d   1       0.709  -5.300   0.000  0.00  0.00     0.304 A 
ENDROOT
BRANCH   1  16
ATOM     16  C   UNL d   1       5.595  -4.478   0.000  0.00  0.00     0.085 C 
BRANCH  16  17
ATOM     17  C   UNL d   1       5.595  -3.671   0.000  0.00  0.00     0.024 C 
BRANCH  17  18
ATOM     18  C   UNL d   1       6.306  -3.276   0.000  0.00  0.00     0.063 C 
BRANCH  18  19
ATOM     19  C   UNL d   1       6.314  -2.469   0.000  0.00  0.00     0.265 C 
ATOM     20  N   UNL d   1       7.038  -2.074   0.000  0.00  0.00    -0.272 N 
ATOM     21  C   UNL d   1       7.744  -2.516   0.000  0.00  0.00     0.083 A 
ATOM     22  C   UNL d   1       7.059  -1.251   0.000  0.00  0.00     0.083 A 
ATOM     23  C   UNL d   1       8.473  -2.125   0.000  0.00  0.00     0.018 A 
ATOM     24  C   UNL d   1       9.171  -2.560   0.000  0.00  0.00     0.002 A 
ATOM     25  C   UNL d   1       8.501  -1.290   0.000  0.00  0.00     0.003 A 
ATOM     26  C   UNL d   1       9.900  -2.167   0.000  0.00  0.00     0.000 A 
ATOM     27  C   UNL d   1       9.928  -1.337   0.000  0.00  0.00     0.000 A 
ATOM     28  C   UNL d   1       9.225  -0.902   0.000  0.00  0.00     0.000 A 
ATOM     29  C   UNL d   1       7.790  -0.856   0.000  0.00  0.00     0.019 A 
ATOM     30  O   UNL d   1       5.585  -2.063   0.000  0.00  0.00    -0.267 OA
ENDBRANCH  18  19
ENDBRANCH  17  18
ENDBRANCH  16  17
ENDBRANCH   1  16
TORSDOF 4
