REMARK  4 active torsions:
REMARK  status: ('A' for Active; 'I' for Inactive)
REMARK    1  A    between atoms: N_3  and  S_1 
REMARK    2  A    between atoms: C_4  and  S_1 
REMARK    3  A    between atoms: C_2  and  N_3 
REMARK    4  A    between atoms: O_18  and  C_13 
ROOT
ATOM      1  S   UNL d   1      -3.156   0.193   0.000  0.00  0.00     0.285 S 
ATOM      2  O   UNL d   1      -2.727   0.938   0.000  0.00  0.00    -0.198 OA
ATOM      3  O   UNL d   1      -3.571  -0.548   0.000  0.00  0.00    -0.198 OA
ENDROOT
BRANCH   1   4
ATOM      4  N   UNL d   1      -3.877   0.602   0.000  0.00  0.00    -0.157 NA
BRANCH   4   5
ATOM      5  C   UNL d   1      -3.877   1.451   0.000  0.00  0.00     0.113 A 
ATOM      6  C   UNL d   1      -3.156   1.850   0.000  0.00  0.00     0.100 A 
ATOM      7  C   UNL d   1      -3.156   2.675   0.000  0.00  0.00     0.021 A 
ATOM      8  N   UNL d   1      -2.444   1.451   0.000  0.00  0.00    -0.242 NA
ATOM      9  C   UNL d   1      -2.444   3.084   0.000  0.00  0.00     0.003 A 
ATOM     10  C   UNL d   1      -3.877   3.084   0.000  0.00  0.00     0.026 A 
ATOM     11  C   UNL d   1      -1.729   2.675   0.000  0.00  0.00     0.021 A 
ATOM     12  C   UNL d   1      -1.729   1.850   0.000  0.00  0.00     0.099 A 
ATOM     13  C   UNL d   1      -4.594   2.675   0.000  0.00  0.00     0.096 A 
ATOM     14  C   UNL d   1      -4.594   1.850   0.000  0.00  0.00     0.046 A 
BRANCH  13  15
ATOM     15  O   UNL d   1      -5.330   3.062   0.000  0.00  0.00    -0.328 OA
ATOM     16  C   UNL d   1      -6.035   2.619   0.000  0.00  0.00     0.181 C 
ENDBRANCH  13  15
ENDBRANCH   4   5
ENDBRANCH   1   4
BRANCH   1  17
ATOM     17  C   UNL d   1      -2.420  -0.237   0.000  0.00  0.00     0.105 A 
ATOM     18  C   UNL d   1      -2.420  -1.058   0.000  0.00  0.00     0.013 A 
ATOM     19  C   UNL d   1      -1.705  -1.468   0.000  0.00  0.00     0.001 A 
ATOM     20  C   UNL d   1      -1.705  -2.284   0.000  0.00  0.00     0.000 A 
ATOM     21  C   UNL d   1      -0.986  -1.058   0.000  0.00  0.00     0.000 A 
ATOM     22  C   UNL d   1      -0.986  -2.689   0.000  0.00  0.00     0.000 A 
ATOM     23  C   UNL d   1      -0.272  -2.284   0.000  0.00  0.00     0.000 A 
ATOM     24  C   UNL d   1      -0.272  -1.468   0.000  0.00  0.00     0.000 A 
ATOM     25  C   UNL d   1      -0.986  -0.212   0.000  0.00  0.00     0.001 A 
ATOM     26  C   UNL d   1      -1.705   0.193   0.000  0.00  0.00     0.013 A 
ENDBRANCH   1  17
TORSDOF 4
