REMARK  5 active torsions:
REMARK  status: ('A' for Active; 'I' for Inactive)
REMARK       I    between atoms: C_2  and  N_6 
REMARK    1  A    between atoms: C_7  and  C_2 
REMARK    2  A    between atoms: N_3  and  C_4 
REMARK    3  A    between atoms: C_12  and  N_5 
REMARK    4  A    between atoms: N_6  and  C_18 
REMARK    5  A    between atoms: O_33  and  C_30 
ROOT
ATOM      1  C   UNL d   1       4.361  -2.569   0.000  0.00  0.00     0.086 A 
ATOM      2  C   UNL d   1       3.652  -2.154   0.000  0.00  0.00     0.074 A 
ATOM      3  C   UNL d   1       4.361  -3.390   0.000  0.00  0.00     0.102 C 
ATOM      4  N   UNL d   1       4.357  -4.212   0.000  0.00  0.00    -0.191 NA
ATOM      5  C   UNL d   1       3.652  -1.332   0.000  0.00  0.00     0.020 A 
ATOM      6  C   UNL d   1       5.083  -2.158   0.000  0.00  0.00     0.031 A 
ATOM      7  C   UNL d   1       5.091  -1.336   0.000  0.00  0.00     0.085 A 
ATOM      8  C   UNL d   1       4.369  -0.913   0.000  0.00  0.00     0.021 A 
ENDROOT
BRANCH   2   9
ATOM      9  N   UNL d   1       2.930  -2.556   0.000  0.00  0.00    -0.301 N 
ATOM     10  C   UNL d   1       2.930  -3.378   0.000  0.00  0.00     0.100 A 
ATOM     11  C   UNL d   1       2.208  -3.788   0.000  0.00  0.00     0.100 A 
ATOM     12  N   UNL d   1       1.498  -3.365   0.000  0.00  0.00    -0.301 N 
ATOM     13  C   UNL d   1       1.506  -2.539   0.000  0.00  0.00     0.100 A 
ATOM     14  C   UNL d   1       2.220  -2.133   0.000  0.00  0.00     0.100 A 
BRANCH  12  15
ATOM     15  C   UNL d   1       0.776  -3.776   0.000  0.00  0.00     0.064 A 
ATOM     16  C   UNL d   1       0.772  -4.598   0.000  0.00  0.00     0.020 A 
ATOM     17  C   UNL d   1       0.054  -5.008   0.000  0.00  0.00     0.026 A 
ATOM     18  C   UNL d   1      -0.668  -4.593   0.000  0.00  0.00     0.094 A 
ATOM     19  C   UNL d   1      -0.668  -3.760   0.000  0.00  0.00     0.026 A 
ATOM     20  C   UNL d   1       0.054  -3.353   0.000  0.00  0.00     0.020 A 
BRANCH  18  21
ATOM     21  O   UNL d   1      -1.390  -4.996   0.000  0.00  0.00    -0.328 OA
ATOM     22  C   UNL d   1      -1.390  -5.818   0.000  0.00  0.00     0.181 C 
ENDBRANCH  18  21
ENDBRANCH  12  15
ENDBRANCH   2   9
BRANCH   7  23
ATOM     23  N   UNL d   1       5.805  -0.925   0.000  0.00  0.00    -0.208 NA
ATOM     24  C   UNL d   1       5.805  -0.104   0.000  0.00  0.00     0.279 C 
ATOM     25  O   UNL d   1       5.096   0.311   0.000  0.00  0.00    -0.265 OA
BRANCH  24  26
ATOM     26  C   UNL d   1       6.523   0.307   0.000  0.00  0.00     0.060 A 
ATOM     27  C   UNL d   1       6.527   1.120   0.000  0.00  0.00     0.031 A 
ATOM     28  C   UNL d   1       7.245   1.527   0.000  0.00  0.00     0.119 A 
ATOM     29  O   UNL d   1       7.423   2.324   0.000  0.00  0.00    -0.300 OA
ATOM     30  C   UNL d   1       7.946   1.108   0.000  0.00  0.00     0.119 A 
ATOM     31  C   UNL d   1       8.241   2.403   0.000  0.00  0.00     0.304 A 
ATOM     32  O   UNL d   1       8.565   1.651   0.000  0.00  0.00    -0.300 OA
ATOM     33  C   UNL d   1       7.946   0.286   0.000  0.00  0.00     0.026 A 
ATOM     34  C   UNL d   1       7.233  -0.116   0.000  0.00  0.00     0.007 A 
ENDBRANCH  24  26
ENDBRANCH   7  23
TORSDOF 5
