REMARK  7 active torsions:
REMARK  status: ('A' for Active; 'I' for Inactive)
REMARK    1  A    between atoms: N_9  and  C_2 
REMARK    2  A    between atoms: C_8  and  C_14 
REMARK    3  A    between atoms: C_15  and  N_9 
REMARK    4  A    between atoms: C_14  and  C_16 
REMARK    5  A    between atoms: C_17  and  C_15 
REMARK    6  A    between atoms: C_16  and  C_18 
REMARK    7  A    between atoms: C_18  and  C_17 
ROOT
ATOM      1  N   UNL d   1       7.107  -3.561   0.000  0.00  0.00    -0.198 NA
ATOM      2  C   UNL d   1       6.390  -3.148   0.000  0.00  0.00     0.166 A 
ATOM      3  C   UNL d   1       7.107  -4.386   0.000  0.00  0.00     0.222 A 
ATOM      4  C   UNL d   1       5.676  -3.561   0.000  0.00  0.00     0.054 A 
ATOM      5  N   UNL d   1       6.390  -4.798   0.000  0.00  0.00    -0.217 NA
ATOM      6  C   UNL d   1       5.676  -4.386   0.000  0.00  0.00     0.087 A 
ATOM      7  S   UNL d   1       7.818  -4.805   0.000  0.00  0.00    -0.037 SA
ATOM      8  C   UNL d   1       4.967  -3.148   0.000  0.00  0.00     0.005 A 
ATOM      9  C   UNL d   1       4.967  -4.798   0.000  0.00  0.00     0.019 A 
ATOM     10  C   UNL d   1       4.248  -3.561   0.000  0.00  0.00     0.000 A 
ATOM     11  C   UNL d   1       4.248  -4.386   0.000  0.00  0.00     0.002 A 
ENDROOT
BRANCH   2  12
ATOM     12  N   UNL d   1       6.390  -2.325   0.000  0.00  0.00    -0.225 NA
BRANCH  12  13
ATOM     13  C   UNL d   1       7.107  -1.920   0.000  0.00  0.00     0.101 C 
BRANCH  13  14
ATOM     14  C   UNL d   1       7.107  -1.095   0.000  0.00  0.00     0.021 C 
BRANCH  14  15
ATOM     15  C   UNL d   1       7.825  -0.683   0.000  0.00  0.00     0.002 C 
BRANCH  15  16
ATOM     16  C   UNL d   1       7.825   0.138   0.000  0.00  0.00     0.006 C 
BRANCH  16  17
ATOM     17  C   UNL d   1       8.542   0.548   0.000  0.00  0.00     0.070 C 
BRANCH  17  18
ATOM     18  C   UNL d   1       8.542   1.373   0.000  0.00  0.00     0.211 C 
ATOM     19  O   UNL d   1       7.830   1.788   0.000  0.00  0.00    -0.644 OA
ATOM     20  O   UNL d   1       9.263   1.785   0.000  0.00  0.00    -0.644 OA
ENDBRANCH  17  18
ENDBRANCH  16  17
ENDBRANCH  15  16
ENDBRANCH  14  15
ENDBRANCH  13  14
ENDBRANCH  12  13
ENDBRANCH   2  12
TORSDOF 7
