REMARK  9 active torsions:
REMARK  status: ('A' for Active; 'I' for Inactive)
REMARK    1  A    between atoms: N_7  and  N_1 
REMARK    2  A    between atoms: S_9  and  C_2 
REMARK       I    between atoms: C_8  and  N_7 
REMARK    3  A    between atoms: C_15  and  C_8 
REMARK    4  A    between atoms: C_14  and  S_9 
REMARK    5  A    between atoms: C_11  and  C_14 
REMARK       I    between atoms: N_16  and  C_11 
REMARK    6  A    between atoms: C_18  and  C_15 
REMARK    7  A    between atoms: C_19  and  N_16 
REMARK    8  A    between atoms: C_22  and  C_19 
REMARK    9  A    between atoms: C_21  and  C_22 
ROOT
ATOM      1  N   UNL d   1       5.440  -3.366   0.000  0.00  0.00    -0.168 N 
ATOM      2  C   UNL d   1       5.440  -4.183   0.000  0.00  0.00     0.199 A 
ATOM      3  C   UNL d   1       4.723  -2.954   0.000  0.00  0.00     0.283 A 
ATOM      4  N   UNL d   1       4.717  -4.618   0.000  0.00  0.00    -0.221 NA
ATOM      5  C   UNL d   1       3.994  -3.384   0.000  0.00  0.00     0.076 A 
ATOM      6  C   UNL d   1       3.994  -4.209   0.000  0.00  0.00     0.088 A 
ATOM      7  O   UNL d   1       4.717  -2.126   0.000  0.00  0.00    -0.265 OA
ATOM      8  C   UNL d   1       3.279  -2.957   0.000  0.00  0.00     0.006 A 
ATOM      9  C   UNL d   1       3.279  -4.618   0.000  0.00  0.00     0.019 A 
ATOM     10  C   UNL d   1       2.565  -3.384   0.000  0.00  0.00     0.000 A 
ATOM     11  C   UNL d   1       2.565  -4.209   0.000  0.00  0.00     0.002 A 
ENDROOT
BRANCH   2  12
ATOM     12  S   UNL d   1       6.146  -4.595   0.000  0.00  0.00    -0.043 SA
BRANCH  12  13
ATOM     13  C   UNL d   1       6.146  -5.423   0.000  0.00  0.00     0.101 C 
BRANCH  13  14
ATOM     14  C   UNL d   1       6.861  -5.832   0.000  0.00  0.00     0.286 C 
ATOM     15  O   UNL d   1       6.861  -6.660   0.000  0.00  0.00    -0.265 OA
ATOM     16  N   UNL d   1       7.575  -5.423   0.000  0.00  0.00    -0.206 NA
BRANCH  16  17
ATOM     17  C   UNL d   1       8.290  -5.832   0.000  0.00  0.00     0.102 C 
BRANCH  17  18
ATOM     18  C   UNL d   1       9.004  -5.423   0.000  0.00  0.00     0.021 C 
BRANCH  18  19
ATOM     19  C   UNL d   1       9.716  -5.832   0.000  0.00  0.00     0.002 A 
ATOM     20  C   UNL d   1       9.716  -6.660   0.000  0.00  0.00     0.000 A 
ATOM     21  C   UNL d   1      10.439  -7.070   0.000  0.00  0.00     0.000 A 
ATOM     22  C   UNL d   1      11.153  -6.657   0.000  0.00  0.00     0.000 A 
ATOM     23  C   UNL d   1      11.145  -5.824   0.000  0.00  0.00     0.000 A 
ATOM     24  C   UNL d   1      10.430  -5.420   0.000  0.00  0.00     0.000 A 
ENDBRANCH  18  19
ENDBRANCH  17  18
ENDBRANCH  16  17
ENDBRANCH  13  14
ENDBRANCH  12  13
ENDBRANCH   2  12
BRANCH   1  25
ATOM     25  N   UNL d   1       6.146  -2.957   0.000  0.00  0.00    -0.119 NA
ATOM     26  C   UNL d   1       6.861  -3.366   0.000  0.00  0.00     0.296 C 
ATOM     27  O   UNL d   1       6.875  -4.191   0.000  0.00  0.00    -0.264 OA
BRANCH  26  28
ATOM     28  C   UNL d   1       7.575  -2.945   0.000  0.00  0.00     0.064 C 
BRANCH  28  29
ATOM     29  C   UNL d   1       7.564  -2.126   0.000  0.00  0.00     0.005 A 
ATOM     30  C   UNL d   1       6.849  -1.725   0.000  0.00  0.00     0.000 A 
ATOM     31  C   UNL d   1       6.835  -0.900   0.000  0.00  0.00     0.000 A 
ATOM     32  C   UNL d   1       7.549  -0.479   0.000  0.00  0.00     0.000 A 
ATOM     33  C   UNL d   1       8.264  -0.880   0.000  0.00  0.00     0.000 A 
ATOM     34  C   UNL d   1       8.278  -1.702   0.000  0.00  0.00     0.000 A 
ENDBRANCH  28  29
ENDBRANCH  26  28
ENDBRANCH   1  25
TORSDOF 9
