REMARK  5 active torsions:
REMARK  status: ('A' for Active; 'I' for Inactive)
REMARK    1  A    between atoms: N_2  and  C_1 
REMARK    2  A    between atoms: C_6  and  C_1 
REMARK    3  A    between atoms: O_4  and  N_2 
REMARK    4  A    between atoms: C_3  and  O_4 
REMARK    5  A    between atoms: C_5  and  C_3 
ROOT
ATOM      1  O   UNL d   1       7.005  -2.015   0.000  0.00  0.00    -0.168 OA
ENDROOT
BRANCH   1   2
ATOM      2  C   UNL d   1       6.213  -2.464   0.000  0.00  0.00     0.319 C 
ATOM      3  O   UNL d   1       6.196  -3.361   0.000  0.00  0.00    -0.257 OA
BRANCH   2   4
ATOM      4  C   UNL d   1       5.500  -2.042   0.000  0.00  0.00     0.066 A 
ATOM      5  C   UNL d   1       4.784  -2.464   0.000  0.00  0.00     0.012 A 
ATOM      6  C   UNL d   1       4.074  -2.031   0.000  0.00  0.00     0.035 A 
ATOM      7 BR   UNL d   1       3.361  -2.453   0.000  0.00  0.00    -0.049 Br
ATOM      8  C   UNL d   1       4.074  -1.208   0.000  0.00  0.00     0.007 A 
ATOM      9  C   UNL d   1       4.801  -0.820   0.000  0.00  0.00     0.001 A 
ATOM     10  C   UNL d   1       5.500  -1.222   0.000  0.00  0.00     0.005 A 
ENDBRANCH   2   4
ENDBRANCH   1   2
BRANCH   1  11
ATOM     11  N   UNL d   1       7.715  -2.414   0.000  0.00  0.00    -0.100 NA
BRANCH  11  12
ATOM     12  C   UNL d   1       8.431  -2.015   0.000  0.00  0.00     0.228 C 
ATOM     13  N   UNL d   1       8.431  -1.192   0.000  0.00  0.00    -0.123 N 
BRANCH  12  14
ATOM     14  C   UNL d   1       9.144  -2.414   0.000  0.00  0.00     0.121 A 
ATOM     15  N   UNL d   1       9.846  -2.001   0.000  0.00  0.00    -0.241 NA
ATOM     16  C   UNL d   1      10.570  -2.414   0.000  0.00  0.00     0.099 A 
ATOM     17  C   UNL d   1      10.570  -3.240   0.000  0.00  0.00     0.021 A 
ATOM     18  C   UNL d   1       9.854  -3.658   0.000  0.00  0.00     0.003 A 
ATOM     19  C   UNL d   1       9.144  -3.240   0.000  0.00  0.00     0.022 A 
ENDBRANCH  12  14
ENDBRANCH  11  12
ENDBRANCH   1  11
TORSDOF 5
