REMARK  2 active torsions:
REMARK  status: ('A' for Active; 'I' for Inactive)
REMARK    1  A    between atoms: O_3  and  C_1 
REMARK    2  A    between atoms: C_2  and  O_3 
REMARK       I    between atoms: N_7  and  C_2 
ROOT
ATOM      1  C   UNL d   1      -0.278   0.842   0.000  0.00  0.00     0.129 A 
ATOM      2  C   UNL d   1      -0.704   0.135   0.000  0.00  0.00     0.105 A 
ATOM      3  C   UNL d   1      -1.521   0.135   0.000  0.00  0.00     0.026 A 
ATOM      4  C   UNL d   1      -0.704   1.559   0.000  0.00  0.00     0.059 A 
ATOM      5  C   UNL d   1      -1.931   0.842   0.000  0.00  0.00     0.037 A 
ATOM      6  C   UNL d   1      -1.510   1.559   0.000  0.00  0.00     0.015 A 
ATOM      7  N   UNL d   1      -0.284  -0.582   0.000  0.00  0.00    -0.242 NA
ATOM      8 BR   UNL d   1      -0.318   2.283   0.000  0.00  0.00    -0.047 Br
ATOM      9 BR   UNL d   1      -2.772   0.842   0.000  0.00  0.00    -0.049 Br
ATOM     10  C   UNL d   1      -1.931  -0.573   0.000  0.00  0.00     0.004 A 
ATOM     11  C   UNL d   1      -0.696  -1.297   0.000  0.00  0.00     0.099 A 
ATOM     12  C   UNL d   1      -1.521  -1.297   0.000  0.00  0.00     0.021 A 
ENDROOT
BRANCH   1  13
ATOM     13  O   UNL d   1       0.549   0.842   0.000  0.00  0.00    -0.257 OA
BRANCH  13  14
ATOM     14  C   UNL d   1       0.933   0.148   0.000  0.00  0.00     0.378 C 
ATOM     15  N   UNL d   1       1.794   0.148   0.000  0.00  0.00    -0.252 N 
ATOM     16  C   UNL d   1       2.205   0.842   0.000  0.00  0.00     0.085 A 
ATOM     17  C   UNL d   1       2.205  -0.582   0.000  0.00  0.00     0.085 A 
ATOM     18  C   UNL d   1       3.038   0.842   0.000  0.00  0.00     0.019 A 
ATOM     19  C   UNL d   1       3.457   0.148   0.000  0.00  0.00     0.003 A 
ATOM     20  C   UNL d   1       3.019  -0.582   0.000  0.00  0.00     0.019 A 
ATOM     21  O   UNL d   1       0.527  -0.549   0.000  0.00  0.00    -0.237 OA
ENDBRANCH  13  14
ENDBRANCH   1  13
TORSDOF 2
