REMARK  2 active torsions:
REMARK  status: ('A' for Active; 'I' for Inactive)
REMARK       I    between atoms: C_2  and  N_1 
REMARK       I    between atoms: N_8  and  C_2 
REMARK    1  A    between atoms: C_15  and  N_8 
REMARK    2  A    between atoms: C_9  and  C_15 
ROOT
ATOM      1  N   UNL d   1       5.750  -2.553   0.000  0.00  0.00    -0.258 N 
ATOM      2  C   UNL d   1       6.468  -2.962   0.000  0.00  0.00     0.354 C 
ATOM      3  S   UNL d   1       4.329  -1.702   0.000  0.00  0.00    -0.084 SA
ATOM      4  C   UNL d   1       5.758  -1.720   0.000  0.00  0.00     0.074 A 
ATOM      5  C   UNL d   1       5.044  -2.962   0.000  0.00  0.00     0.074 A 
ATOM      6  C   UNL d   1       5.044  -1.291   0.000  0.00  0.00     0.046 A 
ATOM      7  C   UNL d   1       4.329  -2.533   0.000  0.00  0.00     0.046 A 
ATOM      8  N   UNL d   1       7.254  -2.501   0.000  0.00  0.00    -0.189 NA
ATOM      9  O   UNL d   1       6.453  -3.868   0.000  0.00  0.00    -0.244 OA
ATOM     10  C   UNL d   1       5.037  -3.779   0.000  0.00  0.00     0.018 A 
ATOM     11  C   UNL d   1       6.468  -1.315   0.000  0.00  0.00     0.018 A 
ATOM     12  C   UNL d   1       5.055  -0.476   0.000  0.00  0.00     0.008 A 
ATOM     13  C   UNL d   1       3.615  -2.939   0.000  0.00  0.00     0.008 A 
ATOM     14  C   UNL d   1       6.476  -0.495   0.000  0.00  0.00     0.002 A 
ATOM     15  C   UNL d   1       4.321  -4.188   0.000  0.00  0.00     0.002 A 
ATOM     16  C   UNL d   1       3.602  -3.766   0.000  0.00  0.00     0.001 A 
ATOM     17  C   UNL d   1       5.758  -0.065   0.000  0.00  0.00     0.001 A 
ENDROOT
BRANCH   8  18
ATOM     18  C   UNL d   1       7.968  -2.913   0.000  0.00  0.00     0.128 C 
BRANCH  18  19
ATOM     19  C   UNL d   1       8.686  -2.501   0.000  0.00  0.00     0.119 A 
ATOM     20  O   UNL d   1       9.441  -2.837   0.000  0.00  0.00    -0.304 OA
ATOM     21  C   UNL d   1       9.995  -2.225   0.000  0.00  0.00     0.123 A 
ATOM     22  C   UNL d   1       9.584  -1.510   0.000  0.00  0.00     0.029 A 
ATOM     23  C   UNL d   1       8.777  -1.681   0.000  0.00  0.00     0.028 A 
ENDBRANCH  18  19
ENDBRANCH   8  18
TORSDOF 2
