REMARK  9 active torsions:
REMARK  status: ('A' for Active; 'I' for Inactive)
REMARK    1  A    between atoms: C_12  and  N_1 
REMARK    2  A    between atoms: S_7  and  C_2 
REMARK    3  A    between atoms: C_15  and  S_7 
REMARK    4  A    between atoms: C_9  and  C_15 
REMARK    5  A    between atoms: O_14  and  C_9 
REMARK       I    between atoms: C_10  and  N_16 
REMARK    6  A    between atoms: C_19  and  C_12 
REMARK    7  A    between atoms: C_18  and  O_14 
REMARK    8  A    between atoms: N_16  and  C_19 
REMARK    9  A    between atoms: C_20  and  C_18 
ROOT
ATOM      1  N   UNL d   1       4.766  -2.422   0.000  0.00  0.00    -0.251 N 
ATOM      2  C   UNL d   1       4.766  -3.247   0.000  0.00  0.00     0.182 A 
ATOM      3  C   UNL d   1       4.048  -2.002   0.000  0.00  0.00     0.268 A 
ATOM      4  N   UNL d   1       4.048  -3.664   0.000  0.00  0.00    -0.222 NA
ATOM      5  C   UNL d   1       3.331  -2.422   0.000  0.00  0.00     0.074 A 
ATOM      6  C   UNL d   1       3.331  -3.247   0.000  0.00  0.00     0.088 A 
ATOM      7  O   UNL d   1       4.048  -1.168   0.000  0.00  0.00    -0.267 OA
ATOM      8  C   UNL d   1       2.611  -2.002   0.000  0.00  0.00     0.006 A 
ATOM      9  C   UNL d   1       2.611  -3.664   0.000  0.00  0.00     0.019 A 
ATOM     10  C   UNL d   1       1.893  -2.422   0.000  0.00  0.00     0.000 A 
ATOM     11  C   UNL d   1       1.893  -3.247   0.000  0.00  0.00     0.002 A 
ENDROOT
BRANCH   2  12
ATOM     12  S   UNL d   1       5.491  -3.674   0.000  0.00  0.00    -0.044 SA
BRANCH  12  13
ATOM     13  C   UNL d   1       5.491  -4.514   0.000  0.00  0.00     0.107 C 
BRANCH  13  14
ATOM     14  C   UNL d   1       6.206  -4.926   0.000  0.00  0.00     0.307 C 
ATOM     15  O   UNL d   1       6.208  -5.750   0.000  0.00  0.00    -0.258 OA
BRANCH  14  16
ATOM     16  O   UNL d   1       6.923  -4.504   0.000  0.00  0.00    -0.271 OA
BRANCH  16  17
ATOM     17  C   UNL d   1       7.636  -4.918   0.000  0.00  0.00     0.126 C 
BRANCH  17  18
ATOM     18  C   UNL d   1       8.346  -4.504   0.000  0.00  0.00     0.025 A 
ATOM     19  C   UNL d   1       9.063  -4.911   0.000  0.00  0.00     0.002 A 
ATOM     20  C   UNL d   1       9.771  -4.499   0.000  0.00  0.00     0.000 A 
ATOM     21  C   UNL d   1       9.771  -3.674   0.000  0.00  0.00     0.000 A 
ATOM     22  C   UNL d   1       9.048  -3.262   0.000  0.00  0.00     0.000 A 
ATOM     23  C   UNL d   1       8.338  -3.682   0.000  0.00  0.00     0.002 A 
ENDBRANCH  17  18
ENDBRANCH  16  17
ENDBRANCH  14  16
ENDBRANCH  13  14
ENDBRANCH  12  13
ENDBRANCH   2  12
BRANCH   1  24
ATOM     24  C   UNL d   1       5.491  -2.002   0.000  0.00  0.00     0.106 C 
BRANCH  24  25
ATOM     25  C   UNL d   1       5.504  -1.178   0.000  0.00  0.00     0.121 C 
BRANCH  25  26
ATOM     26  N   UNL d   1       6.221  -0.756   0.000  0.00  0.00    -0.205 NA
ATOM     27  C   UNL d   1       6.221   0.074   0.000  0.00  0.00     0.280 C 
ATOM     28  O   UNL d   1       5.506   0.486   0.000  0.00  0.00    -0.265 OA
ATOM     29  C   UNL d   1       6.934   0.486   0.000  0.00  0.00     0.068 C 
ENDBRANCH  25  26
ENDBRANCH  24  25
ENDBRANCH   1  24
TORSDOF 9
