REMARK  2 active torsions:
REMARK  status: ('A' for Active; 'I' for Inactive)
REMARK    1  A    between atoms: C_11  and  N_1 
REMARK    2  A    between atoms: C_15  and  C_11 
ROOT
ATOM      1  N   UNL d   1       2.590  -2.088   0.000  0.00  0.00    -0.244 N 
ATOM      2  C   UNL d   1       2.100  -1.421   0.000  0.00  0.00     0.246 A 
ATOM      3  C   UNL d   1       1.310  -1.674   0.000  0.00  0.00     0.095 A 
ATOM      4  C   UNL d   1       2.100  -2.763   0.000  0.00  0.00     0.260 A 
ATOM      5  C   UNL d   1       1.310  -2.507   0.000  0.00  0.00     0.024 A 
ATOM      6  C   UNL d   1       0.600  -1.264   0.000  0.00  0.00     0.034 A 
ATOM      7  C   UNL d   1       0.600  -2.917   0.000  0.00  0.00     0.045 A 
ATOM      8  C   UNL d   1      -0.111  -1.674   0.000  0.00  0.00    -0.030 A 
ATOM      9  C   UNL d   1      -0.111  -2.499   0.000  0.00  0.00    -0.027 A 
ATOM     10  C   UNL d   1       0.813  -2.064   0.000  0.00  0.00     0.014 A 
ATOM     11  O   UNL d   1       2.353  -0.628   0.000  0.00  0.00    -0.271 OA
ATOM     12  O   UNL d   1       2.353  -3.553   0.000  0.00  0.00    -0.267 OA
ATOM     13  C   UNL d   1       1.528  -0.872   0.000  0.00  0.00     0.014 C 
ENDROOT
BRANCH   1  14
ATOM     14  C   UNL d   1       3.414  -2.084   0.000  0.00  0.00     0.086 C 
BRANCH  14  15
ATOM     15  C   UNL d   1       3.825  -2.795   0.000  0.00  0.00     0.018 A 
ATOM     16  C   UNL d   1       4.642  -2.795   0.000  0.00  0.00     0.002 A 
ATOM     17  C   UNL d   1       5.053  -3.505   0.000  0.00  0.00     0.000 A 
ATOM     18  C   UNL d   1       4.638  -4.224   0.000  0.00  0.00     0.000 A 
ATOM     19  C   UNL d   1       3.813  -4.220   0.000  0.00  0.00     0.000 A 
ATOM     20  C   UNL d   1       3.410  -3.505   0.000  0.00  0.00     0.002 A 
ENDBRANCH  14  15
ENDBRANCH   1  14
TORSDOF 2
