REMARK  8 active torsions:
REMARK  status: ('A' for Active; 'I' for Inactive)
REMARK    1  A    between atoms: N_7  and  N_1 
REMARK    2  A    between atoms: S_9  and  C_2 
REMARK       I    between atoms: C_8  and  N_7 
REMARK    3  A    between atoms: C_21  and  C_8 
REMARK    4  A    between atoms: C_20  and  S_9 
REMARK    5  A    between atoms: C_10  and  C_20 
REMARK       I    between atoms: N_14  and  C_10 
REMARK    6  A    between atoms: C_12  and  C_22 
REMARK    7  A    between atoms: C_22  and  N_14 
REMARK    8  A    between atoms: C_24  and  C_21 
ROOT
ATOM      1  N   UNL d   1       5.436  -1.783   0.000  0.00  0.00    -0.168 N 
ATOM      2  C   UNL d   1       5.436  -2.601   0.000  0.00  0.00     0.199 A 
ATOM      3  C   UNL d   1       4.711  -1.364   0.000  0.00  0.00     0.283 A 
ATOM      4  N   UNL d   1       4.711  -3.027   0.000  0.00  0.00    -0.221 NA
ATOM      5  C   UNL d   1       3.988  -1.796   0.000  0.00  0.00     0.076 A 
ATOM      6  C   UNL d   1       3.997  -2.622   0.000  0.00  0.00     0.088 A 
ATOM      7  O   UNL d   1       4.711  -0.538   0.000  0.00  0.00    -0.265 OA
ATOM      8  C   UNL d   1       3.274  -1.377   0.000  0.00  0.00     0.006 A 
ATOM      9  C   UNL d   1       3.274  -3.027   0.000  0.00  0.00     0.019 A 
ATOM     10  C   UNL d   1       2.564  -1.796   0.000  0.00  0.00     0.000 A 
ATOM     11  C   UNL d   1       2.564  -2.622   0.000  0.00  0.00     0.002 A 
ENDROOT
BRANCH   2  12
ATOM     12  S   UNL d   1       6.133  -3.010   0.000  0.00  0.00    -0.043 SA
BRANCH  12  13
ATOM     13  C   UNL d   1       6.133  -3.833   0.000  0.00  0.00     0.101 C 
BRANCH  13  14
ATOM     14  C   UNL d   1       6.847  -4.246   0.000  0.00  0.00     0.286 C 
ATOM     15  N   UNL d   1       6.847  -5.068   0.000  0.00  0.00    -0.204 NA
ATOM     16  O   UNL d   1       7.566  -3.833   0.000  0.00  0.00    -0.265 OA
BRANCH  15  17
ATOM     17  C   UNL d   1       7.566  -5.475   0.000  0.00  0.00     0.127 C 
BRANCH  17  18
ATOM     18  C   UNL d   1       7.559  -6.307   0.000  0.00  0.00     0.119 A 
ATOM     19  O   UNL d   1       6.894  -6.785   0.000  0.00  0.00    -0.304 OA
ATOM     20  C   UNL d   1       7.144  -7.572   0.000  0.00  0.00     0.123 A 
ATOM     21  C   UNL d   1       7.972  -7.579   0.000  0.00  0.00     0.029 A 
ATOM     22  C   UNL d   1       8.230  -6.791   0.000  0.00  0.00     0.028 A 
ENDBRANCH  17  18
ENDBRANCH  15  17
ENDBRANCH  13  14
ENDBRANCH  12  13
ENDBRANCH   2  12
BRANCH   1  23
ATOM     23  N   UNL d   1       6.133  -1.370   0.000  0.00  0.00    -0.119 NA
ATOM     24  C   UNL d   1       6.856  -1.777   0.000  0.00  0.00     0.296 C 
ATOM     25  O   UNL d   1       6.860  -2.601   0.000  0.00  0.00    -0.264 OA
BRANCH  24  26
ATOM     26  C   UNL d   1       7.566  -1.357   0.000  0.00  0.00     0.064 C 
BRANCH  26  27
ATOM     27  C   UNL d   1       7.553  -0.538   0.000  0.00  0.00     0.005 A 
ATOM     28  C   UNL d   1       8.261  -0.129   0.000  0.00  0.00     0.000 A 
ATOM     29  C   UNL d   1       8.248   0.697   0.000  0.00  0.00     0.000 A 
ATOM     30  C   UNL d   1       7.533   1.097   0.000  0.00  0.00     0.000 A 
ATOM     31  C   UNL d   1       6.830   0.671   0.000  0.00  0.00     0.000 A 
ATOM     32  C   UNL d   1       6.843  -0.138   0.000  0.00  0.00     0.000 A 
ENDBRANCH  26  27
ENDBRANCH  24  26
ENDBRANCH   1  23
TORSDOF 8
