REMARK  8 active torsions:
REMARK  status: ('A' for Active; 'I' for Inactive)
REMARK    1  A    between atoms: N_7  and  N_1 
REMARK    2  A    between atoms: S_9  and  C_2 
REMARK       I    between atoms: C_8  and  N_7 
REMARK    3  A    between atoms: C_16  and  C_8 
REMARK    4  A    between atoms: C_15  and  S_9 
REMARK    5  A    between atoms: C_10  and  C_15 
REMARK       I    between atoms: N_12  and  C_10 
REMARK    6  A    between atoms: C_17  and  N_12 
REMARK    7  A    between atoms: C_19  and  C_16 
REMARK    8  A    between atoms: C_20  and  C_17 
ROOT
ATOM      1  N   UNL d   1       5.415  -3.354   0.000  0.00  0.00    -0.168 N 
ATOM      2  C   UNL d   1       5.415  -4.163   0.000  0.00  0.00     0.199 A 
ATOM      3  C   UNL d   1       4.699  -2.938   0.000  0.00  0.00     0.283 A 
ATOM      4  N   UNL d   1       4.693  -4.593   0.000  0.00  0.00    -0.221 NA
ATOM      5  C   UNL d   1       3.976  -3.362   0.000  0.00  0.00     0.076 A 
ATOM      6  C   UNL d   1       3.976  -4.187   0.000  0.00  0.00     0.088 A 
ATOM      7  O   UNL d   1       4.693  -2.113   0.000  0.00  0.00    -0.265 OA
ATOM      8  C   UNL d   1       3.262  -2.940   0.000  0.00  0.00     0.006 A 
ATOM      9  C   UNL d   1       3.265  -4.593   0.000  0.00  0.00     0.019 A 
ATOM     10  C   UNL d   1       2.551  -3.362   0.000  0.00  0.00     0.000 A 
ATOM     11  C   UNL d   1       2.551  -4.187   0.000  0.00  0.00     0.002 A 
ENDROOT
BRANCH   2  12
ATOM     12  S   UNL d   1       6.119  -4.572   0.000  0.00  0.00    -0.043 SA
BRANCH  12  13
ATOM     13  C   UNL d   1       6.119  -5.396   0.000  0.00  0.00     0.101 C 
BRANCH  13  14
ATOM     14  C   UNL d   1       6.827  -5.805   0.000  0.00  0.00     0.286 C 
ATOM     15  N   UNL d   1       7.539  -5.396   0.000  0.00  0.00    -0.206 NA
ATOM     16  O   UNL d   1       6.827  -6.630   0.000  0.00  0.00    -0.265 OA
BRANCH  15  17
ATOM     17  C   UNL d   1       8.248  -5.805   0.000  0.00  0.00     0.102 C 
BRANCH  17  18
ATOM     18  C   UNL d   1       8.959  -5.396   0.000  0.00  0.00     0.019 A 
ATOM     19  C   UNL d   1       9.676  -5.805   0.000  0.00  0.00     0.002 A 
ATOM     20  C   UNL d   1      10.387  -5.396   0.000  0.00  0.00     0.000 A 
ATOM     21  C   UNL d   1      10.387  -4.572   0.000  0.00  0.00     0.000 A 
ATOM     22  C   UNL d   1       9.668  -4.163   0.000  0.00  0.00     0.000 A 
ATOM     23  C   UNL d   1       8.959  -4.572   0.000  0.00  0.00     0.002 A 
ENDBRANCH  17  18
ENDBRANCH  15  17
ENDBRANCH  13  14
ENDBRANCH  12  13
ENDBRANCH   2  12
BRANCH   1  24
ATOM     24  N   UNL d   1       6.119  -2.940   0.000  0.00  0.00    -0.119 NA
ATOM     25  C   UNL d   1       6.827  -3.346   0.000  0.00  0.00     0.296 C 
ATOM     26  O   UNL d   1       6.841  -4.171   0.000  0.00  0.00    -0.264 OA
BRANCH  25  27
ATOM     27  C   UNL d   1       7.539  -2.924   0.000  0.00  0.00     0.064 C 
BRANCH  27  28
ATOM     28  C   UNL d   1       7.525  -2.113   0.000  0.00  0.00     0.005 A 
ATOM     29  C   UNL d   1       8.237  -1.696   0.000  0.00  0.00     0.000 A 
ATOM     30  C   UNL d   1       8.223  -0.871   0.000  0.00  0.00     0.000 A 
ATOM     31  C   UNL d   1       7.514  -0.473   0.000  0.00  0.00     0.000 A 
ATOM     32  C   UNL d   1       6.803  -0.901   0.000  0.00  0.00     0.000 A 
ATOM     33  C   UNL d   1       6.817  -1.715   0.000  0.00  0.00     0.000 A 
ENDBRANCH  27  28
ENDBRANCH  25  27
ENDBRANCH   1  24
TORSDOF 8
