REMARK  6 active torsions:
REMARK  status: ('A' for Active; 'I' for Inactive)
REMARK    1  A    between atoms: C_2  and  C_1 
REMARK    2  A    between atoms: N_13  and  C_8 
REMARK    3  A    between atoms: C_12  and  C_20 
REMARK    4  A    between atoms: C_20  and  N_13 
REMARK    5  A    between atoms: O_21  and  C_16 
REMARK    6  A    between atoms: C_25  and  O_21 
ROOT
ATOM      1  C   UNL d   1       4.919  -3.878   0.000  0.00  0.00     0.089 A 
ATOM      2  C   UNL d   1       4.919  -4.702   0.000  0.00  0.00     0.302 A 
ATOM      3  O   UNL d   1       4.198  -5.119   0.000  0.00  0.00    -0.271 OA
ATOM      4  C   UNL d   1       4.198  -3.467   0.000  0.00  0.00     0.009 A 
ATOM      5  C   UNL d   1       3.486  -4.702   0.000  0.00  0.00     0.126 A 
ATOM      6  C   UNL d   1       3.486  -3.878   0.000  0.00  0.00     0.025 A 
ATOM      7  O   UNL d   1       5.639  -5.132   0.000  0.00  0.00    -0.259 OA
ATOM      8  C   UNL d   1       2.773  -5.119   0.000  0.00  0.00     0.123 A 
ATOM      9  C   UNL d   1       2.773  -3.467   0.000  0.00  0.00     0.002 A 
ATOM     10  C   UNL d   1       2.052  -3.886   0.000  0.00  0.00     0.002 A 
ATOM     11  C   UNL d   1       2.052  -4.702   0.000  0.00  0.00     0.027 A 
ENDROOT
BRANCH   1  12
ATOM     12  C   UNL d   1       5.631  -3.467   0.000  0.00  0.00     0.140 A 
ATOM     13  S   UNL d   1       6.408  -3.774   0.000  0.00  0.00    -0.026 SA
ATOM     14  C   UNL d   1       6.934  -3.139   0.000  0.00  0.00     0.216 A 
ATOM     15  N   UNL d   1       6.480  -2.442   0.000  0.00  0.00    -0.121 NA
ATOM     16  N   UNL d   1       5.679  -2.645   0.000  0.00  0.00    -0.139 NA
BRANCH  14  17
ATOM     17  N   UNL d   1       7.758  -3.179   0.000  0.00  0.00    -0.216 NA
BRANCH  17  18
ATOM     18  C   UNL d   1       8.135  -3.918   0.000  0.00  0.00     0.126 C 
BRANCH  18  19
ATOM     19  C   UNL d   1       8.959  -3.963   0.000  0.00  0.00     0.119 A 
ATOM     20  O   UNL d   1       9.482  -4.598   0.000  0.00  0.00    -0.304 OA
ATOM     21  C   UNL d   1      10.248  -4.302   0.000  0.00  0.00     0.123 A 
ATOM     22  C   UNL d   1      10.208  -3.486   0.000  0.00  0.00     0.029 A 
ATOM     23  C   UNL d   1       9.408  -3.267   0.000  0.00  0.00     0.028 A 
ENDBRANCH  18  19
ENDBRANCH  17  18
ENDBRANCH  14  17
ENDBRANCH   1  12
BRANCH   8  24
ATOM     24  O   UNL d   1       2.781  -5.944   0.000  0.00  0.00    -0.303 OA
BRANCH  24  25
ATOM     25  C   UNL d   1       2.060  -6.357   0.000  0.00  0.00     0.123 C 
ATOM     26  C   UNL d   1       2.066  -7.182   0.000  0.00  0.00     0.029 C 
ENDBRANCH  24  25
ENDBRANCH   8  24
TORSDOF 6
