REMARK  6 active torsions:
REMARK  status: ('A' for Active; 'I' for Inactive)
REMARK    1  A    between atoms: C_6  and  C_1 
REMARK    2  A    between atoms: C_8  and  C_4 
REMARK       I    between atoms: N_22  and  C_6 
REMARK    3  A    between atoms: N_9  and  C_23 
REMARK    4  A    between atoms: C_25  and  N_22 
REMARK    5  A    between atoms: C_23  and  C_24 
REMARK    6  A    between atoms: C_24  and  C_25 
ROOT
ATOM      1  C   UNL d   1      -4.077   5.155   0.000  0.00  0.00     0.168 A 
ATOM      2  N   UNL d   1      -4.726   5.647   0.000  0.00  0.00    -0.121 NA
ATOM      3  C   UNL d   1      -3.397   5.633   0.000  0.00  0.00     0.053 A 
ATOM      4  C   UNL d   1      -3.643   6.413   0.000  0.00  0.00     0.127 A 
ATOM      5  O   UNL d   1      -4.466   6.417   0.000  0.00  0.00    -0.211 OA
ENDROOT
BRANCH   1   6
ATOM      6  C   UNL d   1      -4.037   3.538   0.000  0.00  0.00     0.299 C 
ATOM      7  O   UNL d   1      -3.339   3.109   0.000  0.00  0.00    -0.263 OA
ATOM      8  N   UNL d   1      -4.780   3.109   0.000  0.00  0.00    -0.205 NA
BRANCH   8   9
ATOM      9  C   UNL d   1      -4.780   2.240   0.000  0.00  0.00     0.104 C 
BRANCH   9  10
ATOM     10  C   UNL d   1      -5.527   1.818   0.000  0.00  0.00     0.040 C 
BRANCH  10  11
ATOM     11  C   UNL d   1      -6.270   2.247   0.000  0.00  0.00     0.083 C 
BRANCH  11  12
ATOM     12  N   UNL d   1      -7.017   1.825   0.000  0.00  0.00    -0.285 N 
ATOM     13  C   UNL d   1      -7.798   2.177   0.000  0.00  0.00     0.183 A 
ATOM     14  N   UNL d   1      -8.374   1.523   0.000  0.00  0.00    -0.222 NA
ATOM     15  C   UNL d   1      -7.957   0.799   0.000  0.00  0.00     0.120 A 
ATOM     16  C   UNL d   1      -7.109   0.968   0.000  0.00  0.00     0.102 A 
ENDBRANCH  11  12
ENDBRANCH  10  11
ENDBRANCH   9  10
ENDBRANCH   8   9
ENDBRANCH   1   6
BRANCH   4  17
ATOM     17  C   UNL d   1      -3.191   7.080   0.000  0.00  0.00     0.027 A 
ATOM     18  C   UNL d   1      -2.373   7.024   0.000  0.00  0.00     0.028 A 
ATOM     19  C   UNL d   1      -1.926   7.697   0.000  0.00  0.00     0.119 A 
ATOM     20  O   UNL d   1      -1.118   7.809   0.000  0.00  0.00    -0.300 OA
ATOM     21  C   UNL d   1      -2.268   8.435   0.000  0.00  0.00     0.119 A 
ATOM     22  C   UNL d   1      -0.968   8.606   0.000  0.00  0.00     0.304 A 
ATOM     23  O   UNL d   1      -1.680   8.997   0.000  0.00  0.00    -0.300 OA
ATOM     24  C   UNL d   1      -3.090   8.500   0.000  0.00  0.00     0.026 A 
ATOM     25  C   UNL d   1      -3.538   7.833   0.000  0.00  0.00     0.004 A 
ENDBRANCH   4  17
TORSDOF 6
