REMARK  4 active torsions:
REMARK  status: ('A' for Active; 'I' for Inactive)
REMARK    1  A    between atoms: C_3  and  C_1 
REMARK    2  A    between atoms: C_11  and  N_2 
REMARK    3  A    between atoms: C_12  and  C_11 
REMARK       I    between atoms: N_13  and  C_12 
REMARK    4  A    between atoms: C_16  and  N_13 
ROOT
ATOM      1  C   UNL d   1       2.009   1.035   0.000  0.00  0.00     0.171 A 
ATOM      2  N   UNL d   1       1.520   0.365   0.000  0.00  0.00    -0.284 N 
ATOM      3  N   UNL d   1       1.520   1.704   0.000  0.00  0.00    -0.225 NA
ATOM      4  C   UNL d   1       0.739   0.623   0.000  0.00  0.00     0.083 A 
ATOM      5  C   UNL d   1       0.739   1.448   0.000  0.00  0.00     0.099 A 
ATOM      6  C   UNL d   1       0.003   0.201   0.000  0.00  0.00     0.019 A 
ATOM      7  C   UNL d   1       0.003   1.865   0.000  0.00  0.00     0.021 A 
ATOM      8  C   UNL d   1      -0.687   0.623   0.000  0.00  0.00     0.002 A 
ATOM      9  C   UNL d   1      -0.687   1.448   0.000  0.00  0.00     0.002 A 
ENDROOT
BRANCH   2  10
ATOM     10  C   UNL d   1       1.782  -0.416   0.000  0.00  0.00     0.145 C 
BRANCH  10  11
ATOM     11  C   UNL d   1       1.232  -1.019   0.000  0.00  0.00     0.297 C 
ATOM     12  N   UNL d   1       1.482  -1.808   0.000  0.00  0.00    -0.207 NA
ATOM     13  O   UNL d   1       0.416  -0.856   0.000  0.00  0.00    -0.264 OA
BRANCH  12  14
ATOM     14  C   UNL d   1       2.192  -2.221   0.000  0.00  0.00     0.085 A 
ATOM     15  C   UNL d   1       2.283  -3.044   0.000  0.00  0.00     0.019 A 
ATOM     16  C   UNL d   1       3.086  -3.211   0.000  0.00  0.00     0.002 A 
ATOM     17  C   UNL d   1       3.508  -2.505   0.000  0.00  0.00     0.002 A 
ATOM     18  C   UNL d   1       2.957  -1.904   0.000  0.00  0.00     0.019 A 
ENDBRANCH  12  14
ENDBRANCH  10  11
ENDBRANCH   2  10
BRANCH   1  19
ATOM     19  C   UNL d   1       2.842   1.035   0.000  0.00  0.00     0.184 A 
ATOM     20  C   UNL d   1       3.325   1.704   0.000  0.00  0.00     0.235 A 
ATOM     21  N   UNL d   1       4.114   1.448   0.000  0.00  0.00    -0.081 NA
ATOM     22  N   UNL d   1       3.074   2.489   0.000  0.00  0.00    -0.123 N 
ATOM     23  O   UNL d   1       4.114   0.623   0.000  0.00  0.00    -0.104 OA
ATOM     24  N   UNL d   1       3.325   0.365   0.000  0.00  0.00    -0.097 NA
ENDBRANCH   1  19
TORSDOF 4
