REMARK  6 active torsions:
REMARK  status: ('A' for Active; 'I' for Inactive)
REMARK    1  A    between atoms: C_2  and  S_1 
REMARK    2  A    between atoms: N_5  and  S_1 
REMARK    3  A    between atoms: C_9  and  N_5 
REMARK    4  A    between atoms: C_11  and  C_9 
REMARK       I    between atoms: N_17  and  C_11 
REMARK    5  A    between atoms: C_16  and  C_21 
REMARK    6  A    between atoms: C_21  and  N_17 
ROOT
ATOM      1  C   UNL d   1      -3.872   3.392   0.000  0.00  0.00     0.299 C 
ATOM      2  N   UNL d   1      -4.581   2.980   0.000  0.00  0.00    -0.203 NA
ATOM      3  O   UNL d   1      -3.141   2.971   0.000  0.00  0.00    -0.263 OA
ENDROOT
BRANCH   1   4
ATOM      4  C   UNL d   1      -3.872   4.215   0.000  0.00  0.00     0.174 C 
BRANCH   4   5
ATOM      5  N   UNL d   1      -3.147   4.631   0.000  0.00  0.00    -0.151 NA
BRANCH   5   6
ATOM      6  S   UNL d   1      -3.147   5.463   0.000  0.00  0.00     0.291 S 
ATOM      7  O   UNL d   1      -3.983   5.467   0.000  0.00  0.00    -0.198 OA
ATOM      8  O   UNL d   1      -2.326   5.467   0.000  0.00  0.00    -0.198 OA
BRANCH   6   9
ATOM      9  C   UNL d   1      -3.158   6.292   0.000  0.00  0.00     0.135 A 
ATOM     10  S   UNL d   1      -2.500   6.755   0.000  0.00  0.00    -0.067 SA
ATOM     11  C   UNL d   1      -2.751   7.557   0.000  0.00  0.00     0.065 A 
ATOM     12 BR   UNL d   1      -2.251   8.232   0.000  0.00  0.00    -0.042 Br
ATOM     13  C   UNL d   1      -3.559   7.566   0.000  0.00  0.00     0.015 A 
ATOM     14  C   UNL d   1      -3.822   6.781   0.000  0.00  0.00     0.021 A 
ENDBRANCH   6   9
ENDBRANCH   5   6
ENDBRANCH   4   5
ENDBRANCH   1   4
BRANCH   2  15
ATOM     15  C   UNL d   1      -4.581   2.144   0.000  0.00  0.00     0.129 C 
BRANCH  15  16
ATOM     16  C   UNL d   1      -5.308   1.734   0.000  0.00  0.00     0.144 A 
ATOM     17  O   UNL d   1      -6.016   2.131   0.000  0.00  0.00    -0.301 OA
ATOM     18  C   UNL d   1      -6.717   1.715   0.000  0.00  0.00     0.123 A 
ATOM     19  C   UNL d   1      -7.437   2.118   0.000  0.00  0.00     0.027 A 
ATOM     20  C   UNL d   1      -6.715   0.892   0.000  0.00  0.00     0.123 A 
ATOM     21  C   UNL d   1      -8.151   1.702   0.000  0.00  0.00     0.002 A 
ATOM     22  C   UNL d   1      -8.145   0.879   0.000  0.00  0.00     0.002 A 
ATOM     23  C   UNL d   1      -7.418   0.474   0.000  0.00  0.00     0.027 A 
ATOM     24  O   UNL d   1      -6.003   0.487   0.000  0.00  0.00    -0.301 OA
ATOM     25  C   UNL d   1      -5.302   0.911   0.000  0.00  0.00     0.149 A 
ENDBRANCH  15  16
ENDBRANCH   2  15
TORSDOF 6
