REMARK  5 active torsions:
REMARK  status: ('A' for Active; 'I' for Inactive)
REMARK       I    between atoms: N_3  and  C_1 
REMARK    1  A    between atoms: C_4  and  C_1 
REMARK    2  A    between atoms: N_2  and  C_4 
REMARK       I    between atoms: C_5  and  N_2 
REMARK    3  A    between atoms: C_18  and  C_4 
REMARK    4  A    between atoms: C_9  and  C_5 
REMARK    5  A    between atoms: C_7  and  N_6 
ROOT
ATOM      1  C   UNL d   1       0.263   1.925   0.000  0.00  0.00     0.283 C 
ATOM      2  N   UNL d   1       0.974   1.507   0.000  0.00  0.00    -0.268 N 
ATOM      3  N   UNL d   1       2.391   0.676   0.000  0.00  0.00    -0.286 N 
ATOM      4  O   UNL d   1       0.263   2.750   0.000  0.00  0.00    -0.265 OA
ATOM      5  C   UNL d   1       0.967   0.684   0.000  0.00  0.00     0.102 A 
ATOM      6  C   UNL d   1       1.688   1.921   0.000  0.00  0.00     0.102 A 
ATOM      7  C   UNL d   1       2.401   1.500   0.000  0.00  0.00     0.101 A 
ATOM      8  C   UNL d   1       1.680   0.273   0.000  0.00  0.00     0.101 A 
ENDROOT
BRANCH   1   9
ATOM      9  C   UNL d   1      -0.451   1.511   0.000  0.00  0.00     0.141 C 
BRANCH   9  10
ATOM     10  N   UNL d   1      -1.171   1.925   0.000  0.00  0.00    -0.203 NA
ATOM     11  C   UNL d   1      -1.881   1.511   0.000  0.00  0.00     0.279 C 
ATOM     12  O   UNL d   1      -1.881   0.691   0.000  0.00  0.00    -0.265 OA
BRANCH  11  13
ATOM     13  C   UNL d   1      -2.595   1.925   0.000  0.00  0.00     0.058 A 
ATOM     14  C   UNL d   1      -3.309   1.520   0.000  0.00  0.00     0.005 A 
ATOM     15  C   UNL d   1      -4.021   1.925   0.000  0.00  0.00     0.000 A 
ATOM     16  C   UNL d   1      -4.021   2.750   0.000  0.00  0.00     0.000 A 
ATOM     17  C   UNL d   1      -3.309   3.172   0.000  0.00  0.00     0.000 A 
ATOM     18  C   UNL d   1      -4.735   3.172   0.000  0.00  0.00     0.000 C 
ATOM     19  C   UNL d   1      -2.595   2.750   0.000  0.00  0.00     0.005 A 
ENDBRANCH  11  13
ENDBRANCH   9  10
BRANCH   9  20
ATOM     20  C   UNL d   1      -0.459   0.691   0.000  0.00  0.00     0.022 C 
ATOM     21  C   UNL d   1       0.263   0.276   0.000  0.00  0.00     0.002 C 
ATOM     22  C   UNL d   1      -1.171   0.276   0.000  0.00  0.00     0.002 C 
ENDBRANCH   9  20
ENDBRANCH   1   9
BRANCH   3  23
ATOM     23  C   UNL d   1       3.105   0.259   0.000  0.00  0.00     0.148 A 
ATOM     24  N   UNL d   1       3.100  -0.566   0.000  0.00  0.00    -0.227 NA
ATOM     25  C   UNL d   1       3.814  -0.978   0.000  0.00  0.00     0.101 A 
ATOM     26  C   UNL d   1       4.529  -0.575   0.000  0.00  0.00     0.021 A 
ATOM     27  C   UNL d   1       4.529   0.259   0.000  0.00  0.00     0.005 A 
ATOM     28  C   UNL d   1       3.818   0.672   0.000  0.00  0.00     0.037 A 
ENDBRANCH   3  23
TORSDOF 5
