REMARK  4 active torsions:
REMARK  status: ('A' for Active; 'I' for Inactive)
REMARK    1  A    between atoms: S_9  and  C_1 
REMARK       I    between atoms: N_4  and  C_5 
REMARK    2  A    between atoms: C_5  and  C_13 
REMARK    3  A    between atoms: C_8  and  C_10 
REMARK    4  A    between atoms: C_13  and  S_9 
ROOT
ATOM      1  N   UNL d   1      -0.864   0.478   0.000  0.00  0.00    -0.272 N 
ATOM      2  C   UNL d   1      -0.824  -0.307   0.000  0.00  0.00     0.271 C 
ATOM      3  C   UNL d   1      -0.914   2.101   0.000  0.00  0.00     0.062 A 
ATOM      4  C   UNL d   1      -0.199   0.914   0.000  0.00  0.00     0.083 A 
ATOM      5  C   UNL d   1      -1.576   0.914   0.000  0.00  0.00     0.083 A 
ATOM      6  O   UNL d   1      -1.476  -0.724   0.000  0.00  0.00    -0.266 OA
ATOM      7  C   UNL d   1      -0.199   1.715   0.000  0.00  0.00     0.024 A 
ATOM      8  C   UNL d   1      -1.625   1.715   0.000  0.00  0.00     0.024 A 
ENDROOT
BRANCH   2   9
ATOM      9  C   UNL d   1      -0.109  -0.713   0.000  0.00  0.00     0.098 C 
BRANCH   9  10
ATOM     10  S   UNL d   1       0.595  -0.246   0.000  0.00  0.00    -0.056 SA
BRANCH  10  11
ATOM     11  C   UNL d   1       1.309  -0.634   0.000  0.00  0.00     0.141 A 
ATOM     12  N   UNL d   1       2.033  -0.277   0.000  0.00  0.00    -0.232 NA
ATOM     13  C   UNL d   1       2.567  -0.951   0.000  0.00  0.00     0.088 A 
ATOM     14  C   UNL d   1       3.451  -0.901   0.000  0.00  0.00     0.020 A 
ATOM     15  C   UNL d   1       2.152  -1.664   0.000  0.00  0.00     0.049 A 
ATOM     16  C   UNL d   1       3.878  -1.616   0.000  0.00  0.00     0.002 A 
ATOM     17  C   UNL d   1       3.451  -2.379   0.000  0.00  0.00     0.001 A 
ATOM     18  C   UNL d   1       2.618  -2.379   0.000  0.00  0.00     0.008 A 
ATOM     19  S   UNL d   1       1.379  -1.467   0.000  0.00  0.00    -0.060 SA
ENDBRANCH  10  11
ENDBRANCH   9  10
ENDBRANCH   2   9
BRANCH   3  20
ATOM     20  C   UNL d   1      -0.914   2.964   0.000  0.00  0.00     0.297 C 
ATOM     21  O   UNL d   1      -0.199   3.331   0.000  0.00  0.00    -0.264 OA
ATOM     22  N   UNL d   1      -1.625   3.331   0.000  0.00  0.00    -0.102 N 
ENDBRANCH   3  20
TORSDOF 4
