REMARK  2 active torsions:
REMARK  status: ('A' for Active; 'I' for Inactive)
REMARK    1  A    between atoms: C_4  and  N_2 
REMARK    2  A    between atoms: C_7  and  C_4 
REMARK       I    between atoms: N_8  and  C_7 
ROOT
ATOM      1  S   UNL d   1      -5.232   4.195   0.000  0.00  0.00     0.274 S 
ATOM      2  N   UNL d   1      -4.760   4.859   0.000  0.00  0.00    -0.192 N 
ATOM      3  C   UNL d   1      -5.232   5.533   0.000  0.00  0.00     0.275 A 
ATOM      4  C   UNL d   1      -6.029   5.284   0.000  0.00  0.00     0.069 A 
ATOM      5  C   UNL d   1      -6.029   4.446   0.000  0.00  0.00     0.109 A 
ATOM      6  O   UNL d   1      -4.446   3.939   0.000  0.00  0.00    -0.200 OA
ATOM      7  O   UNL d   1      -5.533   3.421   0.000  0.00  0.00    -0.200 OA
ATOM      8  O   UNL d   1      -4.958   6.327   0.000  0.00  0.00    -0.266 OA
ATOM      9  C   UNL d   1      -6.728   5.690   0.000  0.00  0.00     0.005 A 
ATOM     10  C   UNL d   1      -6.728   4.042   0.000  0.00  0.00     0.013 A 
ATOM     11  C   UNL d   1      -7.454   5.267   0.000  0.00  0.00     0.000 A 
ATOM     12  C   UNL d   1      -7.454   4.446   0.000  0.00  0.00     0.001 A 
ENDROOT
BRANCH   2  13
ATOM     13  C   UNL d   1      -3.939   4.845   0.000  0.00  0.00     0.156 C 
BRANCH  13  14
ATOM     14  C   UNL d   1      -3.519   5.556   0.000  0.00  0.00     0.283 C 
ATOM     15  N   UNL d   1      -2.700   5.540   0.000  0.00  0.00    -0.271 N 
ATOM     16  C   UNL d   1      -2.281   4.836   0.000  0.00  0.00     0.083 A 
ATOM     17  C   UNL d   1      -2.281   6.261   0.000  0.00  0.00     0.083 A 
ATOM     18  C   UNL d   1      -1.460   4.836   0.000  0.00  0.00     0.019 A 
ATOM     19  C   UNL d   1      -1.037   5.540   0.000  0.00  0.00     0.003 A 
ATOM     20  C   UNL d   1      -1.460   6.251   0.000  0.00  0.00     0.019 A 
ATOM     21  C   UNL d   1      -0.202   5.540   0.000  0.00  0.00     0.000 C 
ATOM     22  O   UNL d   1      -3.939   6.278   0.000  0.00  0.00    -0.265 OA
ENDBRANCH  13  14
ENDBRANCH   2  13
TORSDOF 2
