REMARK  5 active torsions:
REMARK  status: ('A' for Active; 'I' for Inactive)
REMARK    1  A    between atoms: N_7  and  C_1 
REMARK    2  A    between atoms: C_15  and  N_2 
REMARK    3  A    between atoms: C_5  and  C_10 
REMARK       I    between atoms: C_10  and  N_7 
REMARK    4  A    between atoms: C_13  and  C_11 
REMARK    5  A    between atoms: C_24  and  C_15 
ROOT
ATOM      1  N   UNL d   1      -4.649   3.025   0.000  0.00  0.00    -0.203 NA
ATOM      2  C   UNL d   1      -3.922   3.444   0.000  0.00  0.00     0.299 C 
ATOM      3  O   UNL d   1      -3.247   3.025   0.000  0.00  0.00    -0.263 OA
ENDROOT
BRANCH   1   4
ATOM      4  C   UNL d   1      -4.649   2.179   0.000  0.00  0.00     0.121 A 
ATOM      5  C   UNL d   1      -5.322   1.677   0.000  0.00  0.00     0.102 A 
ATOM      6  N   UNL d   1      -5.053   0.900   0.000  0.00  0.00    -0.227 N 
ATOM      7  C   UNL d   1      -6.115   1.927   0.000  0.00  0.00     0.022 C 
ATOM      8  N   UNL d   1      -4.214   0.909   0.000  0.00  0.00    -0.164 NA
ATOM      9  C   UNL d   1      -3.969   1.711   0.000  0.00  0.00     0.120 A 
ATOM     10  C   UNL d   1      -3.182   2.003   0.000  0.00  0.00     0.024 C 
BRANCH   6  11
ATOM     11  C   UNL d   1      -5.615   0.264   0.000  0.00  0.00     0.101 C 
BRANCH  11  12
ATOM     12  C   UNL d   1      -6.432   0.435   0.000  0.00  0.00     0.019 A 
ATOM     13  C   UNL d   1      -6.989  -0.180   0.000  0.00  0.00     0.002 A 
ATOM     14  C   UNL d   1      -7.808  -0.016   0.000  0.00  0.00     0.000 A 
ATOM     15  C   UNL d   1      -8.069   0.789   0.000  0.00  0.00     0.000 A 
ATOM     16  C   UNL d   1      -7.524   1.392   0.000  0.00  0.00     0.000 A 
ATOM     17  C   UNL d   1      -8.881   0.985   0.000  0.00  0.00     0.000 C 
ATOM     18  C   UNL d   1      -6.698   1.228   0.000  0.00  0.00     0.002 A 
ENDBRANCH  11  12
ENDBRANCH   6  11
ENDBRANCH   1   4
BRANCH   2  19
ATOM     19  C   UNL d   1      -3.964   5.012   0.000  0.00  0.00     0.168 A 
ATOM     20  N   UNL d   1      -4.596   5.495   0.000  0.00  0.00    -0.121 NA
ATOM     21  O   UNL d   1      -4.343   6.240   0.000  0.00  0.00    -0.211 OA
ATOM     22  C   UNL d   1      -3.546   6.238   0.000  0.00  0.00     0.127 A 
ATOM     23  C   UNL d   1      -3.307   5.477   0.000  0.00  0.00     0.053 A 
BRANCH  22  24
ATOM     24  C   UNL d   1      -3.106   6.890   0.000  0.00  0.00     0.027 A 
ATOM     25  C   UNL d   1      -2.308   6.834   0.000  0.00  0.00     0.028 A 
ATOM     26  C   UNL d   1      -1.873   7.482   0.000  0.00  0.00     0.119 A 
ATOM     27  O   UNL d   1      -1.087   7.593   0.000  0.00  0.00    -0.300 OA
ATOM     28  C   UNL d   1      -2.204   8.204   0.000  0.00  0.00     0.119 A 
ATOM     29  C   UNL d   1      -0.941   8.370   0.000  0.00  0.00     0.304 A 
ATOM     30  O   UNL d   1      -1.635   8.749   0.000  0.00  0.00    -0.300 OA
ATOM     31  C   UNL d   1      -3.002   8.266   0.000  0.00  0.00     0.026 A 
ATOM     32  C   UNL d   1      -3.444   7.621   0.000  0.00  0.00     0.004 A 
ENDBRANCH  22  24
ENDBRANCH   2  19
TORSDOF 5
