REMARK  4 active torsions:
REMARK  status: ('A' for Active; 'I' for Inactive)
REMARK    1  A    between atoms: O_2  and  C_1 
REMARK       I    between atoms: N_6  and  C_1 
REMARK    2  A    between atoms: C_3  and  O_2 
REMARK    3  A    between atoms: C_14  and  N_6 
REMARK    4  A    between atoms: C_15  and  N_6 
ROOT
ATOM      1  C   UNL d   1      -0.309  -0.415   0.000  0.00  0.00     0.105 A 
ATOM      2  C   UNL d   1       0.397  -0.842   0.000  0.00  0.00     0.024 A 
ATOM      3  C   UNL d   1       0.397  -1.652   0.000  0.00  0.00     0.013 A 
ATOM      4  C   UNL d   1      -0.309  -2.060   0.000  0.00  0.00     0.058 A 
ATOM      5  C   UNL d   1      -1.022  -0.842   0.000  0.00  0.00     0.026 A 
ATOM      6  C   UNL d   1      -1.022  -1.652   0.000  0.00  0.00     0.013 A 
ATOM      7 CL   UNL d   1      -0.317  -2.888   0.000  0.00  0.00    -0.082 Cl
ATOM      8  C   UNL d   1       1.109  -0.415   0.000  0.00  0.00     0.002 A 
ATOM      9  C   UNL d   1       1.109  -2.060   0.000  0.00  0.00     0.001 A 
ATOM     10  C   UNL d   1       1.836  -1.652   0.000  0.00  0.00     0.000 A 
ATOM     11  C   UNL d   1       1.836  -0.842   0.000  0.00  0.00     0.000 A 
ENDROOT
BRANCH   1  12
ATOM     12  O   UNL d   1      -0.317   0.402   0.000  0.00  0.00    -0.259 OA
BRANCH  12  13
ATOM     13  C   UNL d   1      -1.042   0.808   0.000  0.00  0.00     0.377 C 
ATOM     14  N   UNL d   1      -1.042   1.659   0.000  0.00  0.00    -0.252 N 
ATOM     15  O   UNL d   1      -1.759   0.413   0.000  0.00  0.00    -0.237 OA
BRANCH  14  16
ATOM     16  C   UNL d   1      -1.759   2.064   0.000  0.00  0.00     0.085 C 
ATOM     17  C   UNL d   1      -1.759   2.896   0.000  0.00  0.00     0.021 C 
ENDBRANCH  14  16
BRANCH  14  18
ATOM     18  C   UNL d   1      -0.339   2.064   0.000  0.00  0.00     0.085 C 
ATOM     19  C   UNL d   1      -0.339   2.896   0.000  0.00  0.00     0.021 C 
ENDBRANCH  14  18
ENDBRANCH  12  13
ENDBRANCH   1  12
TORSDOF 4
