REMARK  3 active torsions:
REMARK  status: ('A' for Active; 'I' for Inactive)
REMARK    1  A    between atoms: C_7  and  C_1 
REMARK    2  A    between atoms: C_10  and  N_2 
REMARK    3  A    between atoms: C_14  and  C_7 
ROOT
ATOM      1  C   UNL d   1       6.790  -4.747   0.000  0.00  0.00     0.155 A 
ATOM      2  N   UNL d   1       6.075  -5.170   0.000  0.00  0.00    -0.277 N 
ATOM      3  C   UNL d   1       5.371  -4.759   0.000  0.00  0.00     0.153 A 
ATOM      4  C   UNL d   1       5.371  -3.929   0.000  0.00  0.00     0.092 A 
ATOM      5  N   UNL d   1       6.790  -3.921   0.000  0.00  0.00    -0.190 NA
ATOM      6  C   UNL d   1       6.075  -3.524   0.000  0.00  0.00     0.283 A 
ATOM      7  N   UNL d   1       4.646  -5.178   0.000  0.00  0.00    -0.228 NA
ATOM      8  C   UNL d   1       4.646  -3.524   0.000  0.00  0.00     0.009 A 
ATOM      9  O   UNL d   1       6.068  -2.694   0.000  0.00  0.00    -0.265 OA
ATOM     10  C   UNL d   1       3.943  -3.943   0.000  0.00  0.00     0.019 A 
ATOM     11  C   UNL d   1       3.943  -4.759   0.000  0.00  0.00     0.083 A 
ATOM     12  C   UNL d   1       4.646  -2.699   0.000  0.00  0.00     0.000 C 
ATOM     13  C   UNL d   1       3.223  -5.170   0.000  0.00  0.00     0.021 C 
ENDROOT
BRANCH   2  14
ATOM     14  C   UNL d   1       6.075  -5.989   0.000  0.00  0.00     0.067 A 
ATOM     15  C   UNL d   1       5.371  -6.395   0.000  0.00  0.00     0.018 A 
ATOM     16  C   UNL d   1       5.371  -7.223   0.000  0.00  0.00     0.002 A 
ATOM     17  C   UNL d   1       6.075  -7.640   0.000  0.00  0.00     0.000 A 
ATOM     18  C   UNL d   1       6.793  -7.216   0.000  0.00  0.00     0.002 A 
ATOM     19  C   UNL d   1       6.793  -6.395   0.000  0.00  0.00     0.018 A 
ENDBRANCH   2  14
BRANCH   1  20
ATOM     20  C   UNL d   1       7.503  -5.156   0.000  0.00  0.00     0.080 C 
BRANCH  20  21
ATOM     21  C   UNL d   1       8.242  -4.790   0.000  0.00  0.00     0.199 C 
ATOM     22  O   UNL d   1       8.214  -3.893   0.000  0.00  0.00    -0.286 OA
ATOM     23  C   UNL d   1       9.188  -5.292   0.000  0.00  0.00     0.045 C 
ENDBRANCH  20  21
ENDBRANCH   1  20
TORSDOF 3
