REMARK  5 active torsions:
REMARK  status: ('A' for Active; 'I' for Inactive)
REMARK    1  A    between atoms: N_6  and  S_1 
REMARK    2  A    between atoms: C_7  and  S_1 
REMARK    3  A    between atoms: C_9  and  C_2 
REMARK       I    between atoms: N_16  and  C_9 
REMARK    4  A    between atoms: C_26  and  N_16 
REMARK    5  A    between atoms: C_18  and  C_26 
ROOT
ATOM      1  C   UNL d   1      -0.409  -4.741   0.000  0.00  0.00     0.158 A 
ATOM      2  C   UNL d   1      -0.823  -5.458   0.000  0.00  0.00     0.029 A 
ATOM      3  O   UNL d   1       0.392  -4.913   0.000  0.00  0.00    -0.302 OA
ATOM      4  C   UNL d   1      -0.264  -6.050   0.000  0.00  0.00     0.026 A 
ATOM      5  C   UNL d   1       0.295  -7.377   0.000  0.00  0.00     0.104 A 
ATOM      6  C   UNL d   1       0.492  -5.725   0.000  0.00  0.00     0.100 A 
ATOM      7  C   UNL d   1      -0.364  -6.884   0.000  0.00  0.00     0.015 A 
ATOM      8  C   UNL d   1       1.059  -7.040   0.000  0.00  0.00     0.015 A 
ATOM      9  C   UNL d   1       1.146  -6.217   0.000  0.00  0.00     0.025 A 
ATOM     10  C   UNL d   1      -1.643  -5.539   0.000  0.00  0.00     0.002 C 
ENDROOT
BRANCH   1  11
ATOM     11  C   UNL d   1      -0.823  -4.029   0.000  0.00  0.00     0.302 C 
ATOM     12  N   UNL d   1      -0.409  -3.314   0.000  0.00  0.00    -0.203 NA
ATOM     13  O   UNL d   1      -1.643  -4.015   0.000  0.00  0.00    -0.263 OA
BRANCH  12  14
ATOM     14  C   UNL d   1      -0.815  -2.594   0.000  0.00  0.00     0.129 C 
BRANCH  14  15
ATOM     15  C   UNL d   1      -0.398  -1.871   0.000  0.00  0.00     0.144 A 
ATOM     16  O   UNL d   1       0.437  -1.871   0.000  0.00  0.00    -0.301 OA
ATOM     17  C   UNL d   1       0.843  -1.159   0.000  0.00  0.00     0.123 A 
ATOM     18  C   UNL d   1       1.671  -1.146   0.000  0.00  0.00     0.027 A 
ATOM     19  C   UNL d   1       0.437  -0.445   0.000  0.00  0.00     0.123 A 
ATOM     20  C   UNL d   1       2.088  -0.437   0.000  0.00  0.00     0.002 A 
ATOM     21  C   UNL d   1       1.663   0.275   0.000  0.00  0.00     0.002 A 
ATOM     22  C   UNL d   1       0.843   0.275   0.000  0.00  0.00     0.027 A 
ATOM     23  O   UNL d   1      -0.398  -0.459   0.000  0.00  0.00    -0.301 OA
ATOM     24  C   UNL d   1      -0.815  -1.159   0.000  0.00  0.00     0.149 A 
ENDBRANCH  14  15
ENDBRANCH  12  14
ENDBRANCH   1  11
BRANCH   5  25
ATOM     25  S   UNL d   1       0.195  -8.200   0.000  0.00  0.00     0.272 S 
ATOM     26  O   UNL d   1       1.018  -8.300   0.000  0.00  0.00    -0.200 OA
ATOM     27  O   UNL d   1      -0.639  -8.102   0.000  0.00  0.00    -0.200 OA
BRANCH  25  28
ATOM     28  N   UNL d   1       0.095  -9.034   0.000  0.00  0.00    -0.225 N 
ATOM     29  C   UNL d   1       0.762  -9.512   0.000  0.00  0.00     0.118 A 
ATOM     30  C   UNL d   1       0.678 -10.335   0.000  0.00  0.00     0.142 A 
ATOM     31  O   UNL d   1      -0.100 -10.677   0.000  0.00  0.00    -0.300 OA
ATOM     32  C   UNL d   1      -0.759 -10.179   0.000  0.00  0.00     0.142 A 
ATOM     33  C   UNL d   1      -0.659  -9.362   0.000  0.00  0.00     0.118 A 
ENDBRANCH  25  28
ENDBRANCH   5  25
TORSDOF 5
