REMARK  7 active torsions:
REMARK  status: ('A' for Active; 'I' for Inactive)
REMARK    1  A    between atoms: S_2  and  C_1 
REMARK    2  A    between atoms: N_14  and  S_2 
REMARK    3  A    between atoms: C_9  and  C_18 
REMARK       I    between atoms: N_17  and  C_9 
REMARK    4  A    between atoms: C_13  and  C_23 
REMARK    5  A    between atoms: C_24  and  N_14 
REMARK    6  A    between atoms: C_23  and  N_17 
REMARK    7  A    between atoms: C_18  and  C_24 
ROOT
ATOM      1  S   UNL d   1      -2.442   1.365   0.000  0.00  0.00     0.287 S 
ATOM      2  O   UNL d   1      -1.617   1.365   0.000  0.00  0.00    -0.198 OA
ATOM      3  O   UNL d   1      -3.267   1.365   0.000  0.00  0.00    -0.198 OA
ENDROOT
BRANCH   1   4
ATOM      4  C   UNL d   1      -2.442   2.187   0.000  0.00  0.00     0.127 A 
ATOM      5  C   UNL d   1      -1.730   2.601   0.000  0.00  0.00     0.142 A 
ATOM      6  C   UNL d   1      -1.730   3.426   0.000  0.00  0.00     0.131 A 
ATOM      7  N   UNL d   1      -0.948   2.350   0.000  0.00  0.00    -0.101 NA
ATOM      8  N   UNL d   1      -0.948   3.682   0.000  0.00  0.00    -0.102 NA
ATOM      9  C   UNL d   1      -2.442   3.838   0.000  0.00  0.00     0.023 A 
ATOM     10  O   UNL d   1      -0.462   3.015   0.000  0.00  0.00    -0.106 OA
ATOM     11  C   UNL d   1      -3.164   3.426   0.000  0.00  0.00     0.002 A 
ATOM     12  C   UNL d   1      -3.164   2.601   0.000  0.00  0.00     0.015 A 
ENDBRANCH   1   4
BRANCH   1  13
ATOM     13  N   UNL d   1      -2.442   0.536   0.000  0.00  0.00    -0.157 NA
BRANCH  13  14
ATOM     14  C   UNL d   1      -3.155   0.122   0.000  0.00  0.00     0.117 C 
BRANCH  14  15
ATOM     15  C   UNL d   1      -3.155  -0.703   0.000  0.00  0.00     0.084 C 
BRANCH  15  16
ATOM     16  C   UNL d   1      -3.871  -1.118   0.000  0.00  0.00     0.281 C 
ATOM     17  N   UNL d   1      -4.591  -0.703   0.000  0.00  0.00    -0.206 NA
ATOM     18  O   UNL d   1      -3.871  -1.952   0.000  0.00  0.00    -0.265 OA
BRANCH  17  19
ATOM     19  C   UNL d   1      -5.312  -1.129   0.000  0.00  0.00     0.109 C 
BRANCH  19  20
ATOM     20  C   UNL d   1      -5.312  -1.957   0.000  0.00  0.00     0.049 A 
ATOM     21  S   UNL d   1      -4.655  -2.458   0.000  0.00  0.00    -0.085 SA
ATOM     22  C   UNL d   1      -4.905  -3.235   0.000  0.00  0.00     0.035 A 
ATOM     23  C   UNL d   1      -5.733  -3.230   0.000  0.00  0.00     0.007 A 
ATOM     24  C   UNL d   1      -5.989  -2.447   0.000  0.00  0.00     0.009 A 
ENDBRANCH  19  20
ENDBRANCH  17  19
ENDBRANCH  15  16
ENDBRANCH  14  15
ENDBRANCH  13  14
ENDBRANCH   1  13
TORSDOF 7
