REMARK  2 active torsions:
REMARK  status: ('A' for Active; 'I' for Inactive)
REMARK    1  A    between atoms: C_5  and  N_1 
REMARK    2  A    between atoms: O_14  and  C_11 
ROOT
ATOM      1  C   UNL d   1       1.050   1.510   0.000  0.00  0.00     0.069 A 
ATOM      2  C   UNL d   1       0.677   2.247   0.000  0.00  0.00     0.020 A 
ATOM      3  C   UNL d   1       1.891   1.488   0.000  0.00  0.00     0.020 A 
ATOM      4  C   UNL d   1       1.919   2.925   0.000  0.00  0.00     0.094 A 
ATOM      5  C   UNL d   1       1.115   2.946   0.000  0.00  0.00     0.026 A 
ATOM      6  C   UNL d   1       2.326   2.192   0.000  0.00  0.00     0.026 A 
ENDROOT
BRANCH   1   7
ATOM      7  N   UNL d   1       0.589   0.821   0.000  0.00  0.00    -0.249 N 
ATOM      8  C   UNL d   1       0.881   0.050   0.000  0.00  0.00     0.208 A 
ATOM      9  N   UNL d   1       0.199  -0.456   0.000  0.00  0.00    -0.212 NA
ATOM     10  S   UNL d   1       1.688  -0.177   0.000  0.00  0.00    -0.038 SA
ATOM     11  C   UNL d   1      -0.462   0.036   0.000  0.00  0.00     0.162 A 
ATOM     12  C   UNL d   1      -0.213   0.821   0.000  0.00  0.00     0.286 A 
ATOM     13  O   UNL d   1      -0.705   1.510   0.000  0.00  0.00    -0.265 OA
ENDBRANCH   1   7
BRANCH   4  14
ATOM     14  O   UNL d   1       2.331   3.638   0.000  0.00  0.00    -0.328 OA
ATOM     15  C   UNL d   1       3.155   3.638   0.000  0.00  0.00     0.181 C 
ENDBRANCH   4  14
TORSDOF 2
