REMARK  5 active torsions:
REMARK  status: ('A' for Active; 'I' for Inactive)
REMARK    1  A    between atoms: N_2  and  C_1 
REMARK    2  A    between atoms: C_5  and  C_1 
REMARK    3  A    between atoms: O_4  and  N_2 
REMARK    4  A    between atoms: C_3  and  O_4 
REMARK    5  A    between atoms: C_6  and  C_3 
ROOT
ATOM      1  O   UNL d   1       7.012  -2.017   0.000  0.00  0.00    -0.168 OA
ENDROOT
BRANCH   1   2
ATOM      2  C   UNL d   1       6.218  -2.466   0.000  0.00  0.00     0.319 C 
ATOM      3  O   UNL d   1       6.202  -3.364   0.000  0.00  0.00    -0.257 OA
BRANCH   2   4
ATOM      4  C   UNL d   1       5.505  -2.044   0.000  0.00  0.00     0.065 A 
ATOM      5  C   UNL d   1       4.788  -2.466   0.000  0.00  0.00     0.005 A 
ATOM      6  C   UNL d   1       4.078  -2.033   0.000  0.00  0.00     0.000 A 
ATOM      7  C   UNL d   1       4.078  -1.210   0.000  0.00  0.00     0.000 A 
ATOM      8  C   UNL d   1       4.805  -0.821   0.000  0.00  0.00     0.000 A 
ATOM      9  C   UNL d   1       3.364  -0.796   0.000  0.00  0.00     0.000 C 
ATOM     10  C   UNL d   1       5.505  -1.223   0.000  0.00  0.00     0.005 A 
ENDBRANCH   2   4
ENDBRANCH   1   2
BRANCH   1  11
ATOM     11  N   UNL d   1       7.723  -2.416   0.000  0.00  0.00    -0.100 NA
BRANCH  11  12
ATOM     12  C   UNL d   1       8.439  -2.017   0.000  0.00  0.00     0.228 C 
ATOM     13  N   UNL d   1       8.439  -1.193   0.000  0.00  0.00    -0.123 N 
BRANCH  12  14
ATOM     14  C   UNL d   1       9.152  -2.416   0.000  0.00  0.00     0.121 A 
ATOM     15  N   UNL d   1       9.855  -2.003   0.000  0.00  0.00    -0.241 NA
ATOM     16  C   UNL d   1      10.580  -2.416   0.000  0.00  0.00     0.099 A 
ATOM     17  C   UNL d   1      10.580  -3.243   0.000  0.00  0.00     0.021 A 
ATOM     18  C   UNL d   1       9.863  -3.662   0.000  0.00  0.00     0.003 A 
ATOM     19  C   UNL d   1       9.152  -3.243   0.000  0.00  0.00     0.022 A 
ENDBRANCH  12  14
ENDBRANCH  11  12
ENDBRANCH   1  11
TORSDOF 5
