REMARK  5 active torsions:
REMARK  status: ('A' for Active; 'I' for Inactive)
REMARK    1  A    between atoms: C_11  and  N_1 
REMARK    2  A    between atoms: C_5  and  C_3 
REMARK       I    between atoms: N_14  and  C_5 
REMARK    3  A    between atoms: N_7  and  C_18 
REMARK    4  A    between atoms: C_17  and  N_14 
REMARK    5  A    between atoms: C_18  and  C_17 
ROOT
ATOM      1  C   UNL d   1       2.660  -0.461   0.000  0.00  0.00     0.281 C 
ATOM      2  O   UNL d   1       2.672   0.362   0.000  0.00  0.00    -0.265 OA
ATOM      3  N   UNL d   1       3.366  -0.877   0.000  0.00  0.00    -0.205 NA
ENDROOT
BRANCH   1   4
ATOM      4  C   UNL d   1       1.935  -0.865   0.000  0.00  0.00     0.080 A 
ATOM      5  C   UNL d   1       1.837  -1.684   0.000  0.00  0.00     0.088 A 
ATOM      6  N   UNL d   1       1.026  -1.837   0.000  0.00  0.00    -0.273 N 
ATOM      7  C   UNL d   1       0.626  -1.121   0.000  0.00  0.00     0.265 A 
ATOM      8  C   UNL d   1       1.189  -0.515   0.000  0.00  0.00     0.067 A 
ATOM      9  O   UNL d   1      -0.201  -1.064   0.000  0.00  0.00    -0.267 OA
BRANCH   6  10
ATOM     10  C   UNL d   1       0.676  -2.585   0.000  0.00  0.00     0.067 A 
ATOM     11  C   UNL d   1       1.082  -3.305   0.000  0.00  0.00     0.018 A 
ATOM     12  C   UNL d   1       0.521  -3.909   0.000  0.00  0.00     0.002 A 
ATOM     13  C   UNL d   1      -0.225  -3.557   0.000  0.00  0.00     0.002 A 
ATOM     14  C   UNL d   1      -0.135  -2.746   0.000  0.00  0.00     0.018 A 
ENDBRANCH   6  10
ENDBRANCH   1   4
BRANCH   3  15
ATOM     15  C   UNL d   1       4.082  -0.477   0.000  0.00  0.00     0.121 C 
BRANCH  15  16
ATOM     16  C   UNL d   1       4.792  -0.889   0.000  0.00  0.00     0.101 C 
BRANCH  16  17
ATOM     17  N   UNL d   1       5.506  -0.465   0.000  0.00  0.00    -0.301 N 
ATOM     18  C   UNL d   1       5.490   0.358   0.000  0.00  0.00     0.080 A 
ATOM     19  C   UNL d   1       6.204   0.775   0.000  0.00  0.00     0.018 A 
ATOM     20  C   UNL d   1       6.200   1.593   0.000  0.00  0.00     0.002 A 
ATOM     21  C   UNL d   1       6.922   0.374   0.000  0.00  0.00     0.003 A 
ATOM     22  C   UNL d   1       6.902   2.012   0.000  0.00  0.00     0.000 A 
ATOM     23  C   UNL d   1       7.626   1.611   0.000  0.00  0.00     0.000 A 
ATOM     24  C   UNL d   1       7.636   0.787   0.000  0.00  0.00     0.000 A 
ATOM     25  C   UNL d   1       6.928  -0.453   0.000  0.00  0.00     0.019 A 
ATOM     26  C   UNL d   1       6.216  -0.877   0.000  0.00  0.00     0.080 A 
ENDBRANCH  16  17
ENDBRANCH  15  16
ENDBRANCH   3  15
TORSDOF 5
