REMARK  1 active torsions:
REMARK  status: ('A' for Active; 'I' for Inactive)
REMARK    1  A    between atoms: C_8  and  C_3 
ROOT
ATOM      1  N   UNL d   1       2.929   0.887   0.000  0.00  0.00    -0.145 NA
ATOM      2  N   UNL d   1       3.763   0.871   0.000  0.00  0.00    -0.106 NA
ATOM      3  C   UNL d   1       2.508   0.183   0.000  0.00  0.00     0.103 A 
ATOM      4  C   UNL d   1       4.162   0.150   0.000  0.00  0.00     0.297 A 
ATOM      5  C   UNL d   1       2.917  -0.542   0.000  0.00  0.00     0.026 A 
ATOM      6  C   UNL d   1       3.729  -0.554   0.000  0.00  0.00     0.066 A 
ATOM      7  O   UNL d   1       4.979   0.138   0.000  0.00  0.00    -0.264 OA
ENDROOT
BRANCH   3   8
ATOM      8  C   UNL d   1       1.692   0.183   0.000  0.00  0.00     0.019 A 
ATOM      9  C   UNL d   1       1.292   0.912   0.000  0.00  0.00     0.002 A 
ATOM     10  C   UNL d   1       0.463   0.921   0.000  0.00  0.00     0.000 A 
ATOM     11  C   UNL d   1       0.042   0.208   0.000  0.00  0.00     0.000 A 
ATOM     12  C   UNL d   1       0.442  -0.512   0.000  0.00  0.00     0.000 A 
ATOM     13  C   UNL d   1       1.267  -0.517   0.000  0.00  0.00     0.002 A 
ENDBRANCH   3   8
TORSDOF 1
