REMARK  3 active torsions:
REMARK  status: ('A' for Active; 'I' for Inactive)
REMARK    1  A    between atoms: C_2  and  C_1 
REMARK    2  A    between atoms: C_13  and  N_4 
REMARK    3  A    between atoms: C_12  and  C_15 
ROOT
ATOM      1  C   UNL d   1       2.564  -0.991   0.000  0.00  0.00     0.106 A 
ATOM      2  C   UNL d   1       3.466  -0.002   0.000  0.00  0.00     0.206 A 
ATOM      3  N   UNL d   1       3.877  -0.717   0.000  0.00  0.00    -0.281 N 
ATOM      4  N   UNL d   1       2.653  -0.163   0.000  0.00  0.00    -0.217 NA
ATOM      5  C   UNL d   1       3.322  -1.328   0.000  0.00  0.00     0.102 A 
ATOM      6  S   UNL d   1       3.804   0.750   0.000  0.00  0.00    -0.038 SA
ENDROOT
BRANCH   1   7
ATOM      7  C   UNL d   1       1.853  -1.399   0.000  0.00  0.00     0.083 A 
ATOM      8  C   UNL d   1       1.853  -2.229   0.000  0.00  0.00     0.302 A 
ATOM      9  O   UNL d   1       1.129  -2.641   0.000  0.00  0.00    -0.273 OA
ATOM     10  O   UNL d   1       2.564  -2.647   0.000  0.00  0.00    -0.259 OA
ATOM     11  C   UNL d   1       0.414  -2.229   0.000  0.00  0.00     0.103 A 
ATOM     12  C   UNL d   1       0.414  -1.399   0.000  0.00  0.00     0.023 A 
ATOM     13  C   UNL d   1      -0.297  -2.641   0.000  0.00  0.00     0.025 A 
ATOM     14  C   UNL d   1       1.137  -0.979   0.000  0.00  0.00     0.009 A 
ATOM     15  C   UNL d   1      -0.297  -0.987   0.000  0.00  0.00     0.002 A 
ATOM     16  C   UNL d   1      -1.009  -1.399   0.000  0.00  0.00     0.000 A 
ATOM     17  C   UNL d   1      -1.009  -2.229   0.000  0.00  0.00     0.002 A 
ENDBRANCH   1   7
BRANCH   3  18
ATOM     18  C   UNL d   1       4.690  -0.802   0.000  0.00  0.00     0.066 A 
ATOM     19  C   UNL d   1       5.030  -1.561   0.000  0.00  0.00     0.018 A 
ATOM     20  C   UNL d   1       5.848  -1.650   0.000  0.00  0.00     0.008 A 
ATOM     21  C   UNL d   1       6.338  -0.979   0.000  0.00  0.00     0.065 A 
ATOM     22  C   UNL d   1       6.001  -0.229   0.000  0.00  0.00     0.008 A 
ATOM     23  C   UNL d   1       5.179  -0.139   0.000  0.00  0.00     0.018 A 
BRANCH  21  24
ATOM     24  C   UNL d   1       7.156  -1.065   0.000  0.00  0.00     0.211 C 
ATOM     25  O   UNL d   1       7.490  -1.823   0.000  0.00  0.00    -0.644 OA
ATOM     26  O   UNL d   1       7.644  -0.402   0.000  0.00  0.00    -0.644 OA
ENDBRANCH  21  24
ENDBRANCH   3  18
TORSDOF 3
