REMARK  5 active torsions:
REMARK  status: ('A' for Active; 'I' for Inactive)
REMARK    1  A    between atoms: N_2  and  C_1 
REMARK    2  A    between atoms: C_8  and  C_1 
REMARK    3  A    between atoms: O_5  and  N_2 
REMARK    4  A    between atoms: C_3  and  O_5 
REMARK    5  A    between atoms: C_4  and  C_3 
ROOT
ATOM      1  C   UNL d   1       6.594  -3.829   0.000  0.00  0.00     0.319 C 
ATOM      2  O   UNL d   1       6.594  -4.733   0.000  0.00  0.00    -0.257 OA
ENDROOT
BRANCH   1   3
ATOM      3  O   UNL d   1       7.390  -3.384   0.000  0.00  0.00    -0.168 OA
BRANCH   3   4
ATOM      4  N   UNL d   1       8.100  -3.803   0.000  0.00  0.00    -0.100 NA
BRANCH   4   5
ATOM      5  C   UNL d   1       8.811  -3.384   0.000  0.00  0.00     0.228 C 
ATOM      6  N   UNL d   1       8.811  -2.551   0.000  0.00  0.00    -0.123 N 
BRANCH   5   7
ATOM      7  C   UNL d   1       9.521  -3.803   0.000  0.00  0.00     0.121 A 
ATOM      8  N   UNL d   1      10.223  -3.375   0.000  0.00  0.00    -0.241 NA
ATOM      9  C   UNL d   1      10.956  -3.786   0.000  0.00  0.00     0.099 A 
ATOM     10  C   UNL d   1      10.956  -4.614   0.000  0.00  0.00     0.021 A 
ATOM     11  C   UNL d   1      10.246  -5.024   0.000  0.00  0.00     0.003 A 
ATOM     12  C   UNL d   1       9.535  -4.614   0.000  0.00  0.00     0.022 A 
ENDBRANCH   5   7
ENDBRANCH   4   5
ENDBRANCH   3   4
ENDBRANCH   1   3
BRANCH   1  13
ATOM     13  C   UNL d   1       5.883  -3.401   0.000  0.00  0.00     0.065 A 
ATOM     14  C   UNL d   1       5.173  -3.820   0.000  0.00  0.00     0.005 A 
ATOM     15  C   UNL d   1       4.462  -3.401   0.000  0.00  0.00     0.000 A 
ATOM     16  C   UNL d   1       3.732  -3.803   0.000  0.00  0.00     0.000 C 
ATOM     17  C   UNL d   1       4.462  -2.585   0.000  0.00  0.00     0.000 A 
ATOM     18  C   UNL d   1       5.173  -2.177   0.000  0.00  0.00     0.000 A 
ATOM     19  C   UNL d   1       3.752  -2.143   0.000  0.00  0.00     0.000 C 
ATOM     20  C   UNL d   1       5.883  -2.588   0.000  0.00  0.00     0.005 A 
ENDBRANCH   1  13
TORSDOF 5
