REMARK  6 active torsions:
REMARK  status: ('A' for Active; 'I' for Inactive)
REMARK    1  A    between atoms: C_2  and  S_1 
REMARK    2  A    between atoms: N_4  and  S_1 
REMARK    3  A    between atoms: C_9  and  C_17 
REMARK       I    between atoms: N_20  and  C_9 
REMARK    4  A    between atoms: C_18  and  C_25 
REMARK    5  A    between atoms: C_24  and  N_20 
REMARK    6  A    between atoms: C_25  and  C_24 
ROOT
ATOM      1  N   UNL d   1      -5.168   0.403   0.000  0.00  0.00    -0.229 N 
ATOM      2  C   UNL d   1      -4.752  -0.314   0.000  0.00  0.00     0.092 A 
ATOM      3  C   UNL d   1      -4.752   1.114   0.000  0.00  0.00     0.092 A 
ATOM      4  C   UNL d   1      -3.511   0.403   0.000  0.00  0.00     0.061 A 
ATOM      5  C   UNL d   1      -3.927   1.114   0.000  0.00  0.00     0.025 A 
ATOM      6  C   UNL d   1      -3.927  -0.314   0.000  0.00  0.00     0.025 A 
ENDROOT
BRANCH   1   7
ATOM      7  S   UNL d   1      -5.997   0.403   0.000  0.00  0.00     0.273 S 
ATOM      8  O   UNL d   1      -6.819   0.403   0.000  0.00  0.00    -0.200 OA
ATOM      9  O   UNL d   1      -5.997   1.228   0.000  0.00  0.00    -0.200 OA
BRANCH   7  10
ATOM     10  C   UNL d   1      -5.997  -0.426   0.000  0.00  0.00     0.125 A 
ATOM     11  C   UNL d   1      -6.709  -0.842   0.000  0.00  0.00     0.142 A 
ATOM     12  C   UNL d   1      -6.709  -1.666   0.000  0.00  0.00     0.131 A 
ATOM     13  N   UNL d   1      -7.495  -0.582   0.000  0.00  0.00    -0.101 NA
ATOM     14  N   UNL d   1      -7.495  -1.922   0.000  0.00  0.00    -0.102 NA
ATOM     15  C   UNL d   1      -5.997  -2.082   0.000  0.00  0.00     0.023 A 
ATOM     16  O   UNL d   1      -7.979  -1.259   0.000  0.00  0.00    -0.106 OA
ATOM     17  C   UNL d   1      -5.276  -1.666   0.000  0.00  0.00     0.002 A 
ATOM     18  C   UNL d   1      -5.276  -0.842   0.000  0.00  0.00     0.015 A 
ENDBRANCH   7  10
ENDBRANCH   1   7
BRANCH   4  19
ATOM     19  C   UNL d   1      -2.691   0.409   0.000  0.00  0.00     0.279 C 
ATOM     20  O   UNL d   1      -2.273  -0.293   0.000  0.00  0.00    -0.265 OA
ATOM     21  N   UNL d   1      -2.279   1.132   0.000  0.00  0.00    -0.206 NA
BRANCH  21  22
ATOM     22  C   UNL d   1      -1.444   1.141   0.000  0.00  0.00     0.102 C 
BRANCH  22  23
ATOM     23  C   UNL d   1      -1.033   1.862   0.000  0.00  0.00     0.021 C 
BRANCH  23  24
ATOM     24  C   UNL d   1      -0.204   1.862   0.000  0.00  0.00     0.002 A 
ATOM     25  C   UNL d   1       0.208   2.570   0.000  0.00  0.00     0.000 A 
ATOM     26  C   UNL d   1       1.037   2.570   0.000  0.00  0.00     0.000 A 
ATOM     27  C   UNL d   1       1.452   1.862   0.000  0.00  0.00     0.000 A 
ATOM     28  C   UNL d   1       1.037   1.141   0.000  0.00  0.00     0.000 A 
ATOM     29  C   UNL d   1       0.208   1.141   0.000  0.00  0.00     0.000 A 
ENDBRANCH  23  24
ENDBRANCH  22  23
ENDBRANCH  21  22
ENDBRANCH   4  19
TORSDOF 6
