REMARK  1 active torsions:
REMARK  status: ('A' for Active; 'I' for Inactive)
REMARK    1  A    between atoms: C_7  and  C_1 
ROOT
ATOM      1  C   UNL d   1       2.448   0.826   0.000  0.00  0.00     0.122 A 
ATOM      2  C   UNL d   1       1.009   0.826   0.000  0.00  0.00     0.057 A 
ATOM      3  C   UNL d   1       1.009   0.000   0.000  0.00  0.00     0.085 A 
ATOM      4  C   UNL d   1       1.724   1.237   0.000  0.00  0.00     0.204 A 
ATOM      5  N   UNL d   1       1.738  -0.405   0.000  0.00  0.00    -0.244 NA
ATOM      6  C   UNL d   1       0.300  -0.417   0.000  0.00  0.00     0.028 A 
ATOM      7  C   UNL d   1       2.448   0.000   0.000  0.00  0.00     0.108 A 
ATOM      8  C   UNL d   1       0.300   1.237   0.000  0.00  0.00     0.006 A 
ATOM      9  C   UNL d   1      -0.403  -0.004   0.000  0.00  0.00     0.059 A 
ATOM     10  C   UNL d   1      -0.403   0.817   0.000  0.00  0.00     0.012 A 
ATOM     11  O   UNL d   1       1.724   2.059   0.000  0.00  0.00    -0.286 OA
ATOM     12 CL   UNL d   1      -1.128  -0.417   0.000  0.00  0.00    -0.082 Cl
ATOM     13  C   UNL d   1       0.300  -1.255   0.000  0.00  0.00     0.002 C 
ENDROOT
BRANCH   1  14
ATOM     14  C   UNL d   1       3.164   1.252   0.000  0.00  0.00     0.216 C 
ATOM     15  O   UNL d   1       3.164   2.080   0.000  0.00  0.00    -0.644 OA
ATOM     16  O   UNL d   1       3.886   0.840   0.000  0.00  0.00    -0.644 OA
ENDBRANCH   1  14
TORSDOF 1
