REMARK  4 active torsions:
REMARK  status: ('A' for Active; 'I' for Inactive)
REMARK    1  A    between atoms: C_6  and  C_1 
REMARK    2  A    between atoms: C_7  and  C_4 
REMARK       I    between atoms: N_9  and  C_6 
REMARK    3  A    between atoms: C_23  and  N_9 
REMARK    4  A    between atoms: C_11  and  C_23 
ROOT
ATOM      1  C   UNL d   1      -4.077   5.155   0.000  0.00  0.00     0.168 A 
ATOM      2  N   UNL d   1      -4.726   5.647   0.000  0.00  0.00    -0.121 NA
ATOM      3  C   UNL d   1      -3.397   5.633   0.000  0.00  0.00     0.053 A 
ATOM      4  C   UNL d   1      -3.643   6.413   0.000  0.00  0.00     0.127 A 
ATOM      5  O   UNL d   1      -4.466   6.417   0.000  0.00  0.00    -0.211 OA
ENDROOT
BRANCH   1   6
ATOM      6  C   UNL d   1      -4.037   3.538   0.000  0.00  0.00     0.299 C 
ATOM      7  N   UNL d   1      -4.780   3.109   0.000  0.00  0.00    -0.203 NA
ATOM      8  O   UNL d   1      -3.339   3.109   0.000  0.00  0.00    -0.263 OA
BRANCH   7   9
ATOM      9  C   UNL d   1      -4.780   2.247   0.000  0.00  0.00     0.127 C 
BRANCH   9  10
ATOM     10  C   UNL d   1      -4.037   1.811   0.000  0.00  0.00     0.119 A 
ATOM     11  O   UNL d   1      -3.946   0.961   0.000  0.00  0.00    -0.304 OA
ATOM     12  C   UNL d   1      -3.114   0.785   0.000  0.00  0.00     0.123 A 
ATOM     13  C   UNL d   1      -2.676   1.539   0.000  0.00  0.00     0.029 A 
ATOM     14  C   UNL d   1      -3.259   2.177   0.000  0.00  0.00     0.028 A 
ENDBRANCH   9  10
ENDBRANCH   7   9
ENDBRANCH   1   6
BRANCH   4  15
ATOM     15  C   UNL d   1      -3.191   7.080   0.000  0.00  0.00     0.027 A 
ATOM     16  C   UNL d   1      -2.373   7.024   0.000  0.00  0.00     0.028 A 
ATOM     17  C   UNL d   1      -1.926   7.697   0.000  0.00  0.00     0.119 A 
ATOM     18  O   UNL d   1      -1.118   7.809   0.000  0.00  0.00    -0.300 OA
ATOM     19  C   UNL d   1      -2.268   8.435   0.000  0.00  0.00     0.119 A 
ATOM     20  C   UNL d   1      -0.968   8.606   0.000  0.00  0.00     0.304 A 
ATOM     21  O   UNL d   1      -1.680   8.997   0.000  0.00  0.00    -0.300 OA
ATOM     22  C   UNL d   1      -3.090   8.500   0.000  0.00  0.00     0.026 A 
ATOM     23  C   UNL d   1      -3.538   7.833   0.000  0.00  0.00     0.004 A 
ENDBRANCH   4  15
TORSDOF 4
