REMARK  1 active torsions:
REMARK  status: ('A' for Active; 'I' for Inactive)
REMARK    1  A    between atoms: C_6  and  C_1 
ROOT
ATOM      1  C   UNL d   1       4.936  -2.624   0.000  0.00  0.00     0.111 A 
ATOM      2  N   UNL d   1       4.853  -3.441   0.000  0.00  0.00    -0.239 NA
ATOM      3  S   UNL d   1       4.191  -2.287   0.000  0.00  0.00    -0.066 SA
ATOM      4  C   UNL d   1       4.041  -3.616   0.000  0.00  0.00     0.088 A 
ATOM      5  C   UNL d   1       3.628  -2.904   0.000  0.00  0.00     0.049 A 
ATOM      6  C   UNL d   1       3.628  -4.328   0.000  0.00  0.00     0.020 A 
ATOM      7  C   UNL d   1       2.804  -2.904   0.000  0.00  0.00     0.008 A 
ATOM      8  C   UNL d   1       2.391  -3.616   0.000  0.00  0.00     0.001 A 
ATOM      9  C   UNL d   1       2.804  -4.328   0.000  0.00  0.00     0.002 A 
ENDROOT
BRANCH   1  10
ATOM     10  C   UNL d   1       5.674  -2.241   0.000  0.00  0.00     0.024 A 
ATOM     11  C   UNL d   1       5.715  -1.416   0.000  0.00  0.00     0.004 A 
ATOM     12  C   UNL d   1       6.453  -1.042   0.000  0.00  0.00     0.021 A 
ATOM     13  C   UNL d   1       7.152  -1.491   0.000  0.00  0.00     0.103 A 
ATOM     14  C   UNL d   1       7.103  -2.316   0.000  0.00  0.00     0.021 A 
ATOM     15  N   UNL d   1       7.890  -1.112   0.000  0.00  0.00    -0.148 N 
ATOM     16  C   UNL d   1       6.365  -2.691   0.000  0.00  0.00     0.004 A 
ENDBRANCH   1  10
TORSDOF 1
