REMARK  5 active torsions:
REMARK  status: ('A' for Active; 'I' for Inactive)
REMARK    1  A    between atoms: C_7  and  C_1 
REMARK    2  A    between atoms: C_13  and  C_2 
REMARK    3  A    between atoms: C_12  and  N_3 
REMARK    4  A    between atoms: C_4  and  C_7 
REMARK    5  A    between atoms: O_17  and  C_13 
ROOT
ATOM      1  N   UNL d   1       9.203  -4.557   0.000  0.00  0.00    -0.305 N 
ATOM      2  C   UNL d   1       7.899  -4.841   0.000  0.00  0.00     0.018 A 
ATOM      3  C   UNL d   1       9.123  -5.372   0.000  0.00  0.00     0.064 A 
ATOM      4  C   UNL d   1       8.449  -4.220   0.000  0.00  0.00     0.064 A 
ATOM      5  C   UNL d   1       8.307  -5.550   0.000  0.00  0.00     0.019 A 
ATOM      6  C   UNL d   1       9.734  -5.922   0.000  0.00  0.00     0.019 C 
ATOM      7  C   UNL d   1       8.272  -3.413   0.000  0.00  0.00     0.019 C 
ENDROOT
BRANCH   2   8
ATOM      8  C   UNL d   1       7.075  -4.761   0.000  0.00  0.00     0.006 C 
BRANCH   8   9
ATOM      9  C   UNL d   1       6.596  -5.426   0.000  0.00  0.00     0.065 A 
ATOM     10  C   UNL d   1       5.771  -5.426   0.000  0.00  0.00     0.086 A 
ATOM     11  C   UNL d   1       5.514  -6.215   0.000  0.00  0.00     0.090 A 
ATOM     12  C   UNL d   1       4.734  -6.463   0.000  0.00  0.00     0.021 C 
ATOM     13  N   UNL d   1       6.179  -6.702   0.000  0.00  0.00    -0.208 NA
ATOM     14  C   UNL d   1       6.853  -6.215   0.000  0.00  0.00     0.279 A 
ATOM     15  O   UNL d   1       7.633  -6.463   0.000  0.00  0.00    -0.265 OA
BRANCH  10  16
ATOM     16  C   UNL d   1       5.284  -4.761   0.000  0.00  0.00     0.297 C 
ATOM     17  O   UNL d   1       5.612  -3.998   0.000  0.00  0.00    -0.259 OA
BRANCH  16  18
ATOM     18  O   UNL d   1       4.459  -4.841   0.000  0.00  0.00    -0.296 OA
ATOM     19  C   UNL d   1       3.972  -4.176   0.000  0.00  0.00     0.185 C 
ENDBRANCH  16  18
ENDBRANCH  10  16
ENDBRANCH   8   9
ENDBRANCH   2   8
BRANCH   1  20
ATOM     20  C   UNL d   1       9.921  -4.149   0.000  0.00  0.00     0.092 A 
ATOM     21  C   UNL d   1      10.621  -4.557   0.000  0.00  0.00     0.156 A 
ATOM     22  F   UNL d   1      10.621  -5.381   0.000  0.00  0.00    -0.203 F 
ATOM     23  C   UNL d   1      11.348  -4.149   0.000  0.00  0.00     0.031 A 
ATOM     24  C   UNL d   1      11.339  -3.316   0.000  0.00  0.00     0.002 A 
ATOM     25  C   UNL d   1      10.621  -2.908   0.000  0.00  0.00     0.002 A 
ATOM     26  C   UNL d   1       9.912  -3.325   0.000  0.00  0.00     0.020 A 
ENDBRANCH   1  20
TORSDOF 5
