REMARK  7 active torsions:
REMARK  status: ('A' for Active; 'I' for Inactive)
REMARK    1  A    between atoms: C_10  and  N_2 
REMARK    2  A    between atoms: S_11  and  C_5 
REMARK    3  A    between atoms: C_12  and  C_10 
REMARK    4  A    between atoms: C_22  and  S_11 
REMARK    5  A    between atoms: C_14  and  C_22 
REMARK       I    between atoms: N_16  and  C_14 
REMARK    6  A    between atoms: C_23  and  N_16 
REMARK    7  A    between atoms: C_24  and  C_23 
ROOT
ATOM      1  C   UNL d   1       3.404  -3.994   0.000  0.00  0.00     0.104 A 
ATOM      2  N   UNL d   1       4.827  -3.994   0.000  0.00  0.00    -0.250 N 
ATOM      3  C   UNL d   1       3.404  -4.827   0.000  0.00  0.00     0.095 A 
ATOM      4  C   UNL d   1       4.118  -3.582   0.000  0.00  0.00     0.274 A 
ATOM      5  C   UNL d   1       4.827  -4.827   0.000  0.00  0.00     0.182 A 
ATOM      6  N   UNL d   1       4.118  -5.239   0.000  0.00  0.00    -0.222 NA
ATOM      7  S   UNL d   1       2.606  -3.743   0.000  0.00  0.00    -0.081 SA
ATOM      8  C   UNL d   1       2.606  -5.077   0.000  0.00  0.00     0.024 A 
ATOM      9  C   UNL d   1       2.121  -4.417   0.000  0.00  0.00     0.031 A 
ATOM     10  O   UNL d   1       4.118  -2.743   0.000  0.00  0.00    -0.266 OA
ATOM     11  C   UNL d   1       2.272  -5.832   0.000  0.00  0.00     0.002 A 
ATOM     12  C   UNL d   1       1.296  -4.490   0.000  0.00  0.00     0.006 A 
ATOM     13  C   UNL d   1       1.450  -5.926   0.000  0.00  0.00     0.000 A 
ATOM     14  C   UNL d   1       0.962  -5.250   0.000  0.00  0.00     0.001 A 
ENDROOT
BRANCH   5  15
ATOM     15  S   UNL d   1       5.549  -5.247   0.000  0.00  0.00    -0.044 SA
BRANCH  15  16
ATOM     16  C   UNL d   1       6.274  -4.827   0.000  0.00  0.00     0.101 C 
BRANCH  16  17
ATOM     17  C   UNL d   1       6.985  -5.239   0.000  0.00  0.00     0.286 C 
ATOM     18  N   UNL d   1       7.697  -4.821   0.000  0.00  0.00    -0.204 NA
ATOM     19  O   UNL d   1       6.985  -6.064   0.000  0.00  0.00    -0.265 OA
BRANCH  18  20
ATOM     20  C   UNL d   1       8.411  -5.234   0.000  0.00  0.00     0.127 C 
BRANCH  20  21
ATOM     21  C   UNL d   1       9.122  -4.821   0.000  0.00  0.00     0.119 A 
ATOM     22  O   UNL d   1       9.928  -4.999   0.000  0.00  0.00    -0.304 OA
ATOM     23  C   UNL d   1      10.348  -4.293   0.000  0.00  0.00     0.123 A 
ATOM     24  C   UNL d   1       9.801  -3.673   0.000  0.00  0.00     0.029 A 
ATOM     25  C   UNL d   1       9.050  -4.005   0.000  0.00  0.00     0.028 A 
ENDBRANCH  20  21
ENDBRANCH  18  20
ENDBRANCH  16  17
ENDBRANCH  15  16
ENDBRANCH   5  15
BRANCH   2  26
ATOM     26  C   UNL d   1       5.549  -3.582   0.000  0.00  0.00     0.110 C 
BRANCH  26  27
ATOM     27  C   UNL d   1       5.557  -2.752   0.000  0.00  0.00     0.118 A 
ATOM     28  O   UNL d   1       6.225  -2.291   0.000  0.00  0.00    -0.304 OA
ATOM     29  C   UNL d   1       5.994  -1.520   0.000  0.00  0.00     0.123 A 
ATOM     30  C   UNL d   1       5.190  -1.498   0.000  0.00  0.00     0.029 A 
ATOM     31  C   UNL d   1       4.926  -2.258   0.000  0.00  0.00     0.028 A 
ENDBRANCH  26  27
ENDBRANCH   2  26
TORSDOF 7
