REMARK  6 active torsions:
REMARK  status: ('A' for Active; 'I' for Inactive)
REMARK    1  A    between atoms: N_2  and  S_1 
REMARK    2  A    between atoms: C_16  and  S_1 
REMARK    3  A    between atoms: C_4  and  C_3 
REMARK       I    between atoms: N_6  and  C_4 
REMARK    4  A    between atoms: C_15  and  N_6 
REMARK    5  A    between atoms: C_9  and  C_15 
REMARK    6  A    between atoms: C_20  and  C_16 
ROOT
ATOM      1  N   UNL d   1       3.240  -1.129   0.000  0.00  0.00    -0.229 N 
ATOM      2  C   UNL d   1       3.946  -2.367   0.000  0.00  0.00     0.076 A 
ATOM      3  C   UNL d   1       3.240  -1.956   0.000  0.00  0.00     0.096 A 
ATOM      4  C   UNL d   1       3.946  -0.717   0.000  0.00  0.00     0.092 A 
ATOM      5  C   UNL d   1       4.657  -1.956   0.000  0.00  0.00     0.008 A 
ATOM      6  C   UNL d   1       4.657  -1.129   0.000  0.00  0.00     0.020 A 
ENDROOT
BRANCH   2   7
ATOM      7  C   UNL d   1       3.955  -3.194   0.000  0.00  0.00     0.281 C 
ATOM      8  N   UNL d   1       4.668  -3.608   0.000  0.00  0.00    -0.204 NA
ATOM      9  O   UNL d   1       3.232  -3.608   0.000  0.00  0.00    -0.265 OA
BRANCH   8  10
ATOM     10  C   UNL d   1       5.380  -3.194   0.000  0.00  0.00     0.127 C 
BRANCH  10  11
ATOM     11  C   UNL d   1       6.095  -3.608   0.000  0.00  0.00     0.119 A 
ATOM     12  O   UNL d   1       6.848  -3.269   0.000  0.00  0.00    -0.304 OA
ATOM     13  C   UNL d   1       7.402  -3.882   0.000  0.00  0.00     0.123 A 
ATOM     14  C   UNL d   1       6.987  -4.597   0.000  0.00  0.00     0.029 A 
ATOM     15  C   UNL d   1       6.182  -4.420   0.000  0.00  0.00     0.028 A 
ENDBRANCH  10  11
ENDBRANCH   8  10
ENDBRANCH   2   7
BRANCH   1  16
ATOM     16  S   UNL d   1       2.517  -0.717   0.000  0.00  0.00     0.272 S 
ATOM     17  O   UNL d   1       2.113  -1.417   0.000  0.00  0.00    -0.200 OA
ATOM     18  O   UNL d   1       2.939  -0.002   0.000  0.00  0.00    -0.200 OA
BRANCH  16  19
ATOM     19  C   UNL d   1       1.793  -0.314   0.000  0.00  0.00     0.116 C 
BRANCH  19  20
ATOM     20  C   UNL d   1       1.077  -0.729   0.000  0.00  0.00     0.014 C 
ATOM     21  C   UNL d   1       0.366  -0.314   0.000  0.00  0.00     0.001 C 
ENDBRANCH  19  20
ENDBRANCH  16  19
ENDBRANCH   1  16
TORSDOF 6
