REMARK  4 active torsions:
REMARK  status: ('A' for Active; 'I' for Inactive)
REMARK    1  A    between atoms: C_2  and  S_1 
REMARK    2  A    between atoms: N_3  and  S_1 
REMARK    3  A    between atoms: C_7  and  C_14 
REMARK       I    between atoms: N_9  and  C_7 
REMARK    4  A    between atoms: C_13  and  N_10 
ROOT
ATOM      1  N   UNL d   1       8.603 -22.699   0.000  0.00  0.00    -0.229 N 
ATOM      2  C   UNL d   1       7.488 -21.466   0.000  0.00  0.00     0.060 A 
ATOM      3  C   UNL d   1       7.796 -22.877   0.000  0.00  0.00     0.092 A 
ATOM      4  C   UNL d   1       8.846 -21.912   0.000  0.00  0.00     0.092 A 
ATOM      5  C   UNL d   1       8.295 -21.302   0.000  0.00  0.00     0.025 A 
ATOM      6  C   UNL d   1       7.232 -22.253   0.000  0.00  0.00     0.025 A 
ENDROOT
BRANCH   2   7
ATOM      7  C   UNL d   1       6.936 -20.855   0.000  0.00  0.00     0.265 C 
ATOM      8  N   UNL d   1       6.142 -21.013   0.000  0.00  0.00    -0.269 N 
ATOM      9  C   UNL d   1       5.873 -21.800   0.000  0.00  0.00     0.102 A 
ATOM     10  C   UNL d   1       5.591 -20.402   0.000  0.00  0.00     0.102 A 
ATOM     11  C   UNL d   1       5.066 -21.971   0.000  0.00  0.00     0.100 A 
ATOM     12  N   UNL d   1       4.515 -21.348   0.000  0.00  0.00    -0.301 N 
ATOM     13  C   UNL d   1       4.784 -20.560   0.000  0.00  0.00     0.100 A 
ATOM     14  O   UNL d   1       7.205 -20.068   0.000  0.00  0.00    -0.267 OA
BRANCH  12  15
ATOM     15  C   UNL d   1       3.728 -21.072   0.000  0.00  0.00     0.064 A 
ATOM     16  C   UNL d   1       2.920 -21.242   0.000  0.00  0.00     0.020 A 
ATOM     17  C   UNL d   1       2.369 -20.619   0.000  0.00  0.00     0.031 A 
ATOM     18  C   UNL d   1       2.645 -19.832   0.000  0.00  0.00     0.140 A 
ATOM     19  C   UNL d   1       3.452 -19.668   0.000  0.00  0.00     0.031 A 
ATOM     20  F   UNL d   1       2.094 -19.195   0.000  0.00  0.00    -0.204 F 
ATOM     21  C   UNL d   1       3.997 -20.297   0.000  0.00  0.00     0.020 A 
ENDBRANCH  12  15
ENDBRANCH   2   7
BRANCH   1  22
ATOM     22  S   UNL d   1       9.155 -23.310   0.000  0.00  0.00     0.275 S 
ATOM     23  O   UNL d   1       9.765 -22.745   0.000  0.00  0.00    -0.199 OA
ATOM     24  O   UNL d   1       8.531 -23.867   0.000  0.00  0.00    -0.199 OA
BRANCH  22  25
ATOM     25  C   UNL d   1       9.712 -23.927   0.000  0.00  0.00     0.148 A 
ATOM     26  C   UNL d   1      10.533 -23.927   0.000  0.00  0.00     0.139 A 
ATOM     27  O   UNL d   1      10.789 -24.707   0.000  0.00  0.00    -0.210 OA
ATOM     28  C   UNL d   1      11.012 -23.251   0.000  0.00  0.00     0.030 C 
ATOM     29  N   UNL d   1      10.126 -25.200   0.000  0.00  0.00    -0.126 NA
ATOM     30  C   UNL d   1       9.450 -24.707   0.000  0.00  0.00     0.122 A 
ATOM     31  C   UNL d   1       8.662 -24.963   0.000  0.00  0.00     0.024 C 
ENDBRANCH  22  25
ENDBRANCH   1  22
TORSDOF 4
