REMARK  4 active torsions:
REMARK  status: ('A' for Active; 'I' for Inactive)
REMARK    1  A    between atoms: C_10  and  C_1 
REMARK    2  A    between atoms: C_18  and  N_6 
REMARK       I    between atoms: N_13  and  C_10 
REMARK    3  A    between atoms: C_12  and  C_20 
REMARK    4  A    between atoms: C_20  and  N_13 
ROOT
ATOM      1  C   UNL d   1      -3.865   4.212   0.000  0.00  0.00     0.077 A 
ATOM      2  C   UNL d   1      -3.156   5.463   0.000  0.00  0.00     0.121 A 
ATOM      3  C   UNL d   1      -3.156   4.635   0.000  0.00  0.00     0.028 A 
ATOM      4  C   UNL d   1      -3.880   5.874   0.000  0.00  0.00     0.281 A 
ATOM      5  N   UNL d   1      -2.374   5.712   0.000  0.00  0.00    -0.300 N 
ATOM      6  N   UNL d   1      -4.594   5.463   0.000  0.00  0.00    -0.272 N 
ATOM      7  C   UNL d   1      -4.588   4.621   0.000  0.00  0.00     0.088 A 
ATOM      8  C   UNL d   1      -2.363   4.386   0.000  0.00  0.00     0.018 A 
ATOM      9  C   UNL d   1      -1.892   5.063   0.000  0.00  0.00     0.064 A 
ATOM     10  O   UNL d   1      -3.880   6.712   0.000  0.00  0.00    -0.265 OA
ATOM     11  C   UNL d   1      -2.137   6.511   0.000  0.00  0.00     0.100 C 
ATOM     12  C   UNL d   1      -2.025   3.644   0.000  0.00  0.00     0.002 A 
ATOM     13  C   UNL d   1      -1.071   4.974   0.000  0.00  0.00     0.018 A 
ATOM     14  C   UNL d   1      -1.203   3.567   0.000  0.00  0.00     0.000 A 
ATOM     15  C   UNL d   1      -0.728   4.224   0.000  0.00  0.00     0.002 A 
ENDROOT
BRANCH   1  16
ATOM     16  C   UNL d   1      -3.865   3.394   0.000  0.00  0.00     0.281 C 
ATOM     17  N   UNL d   1      -4.577   2.979   0.000  0.00  0.00    -0.204 NA
ATOM     18  O   UNL d   1      -3.147   2.979   0.000  0.00  0.00    -0.265 OA
BRANCH  17  19
ATOM     19  C   UNL d   1      -4.577   2.156   0.000  0.00  0.00     0.127 C 
BRANCH  19  20
ATOM     20  C   UNL d   1      -5.295   1.747   0.000  0.00  0.00     0.119 A 
ATOM     21  O   UNL d   1      -6.048   2.081   0.000  0.00  0.00    -0.306 OA
ATOM     22  C   UNL d   1      -6.598   1.463   0.000  0.00  0.00     0.100 A 
ATOM     23  C   UNL d   1      -7.413   1.546   0.000  0.00  0.00     0.027 C 
ATOM     24  C   UNL d   1      -6.196   0.759   0.000  0.00  0.00     0.027 A 
ATOM     25  C   UNL d   1      -5.388   0.925   0.000  0.00  0.00     0.028 A 
ENDBRANCH  19  20
ENDBRANCH  17  19
ENDBRANCH   1  16
BRANCH   6  26
ATOM     26  C   UNL d   1      -5.307   5.874   0.000  0.00  0.00     0.067 A 
ATOM     27  C   UNL d   1      -5.388   6.694   0.000  0.00  0.00     0.018 A 
ATOM     28  C   UNL d   1      -6.187   6.862   0.000  0.00  0.00     0.002 A 
ATOM     29  C   UNL d   1      -6.598   6.150   0.000  0.00  0.00     0.002 A 
ATOM     30  C   UNL d   1      -6.048   5.538   0.000  0.00  0.00     0.018 A 
ENDBRANCH   6  26
TORSDOF 4
