REMARK  5 active torsions:
REMARK  status: ('A' for Active; 'I' for Inactive)
REMARK    1  A    between atoms: C_2  and  C_1 
REMARK    2  A    between atoms: N_13  and  C_7 
REMARK    3  A    between atoms: C_12  and  C_21 
REMARK    4  A    between atoms: C_21  and  N_13 
REMARK    5  A    between atoms: O_24  and  C_22 
ROOT
ATOM      1  C   UNL d   1       4.431  -3.874   0.000  0.00  0.00     0.089 A 
ATOM      2  C   UNL d   1       4.431  -4.697   0.000  0.00  0.00     0.302 A 
ATOM      3  C   UNL d   1       3.712  -3.460   0.000  0.00  0.00     0.009 A 
ATOM      4  O   UNL d   1       3.712  -5.109   0.000  0.00  0.00    -0.273 OA
ATOM      5  C   UNL d   1       2.998  -3.874   0.000  0.00  0.00     0.025 A 
ATOM      6  C   UNL d   1       2.998  -4.697   0.000  0.00  0.00     0.103 A 
ATOM      7  O   UNL d   1       5.147  -5.122   0.000  0.00  0.00    -0.259 OA
ATOM      8  C   UNL d   1       2.289  -3.460   0.000  0.00  0.00     0.026 A 
ATOM      9  C   UNL d   1       2.289  -5.109   0.000  0.00  0.00     0.027 A 
ATOM     10  C   UNL d   1       1.573  -3.882   0.000  0.00  0.00     0.094 A 
ATOM     11  C   UNL d   1       1.573  -4.697   0.000  0.00  0.00     0.026 A 
ENDROOT
BRANCH   1  12
ATOM     12  C   UNL d   1       5.147  -3.460   0.000  0.00  0.00     0.140 A 
ATOM     13  S   UNL d   1       5.917  -3.768   0.000  0.00  0.00    -0.026 SA
ATOM     14  C   UNL d   1       6.440  -3.132   0.000  0.00  0.00     0.216 A 
ATOM     15  N   UNL d   1       5.993  -2.439   0.000  0.00  0.00    -0.121 NA
ATOM     16  N   UNL d   1       5.198  -2.645   0.000  0.00  0.00    -0.139 NA
BRANCH  14  17
ATOM     17  N   UNL d   1       7.266  -3.173   0.000  0.00  0.00    -0.216 NA
BRANCH  17  18
ATOM     18  C   UNL d   1       7.639  -3.910   0.000  0.00  0.00     0.126 C 
BRANCH  18  19
ATOM     19  C   UNL d   1       8.468  -3.956   0.000  0.00  0.00     0.119 A 
ATOM     20  O   UNL d   1       8.994  -4.591   0.000  0.00  0.00    -0.304 OA
ATOM     21  C   UNL d   1       9.756  -4.294   0.000  0.00  0.00     0.123 A 
ATOM     22  C   UNL d   1       9.713  -3.483   0.000  0.00  0.00     0.029 A 
ATOM     23  C   UNL d   1       8.912  -3.262   0.000  0.00  0.00     0.028 A 
ENDBRANCH  18  19
ENDBRANCH  17  18
ENDBRANCH  14  17
ENDBRANCH   1  12
BRANCH  10  24
ATOM     24  O   UNL d   1       0.864  -3.460   0.000  0.00  0.00    -0.328 OA
ATOM     25  C   UNL d   1       0.864  -2.632   0.000  0.00  0.00     0.181 C 
ENDBRANCH  10  24
TORSDOF 5
