REMARK  4 active torsions:
REMARK  status: ('A' for Active; 'I' for Inactive)
REMARK    1  A    between atoms: O_2  and  P_1 
REMARK    2  A    between atoms: C_6  and  P_1 
REMARK    3  A    between atoms: C_3  and  O_2 
REMARK    4  A    between atoms: C_10  and  C_4 
ROOT
ATOM      1  C   UNL d   1      -2.158   1.641   0.000  0.00  0.00     0.103 A 
ATOM      2  C   UNL d   1      -2.955   1.863   0.000  0.00  0.00     0.023 A 
ATOM      3  C   UNL d   1      -3.177   2.637   0.000  0.00  0.00     0.002 A 
ATOM      4  C   UNL d   1      -1.586   2.236   0.000  0.00  0.00     0.025 A 
ATOM      5  C   UNL d   1      -2.600   3.232   0.000  0.00  0.00     0.000 A 
ATOM      6  C   UNL d   1      -1.807   3.011   0.000  0.00  0.00     0.002 A 
ATOM      7  C   UNL d   1      -1.212   3.592   0.000  0.00  0.00     0.000 C 
ENDROOT
BRANCH   1   8
ATOM      8  O   UNL d   1      -1.936   0.844   0.000  0.00  0.00    -0.269 OA
BRANCH   8   9
ATOM      9  P   UNL d   1      -1.143   0.645   0.000  0.00  0.00     0.370 P 
ATOM     10  O   UNL d   1      -0.941   1.438   0.000  0.00  0.00    -0.257 OA
ATOM     11  N   UNL d   1      -1.365  -0.171   0.000  0.00  0.00    -0.091 N 
BRANCH   9  12
ATOM     12  C   UNL d   1      -0.346   0.424   0.000  0.00  0.00     0.077 A 
ATOM     13  C   UNL d   1       0.226   1.019   0.000  0.00  0.00     0.007 A 
ATOM     14  C   UNL d   1       1.028   0.798   0.000  0.00  0.00     0.000 A 
ATOM     15  C   UNL d   1       1.250   0.000   0.000  0.00  0.00     0.000 A 
ATOM     16  C   UNL d   1       0.669  -0.572   0.000  0.00  0.00     0.000 A 
ATOM     17  C   UNL d   1      -0.124  -0.373   0.000  0.00  0.00     0.007 A 
ENDBRANCH   9  12
ENDBRANCH   8   9
ENDBRANCH   1   8
BRANCH   2  18
ATOM     18  C   UNL d   1      -3.536   1.286   0.000  0.00  0.00     0.002 C 
ATOM     19  C   UNL d   1      -3.333   0.493   0.000  0.00  0.00     0.000 C 
ATOM     20  C   UNL d   1      -4.329   1.508   0.000  0.00  0.00     0.000 C 
ENDBRANCH   2  18
TORSDOF 4
