REMARK  1 active torsions:
REMARK  status: ('A' for Active; 'I' for Inactive)
REMARK    1  A    between atoms: C_4  and  C_2 
ROOT
ATOM      1  C   UNL d   1      -0.840   1.284   0.000  0.00  0.00     0.141 C 
ATOM      2  C   UNL d   1      -1.179   2.030   0.000  0.00  0.00     0.112 C 
ATOM      3  C   UNL d   1      -0.011   1.197   0.000  0.00  0.00     0.112 C 
ATOM      4  N   UNL d   1       0.837   1.100   0.000  0.00  0.00    -0.191 NA
ATOM      5  N   UNL d   1      -1.515   2.799   0.000  0.00  0.00    -0.191 NA
ENDROOT
BRANCH   1   6
ATOM      6  C   UNL d   1      -1.338   0.617   0.000  0.00  0.00     0.079 A 
ATOM      7  C   UNL d   1      -1.078  -0.144   0.000  0.00  0.00     0.281 A 
ATOM      8  N   UNL d   1      -1.727  -0.638   0.000  0.00  0.00    -0.208 NA
ATOM      9  O   UNL d   1      -0.271  -0.361   0.000  0.00  0.00    -0.265 OA
ATOM     10  C   UNL d   1      -2.391  -0.177   0.000  0.00  0.00     0.085 A 
ATOM     11  C   UNL d   1      -3.199  -0.371   0.000  0.00  0.00     0.019 A 
ATOM     12  C   UNL d   1      -2.160   0.617   0.000  0.00  0.00     0.024 A 
ATOM     13  C   UNL d   1      -3.751   0.213   0.000  0.00  0.00     0.002 A 
ATOM     14  C   UNL d   1      -3.505   1.013   0.000  0.00  0.00     0.000 A 
ATOM     15  C   UNL d   1      -2.701   1.197   0.000  0.00  0.00     0.002 A 
ENDBRANCH   1   6
TORSDOF 1
