REMARK  4 active torsions:
REMARK  status: ('A' for Active; 'I' for Inactive)
REMARK    1  A    between atoms: C_15  and  C_2 
REMARK    2  A    between atoms: C_6  and  S_16 
REMARK    3  A    between atoms: N_8  and  C_11 
REMARK    4  A    between atoms: S_16  and  C_15 
ROOT
ATOM      1  C   UNL d   1       0.425   1.376   0.000  0.00  0.00     0.141 A 
ATOM      2  N   UNL d   1       0.891   0.713   0.000  0.00  0.00    -0.232 NA
ATOM      3  S   UNL d   1       0.914   2.043   0.000  0.00  0.00    -0.060 SA
ATOM      4  C   UNL d   1       1.687   0.955   0.000  0.00  0.00     0.090 A 
ATOM      5  C   UNL d   1       3.127   0.929   0.000  0.00  0.00     0.128 A 
ATOM      6  C   UNL d   1       1.710   1.770   0.000  0.00  0.00     0.049 A 
ATOM      7  C   UNL d   1       2.392   0.519   0.000  0.00  0.00     0.043 A 
ATOM      8  C   UNL d   1       3.143   1.740   0.000  0.00  0.00     0.024 A 
ATOM      9  C   UNL d   1       2.438   2.168   0.000  0.00  0.00     0.010 A 
ENDROOT
BRANCH   1  10
ATOM     10  S   UNL d   1      -0.406   1.376   0.000  0.00  0.00    -0.059 SA
BRANCH  10  11
ATOM     11  C   UNL d   1      -0.815   0.667   0.000  0.00  0.00     0.059 C 
BRANCH  11  12
ATOM     12  C   UNL d   1      -1.649   0.667   0.000  0.00  0.00     0.112 A 
ATOM     13  C   UNL d   1      -2.123  -0.027   0.000  0.00  0.00     0.119 A 
ATOM     14  N   UNL d   1      -2.908   0.246   0.000  0.00  0.00    -0.284 N 
ATOM     15 BR   UNL d   1      -1.850  -0.807   0.000  0.00  0.00    -0.028 Br
ATOM     16  C   UNL d   1      -2.908   1.065   0.000  0.00  0.00     0.148 A 
ATOM     17  C   UNL d   1      -3.613  -0.171   0.000  0.00  0.00     0.082 A 
ATOM     18  N   UNL d   1      -2.123   1.319   0.000  0.00  0.00    -0.226 NA
ATOM     19  C   UNL d   1      -3.613   1.486   0.000  0.00  0.00     0.037 A 
ATOM     20  C   UNL d   1      -4.322   1.065   0.000  0.00  0.00     0.005 A 
ATOM     21  C   UNL d   1      -4.322   0.246   0.000  0.00  0.00     0.019 A 
ENDBRANCH  11  12
ENDBRANCH  10  11
ENDBRANCH   1  10
BRANCH   5  22
ATOM     22  N   UNL d   1       3.848   0.474   0.000  0.00  0.00    -0.114 N 
ATOM     23  O   UNL d   1       3.821  -0.352   0.000  0.00  0.00    -0.532 OA
ATOM     24  O   UNL d   1       4.576   0.864   0.000  0.00  0.00    -0.532 OA
ENDBRANCH   5  22
TORSDOF 4
