REMARK  4 active torsions:
REMARK  status: ('A' for Active; 'I' for Inactive)
REMARK    1  A    between atoms: C_7  and  C_1 
REMARK    2  A    between atoms: C_6  and  N_2 
REMARK    3  A    between atoms: C_8  and  C_6 
REMARK    4  A    between atoms: C_9  and  C_7 
ROOT
ATOM      1  C   UNL d   1       2.691   4.206   0.000  0.00  0.00     0.148 A 
ATOM      2  N   UNL d   1       2.254   3.546   0.000  0.00  0.00    -0.289 N 
ATOM      3  N   UNL d   1       2.254   4.864   0.000  0.00  0.00    -0.227 NA
ATOM      4  C   UNL d   1       1.429   3.793   0.000  0.00  0.00     0.083 A 
ATOM      5  C   UNL d   1       1.429   4.591   0.000  0.00  0.00     0.099 A 
ATOM      6  C   UNL d   1       0.715   3.406   0.000  0.00  0.00     0.019 A 
ATOM      7  C   UNL d   1       0.715   5.056   0.000  0.00  0.00     0.021 A 
ATOM      8  C   UNL d   1       0.000   3.793   0.000  0.00  0.00     0.002 A 
ATOM      9  C   UNL d   1       0.000   4.591   0.000  0.00  0.00     0.002 A 
ENDROOT
BRANCH   2  10
ATOM     10  C   UNL d   1       2.639   2.853   0.000  0.00  0.00     0.082 C 
BRANCH  10  11
ATOM     11  C   UNL d   1       2.254   2.148   0.000  0.00  0.00     0.018 A 
ATOM     12  C   UNL d   1       1.429   2.148   0.000  0.00  0.00     0.002 A 
ATOM     13  C   UNL d   1       0.990   1.434   0.000  0.00  0.00     0.000 A 
ATOM     14  C   UNL d   1       1.429   0.719   0.000  0.00  0.00     0.000 A 
ATOM     15  C   UNL d   1       2.254   0.719   0.000  0.00  0.00     0.000 A 
ATOM     16  C   UNL d   1       0.990   0.000   0.000  0.00  0.00     0.000 C 
ATOM     17  C   UNL d   1       2.639   1.434   0.000  0.00  0.00     0.002 A 
ENDBRANCH  10  11
ENDBRANCH   2  10
BRANCH   1  18
ATOM     18  C   UNL d   1       3.381   3.793   0.000  0.00  0.00     0.037 C 
BRANCH  18  19
ATOM     19  C   UNL d   1       4.096   4.206   0.000  0.00  0.00     0.003 A 
ATOM     20  C   UNL d   1       4.812   3.793   0.000  0.00  0.00     0.000 A 
ATOM     21  C   UNL d   1       5.527   4.206   0.000  0.00  0.00     0.000 A 
ATOM     22  C   UNL d   1       5.527   5.031   0.000  0.00  0.00     0.000 A 
ATOM     23  C   UNL d   1       4.812   5.468   0.000  0.00  0.00     0.000 A 
ATOM     24  C   UNL d   1       4.096   5.031   0.000  0.00  0.00     0.000 A 
ENDBRANCH  18  19
ENDBRANCH   1  18
TORSDOF 4
