REMARK  4 active torsions:
REMARK  status: ('A' for Active; 'I' for Inactive)
REMARK    1  A    between atoms: N_7  and  C_2 
REMARK    2  A    between atoms: C_5  and  C_10 
REMARK    3  A    between atoms: N_6  and  N_7 
REMARK    4  A    between atoms: C_10  and  N_6 
ROOT
ATOM      1  C   UNL d   1      -2.916   1.959   0.000  0.00  0.00     0.125 C 
ENDROOT
BRANCH   1   2
ATOM      2  C   UNL d   1      -3.445   1.310   0.000  0.00  0.00     0.060 A 
ATOM      3  C   UNL d   1      -4.264   1.444   0.000  0.00  0.00     0.197 A 
ATOM      4  C   UNL d   1      -4.788   0.795   0.000  0.00  0.00     0.043 A 
ATOM      5  O   UNL d   1      -4.576   2.205   0.000  0.00  0.00    -0.286 OA
ATOM      6  C   UNL d   1      -4.493   0.033   0.000  0.00  0.00     0.010 A 
ATOM      7  C   UNL d   1      -3.678  -0.092   0.000  0.00  0.00     0.035 A 
ATOM      8  C   UNL d   1      -3.145   0.532   0.000  0.00  0.00     0.011 A 
ATOM      9 BR   UNL d   1      -3.365  -0.878   0.000  0.00  0.00    -0.049 Br
ENDBRANCH   1   2
BRANCH   1  10
ATOM     10  N   UNL d   1      -2.080   1.847   0.000  0.00  0.00    -0.144 NA
BRANCH  10  11
ATOM     11  N   UNL d   1      -1.581   2.479   0.000  0.00  0.00    -0.121 NA
BRANCH  11  12
ATOM     12  C   UNL d   1      -0.761   2.359   0.000  0.00  0.00     0.217 A 
ATOM     13  N   UNL d   1      -0.312   1.693   0.000  0.00  0.00    -0.181 NA
ATOM     14  C   UNL d   1       0.454   1.918   0.000  0.00  0.00     0.288 A 
ATOM     15  O   UNL d   1       1.103   1.410   0.000  0.00  0.00    -0.265 OA
ATOM     16  C   UNL d   1       0.516   2.708   0.000  0.00  0.00     0.101 A 
ATOM     17  S   UNL d   1      -0.250   3.016   0.000  0.00  0.00    -0.041 SA
ENDBRANCH  11  12
ENDBRANCH  10  11
ENDBRANCH   1  10
TORSDOF 4
