REMARK  4 active torsions:
REMARK  status: ('A' for Active; 'I' for Inactive)
REMARK    1  A    between atoms: C_6  and  C_2 
REMARK    2  A    between atoms: O_7  and  C_6 
REMARK    3  A    between atoms: C_8  and  O_7 
REMARK    4  A    between atoms: O_14  and  C_9 
ROOT
ATOM      1  C   UNL d   1       3.498   1.028   0.000  0.00  0.00     0.161 C 
ENDROOT
BRANCH   1   2
ATOM      2  C   UNL d   1       2.716   0.806   0.000  0.00  0.00     0.188 A 
ATOM      3  N   UNL d   1       2.273   1.472   0.000  0.00  0.00    -0.224 NA
ATOM      4  C   UNL d   1       1.442   1.195   0.000  0.00  0.00     0.101 A 
ATOM      5  C   UNL d   1       1.442   0.389   0.000  0.00  0.00     0.101 A 
ATOM      6  C   UNL d   1       0.720   1.669   0.000  0.00  0.00     0.021 A 
ATOM      7  C   UNL d   1       0.720   0.000   0.000  0.00  0.00     0.021 A 
ATOM      8  N   UNL d   1       2.273   0.141   0.000  0.00  0.00    -0.224 NA
ATOM      9  C   UNL d   1       0.000   0.389   0.000  0.00  0.00     0.002 A 
ATOM     10  C   UNL d   1       0.000   1.195   0.000  0.00  0.00     0.002 A 
ENDBRANCH   1   2
BRANCH   1  11
ATOM     11  O   UNL d   1       4.106   0.449   0.000  0.00  0.00    -0.302 OA
BRANCH  11  12
ATOM     12  C   UNL d   1       4.912   0.670   0.000  0.00  0.00     0.100 A 
ATOM     13  C   UNL d   1       5.497   0.086   0.000  0.00  0.00     0.027 A 
ATOM     14  C   UNL d   1       6.295   0.279   0.000  0.00  0.00     0.026 A 
ATOM     15  C   UNL d   1       6.495   1.085   0.000  0.00  0.00     0.094 A 
ATOM     16  C   UNL d   1       5.911   1.669   0.000  0.00  0.00     0.026 A 
ATOM     17  C   UNL d   1       5.105   1.472   0.000  0.00  0.00     0.027 A 
BRANCH  15  18
ATOM     18  O   UNL d   1       7.301   1.306   0.000  0.00  0.00    -0.328 OA
ATOM     19  C   UNL d   1       8.270   1.306   0.000  0.00  0.00     0.181 C 
ENDBRANCH  15  18
ENDBRANCH  11  12
ENDBRANCH   1  11
TORSDOF 4
