REMARK  5 active torsions:
REMARK  status: ('A' for Active; 'I' for Inactive)
REMARK    1  A    between atoms: C_6  and  C_1 
REMARK    2  A    between atoms: C_8  and  N_3 
REMARK    3  A    between atoms: O_7  and  C_6 
REMARK    4  A    between atoms: C_9  and  O_7 
REMARK    5  A    between atoms: O_16  and  C_10 
ROOT
ATOM      1  C   UNL d   1       2.731   2.262   0.000  0.00  0.00     0.173 A 
ATOM      2  N   UNL d   1       2.282   2.925   0.000  0.00  0.00    -0.225 NA
ATOM      3  N   UNL d   1       2.282   1.592   0.000  0.00  0.00    -0.287 N 
ATOM      4  C   UNL d   1       1.450   1.844   0.000  0.00  0.00     0.083 A 
ATOM      5  C   UNL d   1       1.450   2.648   0.000  0.00  0.00     0.099 A 
ATOM      6  C   UNL d   1       0.725   1.455   0.000  0.00  0.00     0.019 A 
ATOM      7  C   UNL d   1       0.725   3.119   0.000  0.00  0.00     0.021 A 
ATOM      8  C   UNL d   1       0.000   1.844   0.000  0.00  0.00     0.002 A 
ATOM      9  C   UNL d   1       0.000   2.648   0.000  0.00  0.00     0.002 A 
ENDROOT
BRANCH   1  10
ATOM     10  C   UNL d   1       3.426   1.844   0.000  0.00  0.00     0.160 C 
BRANCH  10  11
ATOM     11  O   UNL d   1       4.151   2.262   0.000  0.00  0.00    -0.302 OA
BRANCH  11  12
ATOM     12  C   UNL d   1       4.876   1.844   0.000  0.00  0.00     0.100 A 
ATOM     13  C   UNL d   1       5.601   2.262   0.000  0.00  0.00     0.027 A 
ATOM     14  C   UNL d   1       6.326   1.844   0.000  0.00  0.00     0.026 A 
ATOM     15  C   UNL d   1       6.326   1.036   0.000  0.00  0.00     0.094 A 
ATOM     16  C   UNL d   1       5.601   0.618   0.000  0.00  0.00     0.026 A 
ATOM     17  C   UNL d   1       4.876   1.036   0.000  0.00  0.00     0.027 A 
BRANCH  15  18
ATOM     18  O   UNL d   1       7.138   0.812   0.000  0.00  0.00    -0.328 OA
ATOM     19  C   UNL d   1       7.362   0.000   0.000  0.00  0.00     0.181 C 
ENDBRANCH  15  18
ENDBRANCH  11  12
ENDBRANCH  10  11
ENDBRANCH   1  10
BRANCH   3  20
ATOM     20  C   UNL d   1       2.676   0.894   0.000  0.00  0.00     0.082 C 
ATOM     21  C   UNL d   1       2.282   0.169   0.000  0.00  0.00     0.021 C 
ENDBRANCH   3  20
TORSDOF 5
