REMARK  3 active torsions:
REMARK  status: ('A' for Active; 'I' for Inactive)
REMARK    1  A    between atoms: C_2  and  C_1 
REMARK       I    between atoms: N_8  and  C_2 
REMARK    2  A    between atoms: C_12  and  C_4 
REMARK    3  A    between atoms: C_9  and  N_8 
ROOT
ATOM      1  C   UNL d   1      -2.891   0.518   0.000  0.00  0.00     0.106 A 
ATOM      2  C   UNL d   1      -2.087   0.137   0.000  0.00  0.00     0.093 A 
ATOM      3  C   UNL d   1      -3.512   0.145   0.000  0.00  0.00     0.093 A 
ATOM      4  C   UNL d   1      -2.816  -1.085   0.000  0.00  0.00     0.369 A 
ATOM      5  N   UNL d   1      -2.095  -0.675   0.000  0.00  0.00    -0.191 NA
ATOM      6  N   UNL d   1      -3.524  -0.675   0.000  0.00  0.00    -0.191 NA
ATOM      7  O   UNL d   1      -2.816  -1.913   0.000  0.00  0.00    -0.242 OA
ATOM      8  C   UNL d   1      -1.400   0.580   0.000  0.00  0.00     0.021 C 
ENDROOT
BRANCH   1   9
ATOM      9  C   UNL d   1      -2.928   1.338   0.000  0.00  0.00     0.331 C 
ATOM     10  N   UNL d   1      -2.244   1.785   0.000  0.00  0.00    -0.365 NA
ATOM     11  O   UNL d   1      -3.661   1.710   0.000  0.00  0.00    -0.251 OA
BRANCH  10  12
ATOM     12  C   UNL d   1      -1.499   2.236   0.000  0.00  0.00     0.135 A 
ATOM     13  C   UNL d   1      -0.721   1.822   0.000  0.00  0.00     0.030 A 
ATOM     14  C   UNL d   1      -0.704   0.940   0.000  0.00  0.00     0.003 C 
ATOM     15  C   UNL d   1       0.017   2.269   0.000  0.00  0.00     0.003 A 
ATOM     16  C   UNL d   1       0.004   3.151   0.000  0.00  0.00     0.000 A 
ATOM     17  C   UNL d   1      -0.766   3.566   0.000  0.00  0.00     0.003 A 
ATOM     18  C   UNL d   1      -1.516   3.114   0.000  0.00  0.00     0.032 A 
ENDBRANCH  10  12
ENDBRANCH   1   9
BRANCH   3  19
ATOM     19  C   UNL d   1      -4.220   0.559   0.000  0.00  0.00     0.018 A 
ATOM     20  C   UNL d   1      -4.941   0.157   0.000  0.00  0.00     0.002 A 
ATOM     21  C   UNL d   1      -5.640   0.580   0.000  0.00  0.00     0.000 A 
ATOM     22  C   UNL d   1      -5.628   1.400   0.000  0.00  0.00     0.000 A 
ATOM     23  C   UNL d   1      -4.916   1.797   0.000  0.00  0.00     0.000 A 
ATOM     24  C   UNL d   1      -4.212   1.387   0.000  0.00  0.00     0.002 A 
ENDBRANCH   3  19
TORSDOF 3
