REMARK  1 active torsions:
REMARK  status: ('A' for Active; 'I' for Inactive)
REMARK    1  A    between atoms: C_6  and  C_2 
ROOT
ATOM      1  S   UNL d   1       1.348  -0.291   0.000  0.00  0.00    -0.024 SA
ATOM      2  C   UNL d   1       1.827   0.374   0.000  0.00  0.00     0.135 A 
ATOM      3  N   UNL d   1       1.348   1.044   0.000  0.00  0.00    -0.139 NA
ATOM      4  C   UNL d   1       0.566  -0.029   0.000  0.00  0.00     0.236 A 
ATOM      5  N   UNL d   1       0.562   0.786   0.000  0.00  0.00    -0.119 NA
ATOM      6  N   UNL d   1      -0.100  -0.516   0.000  0.00  0.00    -0.118 N 
ENDROOT
BRANCH   2   7
ATOM      7  C   UNL d   1       2.651   0.374   0.000  0.00  0.00     0.029 A 
ATOM      8  C   UNL d   1       3.071  -0.329   0.000  0.00  0.00     0.023 A 
ATOM      9  C   UNL d   1       3.899  -0.329   0.000  0.00  0.00     0.099 A 
ATOM     10  N   UNL d   1       4.311   0.374   0.000  0.00  0.00    -0.242 NA
ATOM     11  C   UNL d   1       3.899   1.086   0.000  0.00  0.00     0.099 A 
ATOM     12  C   UNL d   1       3.071   1.086   0.000  0.00  0.00     0.023 A 
ENDBRANCH   2   7
TORSDOF 1
