REMARK  6 active torsions:
REMARK  status: ('A' for Active; 'I' for Inactive)
REMARK       I    between atoms: C_8  and  N_1 
REMARK    1  A    between atoms: C_10  and  C_3 
REMARK    2  A    between atoms: C_4  and  S_14 
REMARK    3  A    between atoms: C_15  and  C_6 
REMARK    4  A    between atoms: C_16  and  C_8 
REMARK    5  A    between atoms: S_14  and  C_16 
REMARK    6  A    between atoms: O_26  and  C_23 
ROOT
ATOM      1  N   UNL d   1      -6.944   3.637   0.000  0.00  0.00    -0.195 N 
ATOM      2  N   UNL d   1      -7.325   4.346   0.000  0.00  0.00    -0.162 NA
ATOM      3  C   UNL d   1      -8.144   4.203   0.000  0.00  0.00     0.109 A 
ATOM      4  C   UNL d   1      -7.518   3.035   0.000  0.00  0.00     0.088 A 
ATOM      5  C   UNL d   1      -8.240   3.403   0.000  0.00  0.00     0.041 A 
ATOM      6  C   UNL d   1      -6.162   3.430   0.000  0.00  0.00     0.275 C 
ATOM      7  O   UNL d   1      -5.927   2.630   0.000  0.00  0.00    -0.266 OA
ENDROOT
BRANCH   4   8
ATOM      8  C   UNL d   1      -7.413   2.230   0.000  0.00  0.00     0.018 A 
ATOM      9  C   UNL d   1      -6.654   1.913   0.000  0.00  0.00     0.004 A 
ATOM     10  C   UNL d   1      -6.553   1.085   0.000  0.00  0.00     0.024 A 
ATOM     11  C   UNL d   1      -7.206   0.589   0.000  0.00  0.00     0.094 A 
ATOM     12  C   UNL d   1      -7.965   0.910   0.000  0.00  0.00     0.024 A 
ATOM     13  C   UNL d   1      -8.075   1.734   0.000  0.00  0.00     0.004 A 
BRANCH  11  14
ATOM     14  O   UNL d   1      -7.123  -0.239   0.000  0.00  0.00    -0.328 OA
ATOM     15  C   UNL d   1      -7.785  -0.731   0.000  0.00  0.00     0.181 C 
ENDBRANCH  11  14
ENDBRANCH   4   8
BRANCH   6  16
ATOM     16  C   UNL d   1      -5.573   4.024   0.000  0.00  0.00     0.128 C 
BRANCH  16  17
ATOM     17  S   UNL d   1      -4.769   3.817   0.000  0.00  0.00    -0.069 SA
BRANCH  17  18
ATOM     18  C   UNL d   1      -4.539   3.017   0.000  0.00  0.00     0.140 A 
ATOM     19  N   UNL d   1      -5.058   2.382   0.000  0.00  0.00    -0.232 NA
ATOM     20  C   UNL d   1      -4.608   1.692   0.000  0.00  0.00     0.088 A 
ATOM     21  C   UNL d   1      -4.828   0.892   0.000  0.00  0.00     0.020 A 
ATOM     22  C   UNL d   1      -3.817   1.899   0.000  0.00  0.00     0.049 A 
ATOM     23  C   UNL d   1      -4.249   0.303   0.000  0.00  0.00     0.002 A 
ATOM     24  C   UNL d   1      -3.444   0.524   0.000  0.00  0.00     0.001 A 
ATOM     25  C   UNL d   1      -3.237   1.320   0.000  0.00  0.00     0.008 A 
ATOM     26  S   UNL d   1      -3.766   2.727   0.000  0.00  0.00    -0.060 SA
ENDBRANCH  17  18
ENDBRANCH  16  17
ENDBRANCH   6  16
BRANCH   3  27
ATOM     27  C   UNL d   1      -8.723   4.792   0.000  0.00  0.00     0.049 A 
ATOM     28  S   UNL d   1      -8.723   5.606   0.000  0.00  0.00    -0.085 SA
ATOM     29  C   UNL d   1      -9.509   5.854   0.000  0.00  0.00     0.035 A 
ATOM     30  C   UNL d   1      -9.992   5.205   0.000  0.00  0.00     0.007 A 
ATOM     31  C   UNL d   1      -9.509   4.529   0.000  0.00  0.00     0.009 A 
ENDBRANCH   3  27
TORSDOF 6
