REMARK  4 active torsions:
REMARK  status: ('A' for Active; 'I' for Inactive)
REMARK    1  A    between atoms: C_6  and  C_1 
REMARK       I    between atoms: N_9  and  C_6 
REMARK       I    between atoms: C_8  and  N_10 
REMARK    2  A    between atoms: C_11  and  C_8 
REMARK    3  A    between atoms: N_10  and  N_9 
REMARK    4  A    between atoms: O_22  and  C_13 
ROOT
ATOM      1  C   UNL d   1      -0.013  -0.309   0.000  0.00  0.00     0.123 A 
ATOM      2  C   UNL d   1      -0.013  -1.134   0.000  0.00  0.00     0.305 A 
ATOM      3  O   UNL d   1      -0.713  -1.538   0.000  0.00  0.00    -0.271 OA
ATOM      4  C   UNL d   1      -0.713   0.090   0.000  0.00  0.00     0.012 A 
ATOM      5  C   UNL d   1      -1.453  -1.134   0.000  0.00  0.00     0.125 A 
ATOM      6  C   UNL d   1      -1.453  -0.309   0.000  0.00  0.00     0.025 A 
ATOM      7  O   UNL d   1       0.686  -1.538   0.000  0.00  0.00    -0.259 OA
ATOM      8  C   UNL d   1      -2.175  -1.538   0.000  0.00  0.00     0.117 A 
ATOM      9  C   UNL d   1      -2.175   0.090   0.000  0.00  0.00     0.002 A 
ATOM     10  C   UNL d   1      -2.901  -0.309   0.000  0.00  0.00     0.002 A 
ATOM     11  C   UNL d   1      -2.901  -1.134   0.000  0.00  0.00     0.026 A 
ENDROOT
BRANCH   1  12
ATOM     12  C   UNL d   1       0.686   0.121   0.000  0.00  0.00     0.302 C 
ATOM     13  N   UNL d   1       1.399  -0.300   0.000  0.00  0.00    -0.102 NA
ATOM     14  O   UNL d   1       0.677   0.968   0.000  0.00  0.00    -0.263 OA
BRANCH  13  15
ATOM     15  N   UNL d   1       2.103   0.103   0.000  0.00  0.00    -0.102 NA
ATOM     16  C   UNL d   1       2.816  -0.323   0.000  0.00  0.00     0.297 C 
ATOM     17  O   UNL d   1       2.816  -1.134   0.000  0.00  0.00    -0.264 OA
BRANCH  16  18
ATOM     18  C   UNL d   1       3.529   0.076   0.000  0.00  0.00     0.059 A 
ATOM     19  C   UNL d   1       4.237  -0.327   0.000  0.00  0.00     0.005 A 
ATOM     20  C   UNL d   1       4.954   0.067   0.000  0.00  0.00     0.007 A 
ATOM     21  C   UNL d   1       4.981   0.883   0.000  0.00  0.00     0.035 A 
ATOM     22  C   UNL d   1       4.255   1.305   0.000  0.00  0.00     0.007 A 
ATOM     23 BR   UNL d   1       5.703   1.273   0.000  0.00  0.00    -0.049 Br
ATOM     24  C   UNL d   1       3.538   0.910   0.000  0.00  0.00     0.005 A 
ENDBRANCH  16  18
ENDBRANCH  13  15
ENDBRANCH   1  12
BRANCH   8  25
ATOM     25  O   UNL d   1      -2.175  -2.354   0.000  0.00  0.00    -0.326 OA
ATOM     26  C   UNL d   1      -2.874  -2.762   0.000  0.00  0.00     0.181 C 
ENDBRANCH   8  25
TORSDOF 4
