REMARK  4 active torsions:
REMARK  status: ('A' for Active; 'I' for Inactive)
REMARK    1  A    between atoms: C_7  and  C_1 
REMARK    2  A    between atoms: N_4  and  C_9 
REMARK    3  A    between atoms: O_17  and  C_7 
REMARK    4  A    between atoms: C_18  and  O_17 
ROOT
ATOM      1  C   UNL d   1       1.312  -0.050   0.000  0.00  0.00     0.127 A 
ATOM      2  C   UNL d   1       1.312  -0.856   0.000  0.00  0.00     0.305 A 
ATOM      3  C   UNL d   1       0.598   0.368   0.000  0.00  0.00     0.013 A 
ATOM      4  O   UNL d   1       0.598  -1.274   0.000  0.00  0.00    -0.273 OA
ATOM      5  C   UNL d   1      -0.092  -0.050   0.000  0.00  0.00     0.025 A 
ATOM      6  C   UNL d   1      -0.092  -0.856   0.000  0.00  0.00     0.103 A 
ATOM      7  C   UNL d   1      -1.516  -0.050   0.000  0.00  0.00     0.127 A 
ATOM      8  C   UNL d   1      -0.804   0.368   0.000  0.00  0.00     0.025 A 
ATOM      9  O   UNL d   1       2.023  -1.274   0.000  0.00  0.00    -0.259 OA
ATOM     10  C   UNL d   1      -0.804  -1.274   0.000  0.00  0.00     0.026 A 
ATOM     11  C   UNL d   1      -1.516  -0.856   0.000  0.00  0.00     0.026 A 
ENDROOT
BRANCH   1  12
ATOM     12  C   UNL d   1       2.023   0.368   0.000  0.00  0.00     0.305 C 
ATOM     13  O   UNL d   1       2.023   1.196   0.000  0.00  0.00    -0.259 OA
BRANCH  12  14
ATOM     14  O   UNL d   1       2.732  -0.045   0.000  0.00  0.00    -0.271 OA
BRANCH  14  15
ATOM     15  C   UNL d   1       3.437   0.360   0.000  0.00  0.00     0.126 C 
ATOM     16  C   UNL d   1       4.137  -0.045   0.000  0.00  0.00     0.029 C 
ENDBRANCH  14  15
ENDBRANCH  12  14
ENDBRANCH   1  12
BRANCH   7  17
ATOM     17  N   UNL d   1      -2.232   0.339   0.000  0.00  0.00    -0.114 N 
ATOM     18  O   UNL d   1      -2.239   1.150   0.000  0.00  0.00    -0.532 OA
ATOM     19  O   UNL d   1      -2.910  -0.095   0.000  0.00  0.00    -0.532 OA
ENDBRANCH   7  17
TORSDOF 4
