REMARK  3 active torsions:
REMARK  status: ('A' for Active; 'I' for Inactive)
REMARK    1  A    between atoms: C_8  and  C_4 
REMARK    2  A    between atoms: N_5  and  C_7 
REMARK    3  A    between atoms: C_12  and  C_6 
ROOT
ATOM      1  O   UNL d   1       1.545   0.735   0.000  0.00  0.00    -0.268 OA
ATOM      2  N   UNL d   1       2.221   1.887   0.000  0.00  0.00    -0.121 NA
ATOM      3  N   UNL d   1       2.772   1.273   0.000  0.00  0.00    -0.121 NA
ATOM      4  C   UNL d   1       1.470   1.562   0.000  0.00  0.00     0.204 A 
ATOM      5  C   UNL d   1       2.359   0.559   0.000  0.00  0.00     0.204 A 
ENDROOT
BRANCH   4   6
ATOM      6  C   UNL d   1       0.752   1.975   0.000  0.00  0.00     0.045 A 
ATOM      7  C   UNL d   1       0.038   1.562   0.000  0.00  0.00     0.027 A 
ATOM      8  C   UNL d   1      -0.672   1.975   0.000  0.00  0.00     0.127 A 
ATOM      9  C   UNL d   1      -0.672   2.802   0.000  0.00  0.00     0.024 A 
ATOM     10  C   UNL d   1       0.038   3.215   0.000  0.00  0.00     0.002 A 
ATOM     11  C   UNL d   1       0.752   2.802   0.000  0.00  0.00     0.004 A 
BRANCH   8  12
ATOM     12  N   UNL d   1      -1.390   1.553   0.000  0.00  0.00    -0.114 N 
ATOM     13  O   UNL d   1      -2.113   1.967   0.000  0.00  0.00    -0.532 OA
ATOM     14  O   UNL d   1      -1.390   0.727   0.000  0.00  0.00    -0.532 OA
ENDBRANCH   8  12
ENDBRANCH   4   6
BRANCH   5  15
ATOM     15  C   UNL d   1       2.693  -0.192   0.000  0.00  0.00     0.043 A 
ATOM     16  C   UNL d   1       3.511  -0.280   0.000  0.00  0.00     0.004 A 
ATOM     17  C   UNL d   1       3.845  -1.040   0.000  0.00  0.00     0.000 A 
ATOM     18  C   UNL d   1       3.357  -1.704   0.000  0.00  0.00     0.000 A 
ATOM     19  C   UNL d   1       2.534  -1.607   0.000  0.00  0.00     0.000 A 
ATOM     20  C   UNL d   1       2.196  -0.856   0.000  0.00  0.00     0.004 A 
ENDBRANCH   5  15
TORSDOF 3
