REMARK  3 active torsions:
REMARK  status: ('A' for Active; 'I' for Inactive)
REMARK    1  A    between atoms: C_4  and  C_1 
REMARK    2  A    between atoms: C_7  and  C_4 
REMARK    3  A    between atoms: C_10  and  C_7 
ROOT
ATOM      1  C   UNL d   1      10.608  -7.610   0.000  0.00  0.00     0.062 A 
ATOM      2  C   UNL d   1      10.538  -8.432   0.000  0.00  0.00     0.279 A 
ATOM      3  N   UNL d   1       9.737  -8.619   0.000  0.00  0.00    -0.208 NA
ATOM      4  C   UNL d   1       9.850  -7.293   0.000  0.00  0.00     0.022 A 
ATOM      5  C   UNL d   1       9.312  -7.911   0.000  0.00  0.00     0.085 A 
ATOM      6  O   UNL d   1      11.159  -8.974   0.000  0.00  0.00    -0.265 OA
ATOM      7  C   UNL d   1       9.587  -6.509   0.000  0.00  0.00     0.002 A 
ATOM      8  C   UNL d   1       8.498  -7.748   0.000  0.00  0.00     0.019 A 
ATOM      9  C   UNL d   1       8.774  -6.347   0.000  0.00  0.00     0.000 A 
ATOM     10  C   UNL d   1       8.236  -6.972   0.000  0.00  0.00     0.002 A 
ENDROOT
BRANCH   1  11
ATOM     11  C   UNL d   1      11.313  -7.185   0.000  0.00  0.00     0.047 C 
BRANCH  11  12
ATOM     12  C   UNL d   1      11.935  -7.731   0.000  0.00  0.00     0.196 C 
ATOM     13  O   UNL d   1      11.776  -8.536   0.000  0.00  0.00    -0.287 OA
BRANCH  12  14
ATOM     14  C   UNL d   1      12.714  -7.460   0.000  0.00  0.00     0.039 A 
ATOM     15  C   UNL d   1      13.340  -7.998   0.000  0.00  0.00     0.003 A 
ATOM     16  C   UNL d   1      14.116  -7.735   0.000  0.00  0.00     0.000 A 
ATOM     17  C   UNL d   1      14.278  -6.922   0.000  0.00  0.00     0.000 A 
ATOM     18  C   UNL d   1      13.653  -6.384   0.000  0.00  0.00     0.000 A 
ATOM     19  C   UNL d   1      12.873  -6.647   0.000  0.00  0.00     0.003 A 
ENDBRANCH  12  14
ENDBRANCH  11  12
ENDBRANCH   1  11
TORSDOF 3
