REMARK  4 active torsions:
REMARK  status: ('A' for Active; 'I' for Inactive)
REMARK       I    between atoms: C_3  and  N_1 
REMARK    1  A    between atoms: C_9  and  C_3 
REMARK    2  A    between atoms: S_8  and  C_9 
REMARK    3  A    between atoms: C_12  and  S_8 
REMARK    4  A    between atoms: C_11  and  C_12 
ROOT
ATOM      1  N   UNL d   1      -2.649   6.007   0.000  0.00  0.00    -0.274 N 
ATOM      2  C   UNL d   1      -2.603   6.830   0.000  0.00  0.00     0.067 A 
ATOM      3  C   UNL d   1      -3.348   5.552   0.000  0.00  0.00     0.259 C 
ATOM      4  C   UNL d   1      -1.877   5.703   0.000  0.00  0.00     0.083 A 
ATOM      5  C   UNL d   1      -1.808   7.042   0.000  0.00  0.00     0.018 A 
ATOM      6  O   UNL d   1      -4.093   5.924   0.000  0.00  0.00    -0.267 OA
ATOM      7  C   UNL d   1      -1.366   6.347   0.000  0.00  0.00     0.021 A 
ATOM      8  C   UNL d   1      -3.183   7.414   0.000  0.00  0.00     0.018 A 
ATOM      9  C   UNL d   1      -1.587   7.828   0.000  0.00  0.00     0.002 A 
ATOM     10  C   UNL d   1      -2.976   8.201   0.000  0.00  0.00     0.002 A 
ATOM     11  C   UNL d   1      -2.175   8.422   0.000  0.00  0.00     0.000 A 
ENDROOT
BRANCH   3  12
ATOM     12  C   UNL d   1      -3.307   4.719   0.000  0.00  0.00     0.125 C 
BRANCH  12  13
ATOM     13  S   UNL d   1      -3.997   4.273   0.000  0.00  0.00    -0.094 SA
BRANCH  13  14
ATOM     14  C   UNL d   1      -4.733   4.655   0.000  0.00  0.00     0.035 C 
BRANCH  14  15
ATOM     15  C   UNL d   1      -5.432   4.204   0.000  0.00  0.00     0.006 A 
ATOM     16  C   UNL d   1      -6.163   4.586   0.000  0.00  0.00     0.001 A 
ATOM     17  C   UNL d   1      -6.858   4.139   0.000  0.00  0.00     0.000 A 
ATOM     18  C   UNL d   1      -6.807   3.312   0.000  0.00  0.00     0.000 A 
ATOM     19  C   UNL d   1      -6.080   2.934   0.000  0.00  0.00     0.000 A 
ATOM     20  C   UNL d   1      -5.391   3.376   0.000  0.00  0.00     0.001 A 
ENDBRANCH  14  15
ENDBRANCH  13  14
ENDBRANCH  12  13
ENDBRANCH   3  12
TORSDOF 4
