REMARK  5 active torsions:
REMARK  status: ('A' for Active; 'I' for Inactive)
REMARK    1  A    between atoms: C_2  and  C_1 
REMARK    2  A    between atoms: C_6  and  C_2 
REMARK    3  A    between atoms: C_3  and  O_5 
REMARK    4  A    between atoms: C_11  and  C_3 
REMARK    5  A    between atoms: O_5  and  C_6 
ROOT
ATOM      1  O   UNL d   1       1.117   0.525   0.000  0.00  0.00    -0.268 OA
ENDROOT
BRANCH   1   2
ATOM      2  C   UNL d   1       1.842   0.121   0.000  0.00  0.00     0.300 C 
ATOM      3  O   UNL d   1       1.842  -0.692   0.000  0.00  0.00    -0.259 OA
BRANCH   2   4
ATOM      4  C   UNL d   1       2.550   0.533   0.000  0.00  0.00     0.064 A 
ATOM      5  C   UNL d   1       3.263   0.133   0.000  0.00  0.00     0.005 A 
ATOM      6  C   UNL d   1       3.967   0.546   0.000  0.00  0.00     0.000 A 
ATOM      7  C   UNL d   1       3.967   1.363   0.000  0.00  0.00     0.000 A 
ATOM      8  C   UNL d   1       3.251   1.771   0.000  0.00  0.00     0.000 A 
ATOM      9  C   UNL d   1       2.538   1.359   0.000  0.00  0.00     0.005 A 
ENDBRANCH   2   4
ENDBRANCH   1   2
BRANCH   1  10
ATOM     10  C   UNL d   1       1.117   1.363   0.000  0.00  0.00     0.168 C 
BRANCH  10  11
ATOM     11  C   UNL d   1       0.417   1.788   0.000  0.00  0.00     0.226 C 
ATOM     12  O   UNL d   1       0.404   2.613   0.000  0.00  0.00    -0.284 OA
BRANCH  11  13
ATOM     13  C   UNL d   1      -0.321   1.338   0.000  0.00  0.00     0.070 A 
ATOM     14  S   UNL d   1      -0.396   0.483   0.000  0.00  0.00    -0.083 SA
ATOM     15  C   UNL d   1      -1.238   0.283   0.000  0.00  0.00     0.035 A 
ATOM     16  C   UNL d   1      -1.688   1.021   0.000  0.00  0.00     0.008 A 
ATOM     17  C   UNL d   1      -1.125   1.675   0.000  0.00  0.00     0.010 A 
ENDBRANCH  11  13
ENDBRANCH  10  11
ENDBRANCH   1  10
TORSDOF 5
