REMARK  2 active torsions:
REMARK  status: ('A' for Active; 'I' for Inactive)
REMARK    1  A    between atoms: C_6  and  C_1 
REMARK    2  A    between atoms: O_12  and  C_9 
ROOT
ATOM      1  C   UNL d   1      -0.013  -0.309   0.000  0.00  0.00     0.123 A 
ATOM      2  C   UNL d   1      -0.013  -1.134   0.000  0.00  0.00     0.305 A 
ATOM      3  O   UNL d   1      -0.713  -1.538   0.000  0.00  0.00    -0.271 OA
ATOM      4  C   UNL d   1      -0.713   0.090   0.000  0.00  0.00     0.012 A 
ATOM      5  C   UNL d   1      -1.453  -1.134   0.000  0.00  0.00     0.125 A 
ATOM      6  C   UNL d   1      -1.453  -0.309   0.000  0.00  0.00     0.025 A 
ATOM      7  O   UNL d   1       0.686  -1.538   0.000  0.00  0.00    -0.259 OA
ATOM      8  C   UNL d   1      -2.175  -1.538   0.000  0.00  0.00     0.117 A 
ATOM      9  C   UNL d   1      -2.175   0.090   0.000  0.00  0.00     0.002 A 
ATOM     10  C   UNL d   1      -2.901  -0.309   0.000  0.00  0.00     0.002 A 
ATOM     11  C   UNL d   1      -2.901  -1.134   0.000  0.00  0.00     0.026 A 
ENDROOT
BRANCH   1  12
ATOM     12  C   UNL d   1       0.686   0.121   0.000  0.00  0.00     0.302 C 
ATOM     13  O   UNL d   1       0.677   0.968   0.000  0.00  0.00    -0.263 OA
ATOM     14  N   UNL d   1       1.399  -0.300   0.000  0.00  0.00    -0.102 N 
ENDBRANCH   1  12
BRANCH   8  15
ATOM     15  O   UNL d   1      -2.175  -2.354   0.000  0.00  0.00    -0.326 OA
ATOM     16  C   UNL d   1      -2.874  -2.762   0.000  0.00  0.00     0.181 C 
ENDBRANCH   8  15
TORSDOF 2
