REMARK  10 active torsions:
REMARK  status: ('A' for Active; 'I' for Inactive)
REMARK       I    between atoms: C_6  and  N_1 
REMARK    1  A    between atoms: C_7  and  C_3 
REMARK    2  A    between atoms: C_9  and  C_4 
REMARK    3  A    between atoms: C_19  and  C_6 
REMARK    4  A    between atoms: C_10  and  C_25 
REMARK    5  A    between atoms: O_23  and  C_10 
REMARK    6  A    between atoms: S_18  and  C_19 
REMARK    7  A    between atoms: C_25  and  S_18 
REMARK    8  A    between atoms: C_26  and  O_23 
REMARK    9  A    between atoms: C_27  and  C_26 
REMARK   10  A    between atoms: C_28  and  C_27 
ROOT
ATOM      1  N   UNL d   1      -2.769   6.088   0.000  0.00  0.00    -0.195 N 
ATOM      2  N   UNL d   1      -2.033   5.718   0.000  0.00  0.00    -0.162 NA
ATOM      3  C   UNL d   1      -1.465   6.280   0.000  0.00  0.00     0.109 A 
ATOM      4  C   UNL d   1      -2.632   6.899   0.000  0.00  0.00     0.088 A 
ATOM      5  C   UNL d   1      -1.827   7.022   0.000  0.00  0.00     0.041 A 
ATOM      6  C   UNL d   1      -3.511   5.713   0.000  0.00  0.00     0.275 C 
ATOM      7  O   UNL d   1      -4.202   6.157   0.000  0.00  0.00    -0.266 OA
ENDROOT
BRANCH   4   8
ATOM      8  C   UNL d   1      -3.186   7.503   0.000  0.00  0.00     0.018 A 
ATOM      9  C   UNL d   1      -2.934   8.286   0.000  0.00  0.00     0.004 A 
ATOM     10  C   UNL d   1      -3.488   8.890   0.000  0.00  0.00     0.030 A 
ATOM     11  C   UNL d   1      -4.294   8.725   0.000  0.00  0.00     0.140 A 
ATOM     12  C   UNL d   1      -4.541   7.928   0.000  0.00  0.00     0.030 A 
ATOM     13  F   UNL d   1      -4.843   9.338   0.000  0.00  0.00    -0.204 F 
ATOM     14  C   UNL d   1      -3.992   7.324   0.000  0.00  0.00     0.004 A 
ENDBRANCH   4   8
BRANCH   6  15
ATOM     15  C   UNL d   1      -3.552   4.889   0.000  0.00  0.00     0.127 C 
BRANCH  15  16
ATOM     16  S   UNL d   1      -4.280   4.509   0.000  0.00  0.00    -0.089 SA
BRANCH  16  17
ATOM     17  C   UNL d   1      -4.312   3.689   0.000  0.00  0.00     0.103 C 
BRANCH  17  18
ATOM     18  C   UNL d   1      -5.035   3.296   0.000  0.00  0.00     0.307 C 
ATOM     19  O   UNL d   1      -5.736   3.735   0.000  0.00  0.00    -0.258 OA
BRANCH  18  20
ATOM     20  O   UNL d   1      -5.067   2.467   0.000  0.00  0.00    -0.271 OA
BRANCH  20  21
ATOM     21  C   UNL d   1      -5.791   2.083   0.000  0.00  0.00     0.126 C 
BRANCH  21  22
ATOM     22  C   UNL d   1      -5.818   1.250   0.000  0.00  0.00     0.027 C 
BRANCH  22  23
ATOM     23  C   UNL d   1      -6.546   0.861   0.000  0.00  0.00     0.002 C 
ATOM     24  C   UNL d   1      -6.560   0.037   0.000  0.00  0.00     0.000 C 
ENDBRANCH  22  23
ENDBRANCH  21  22
ENDBRANCH  20  21
ENDBRANCH  18  20
ENDBRANCH  17  18
ENDBRANCH  16  17
ENDBRANCH  15  16
ENDBRANCH   6  15
BRANCH   3  25
ATOM     25  C   UNL d   1      -0.659   6.102   0.000  0.00  0.00     0.049 A 
ATOM     26  S   UNL d   1      -0.215   5.415   0.000  0.00  0.00    -0.085 SA
ATOM     27  C   UNL d   1       0.581   5.621   0.000  0.00  0.00     0.035 A 
ATOM     28  C   UNL d   1       0.636   6.445   0.000  0.00  0.00     0.007 A 
ATOM     29  C   UNL d   1      -0.133   6.747   0.000  0.00  0.00     0.009 A 
ENDBRANCH   3  25
TORSDOF 10
