REMARK  5 active torsions:
REMARK  status: ('A' for Active; 'I' for Inactive)
REMARK       I    between atoms: C_3  and  N_1 
REMARK    1  A    between atoms: C_8  and  N_2 
REMARK    2  A    between atoms: C_11  and  C_3 
REMARK    3  A    between atoms: S_10  and  C_11 
REMARK    4  A    between atoms: C_13  and  S_10 
REMARK    5  A    between atoms: C_12  and  C_13 
ROOT
ATOM      1  N   UNL d   1      -2.689   5.978   0.000  0.00  0.00    -0.269 N 
ATOM      2  N   UNL d   1      -1.264   6.803   0.000  0.00  0.00    -0.301 N 
ATOM      3  C   UNL d   1      -3.408   5.556   0.000  0.00  0.00     0.259 C 
ATOM      4  C   UNL d   1      -1.979   5.566   0.000  0.00  0.00     0.102 A 
ATOM      5  C   UNL d   1      -2.689   6.803   0.000  0.00  0.00     0.102 A 
ATOM      6  C   UNL d   1      -1.979   7.215   0.000  0.00  0.00     0.100 A 
ATOM      7  C   UNL d   1      -1.264   5.978   0.000  0.00  0.00     0.100 A 
ATOM      8  O   UNL d   1      -4.132   5.955   0.000  0.00  0.00    -0.267 OA
ENDROOT
BRANCH   3   9
ATOM      9  C   UNL d   1      -3.404   4.718   0.000  0.00  0.00     0.125 C 
BRANCH   9  10
ATOM     10  S   UNL d   1      -4.109   4.315   0.000  0.00  0.00    -0.094 SA
BRANCH  10  11
ATOM     11  C   UNL d   1      -4.109   3.491   0.000  0.00  0.00     0.035 C 
BRANCH  11  12
ATOM     12  C   UNL d   1      -4.819   3.078   0.000  0.00  0.00     0.006 A 
ATOM     13  C   UNL d   1      -5.534   3.491   0.000  0.00  0.00     0.001 A 
ATOM     14  C   UNL d   1      -6.248   3.078   0.000  0.00  0.00     0.000 A 
ATOM     15  C   UNL d   1      -6.248   2.254   0.000  0.00  0.00     0.000 A 
ATOM     16  C   UNL d   1      -5.534   1.841   0.000  0.00  0.00     0.000 A 
ATOM     17  C   UNL d   1      -4.819   2.254   0.000  0.00  0.00     0.001 A 
ENDBRANCH  11  12
ENDBRANCH  10  11
ENDBRANCH   9  10
ENDBRANCH   3   9
BRANCH   2  18
ATOM     18  C   UNL d   1      -0.559   7.215   0.000  0.00  0.00     0.064 A 
ATOM     19  C   UNL d   1      -0.559   8.039   0.000  0.00  0.00     0.018 A 
ATOM     20  C   UNL d   1       0.156   8.452   0.000  0.00  0.00     0.002 A 
ATOM     21  C   UNL d   1       0.870   8.039   0.000  0.00  0.00     0.000 A 
ATOM     22  C   UNL d   1       0.870   7.215   0.000  0.00  0.00     0.002 A 
ATOM     23  C   UNL d   1       0.156   6.803   0.000  0.00  0.00     0.018 A 
ENDBRANCH   2  18
TORSDOF 5
