REMARK  2 active torsions:
REMARK  status: ('A' for Active; 'I' for Inactive)
REMARK    1  A    between atoms: C_6  and  C_1 
REMARK    2  A    between atoms: O_15  and  C_12 
ROOT
ATOM      1  C   UNL d   1      -2.779   3.212   0.000  0.00  0.00     0.128 A 
ATOM      2  C   UNL d   1      -2.779   2.365   0.000  0.00  0.00     0.306 A 
ATOM      3  C   UNL d   1      -3.494   3.607   0.000  0.00  0.00     0.013 A 
ATOM      4  O   UNL d   1      -3.494   1.976   0.000  0.00  0.00    -0.273 OA
ATOM      5  C   UNL d   1      -4.190   3.212   0.000  0.00  0.00     0.025 A 
ATOM      6  C   UNL d   1      -4.190   2.365   0.000  0.00  0.00     0.103 A 
ATOM      7  O   UNL d   1      -2.051   1.951   0.000  0.00  0.00    -0.259 OA
ATOM      8  C   UNL d   1      -4.912   3.607   0.000  0.00  0.00     0.026 A 
ATOM      9  C   UNL d   1      -4.912   1.976   0.000  0.00  0.00     0.027 A 
ATOM     10  C   UNL d   1      -5.639   3.212   0.000  0.00  0.00     0.094 A 
ATOM     11  C   UNL d   1      -5.639   2.365   0.000  0.00  0.00     0.026 A 
ENDROOT
BRANCH   1  12
ATOM     12  C   UNL d   1      -2.051   3.632   0.000  0.00  0.00     0.216 C 
ATOM     13  O   UNL d   1      -2.051   4.454   0.000  0.00  0.00    -0.644 OA
ATOM     14  O   UNL d   1      -1.330   3.212   0.000  0.00  0.00    -0.644 OA
ENDBRANCH   1  12
BRANCH  10  15
ATOM     15  O   UNL d   1      -6.354   3.632   0.000  0.00  0.00    -0.328 OA
ATOM     16  C   UNL d   1      -6.354   4.454   0.000  0.00  0.00     0.181 C 
ENDBRANCH  10  15
TORSDOF 2
