REMARK  6 active torsions:
REMARK  status: ('A' for Active; 'I' for Inactive)
REMARK    1  A    between atoms: C_6  and  N_1 
REMARK    2  A    between atoms: C_13  and  C_6 
REMARK    3  A    between atoms: N_12  and  C_22 
REMARK    4  A    between atoms: C_23  and  N_12 
REMARK    5  A    between atoms: C_22  and  C_13 
REMARK    6  A    between atoms: C_20  and  C_23 
ROOT
ATOM      1  N   UNL d   1      11.324 -17.321   0.000  0.00  0.00    -0.303 N 
ATOM      2  C   UNL d   1      10.537 -16.246   0.000  0.00  0.00     0.018 A 
ATOM      3  C   UNL d   1      11.324 -15.984   0.000  0.00  0.00     0.018 A 
ATOM      4  C   UNL d   1      10.537 -17.071   0.000  0.00  0.00     0.064 A 
ATOM      5  C   UNL d   1      11.807 -16.659   0.000  0.00  0.00     0.064 A 
ATOM      6  C   UNL d   1      12.623 -16.579   0.000  0.00  0.00     0.018 A 
ATOM      7  C   UNL d   1       9.824 -17.479   0.000  0.00  0.00     0.018 A 
ATOM      8  C   UNL d   1      11.661 -15.234   0.000  0.00  0.00     0.008 A 
ATOM      9  C   UNL d   1       9.824 -15.830   0.000  0.00  0.00     0.008 A 
ATOM     10  C   UNL d   1       9.112 -16.246   0.000  0.00  0.00     0.035 A 
ATOM     11  C   UNL d   1      12.486 -15.147   0.000  0.00  0.00     0.035 A 
ATOM     12  C   UNL d   1      12.973 -15.821   0.000  0.00  0.00     0.008 A 
ATOM     13  C   UNL d   1       9.112 -17.071   0.000  0.00  0.00     0.008 A 
ATOM     14 BR   UNL d   1       8.400 -15.834   0.000  0.00  0.00    -0.049 Br
ATOM     15 BR   UNL d   1      12.823 -14.397   0.000  0.00  0.00    -0.049 Br
ENDROOT
BRANCH   1  16
ATOM     16  C   UNL d   1      11.573 -18.108   0.000  0.00  0.00     0.124 C 
BRANCH  16  17
ATOM     17  C   UNL d   1      11.024 -18.720   0.000  0.00  0.00     0.232 C 
ATOM     18  O   UNL d   1      10.212 -18.545   0.000  0.00  0.00    -0.283 OA
BRANCH  17  19
ATOM     19  C   UNL d   1      11.274 -19.507   0.000  0.00  0.00     0.142 C 
BRANCH  19  20
ATOM     20  N   UNL d   1      12.082 -19.678   0.000  0.00  0.00    -0.237 NA
BRANCH  20  21
ATOM     21  C   UNL d   1      12.636 -19.066   0.000  0.00  0.00     0.124 C 
BRANCH  21  22
ATOM     22  C   UNL d   1      13.435 -19.232   0.000  0.00  0.00     0.119 A 
ATOM     23  O   UNL d   1      14.047 -18.670   0.000  0.00  0.00    -0.304 OA
ATOM     24  C   UNL d   1      14.768 -19.082   0.000  0.00  0.00     0.123 A 
ATOM     25  C   UNL d   1      14.597 -19.890   0.000  0.00  0.00     0.029 A 
ATOM     26  C   UNL d   1      13.781 -19.982   0.000  0.00  0.00     0.028 A 
ENDBRANCH  21  22
ENDBRANCH  20  21
ENDBRANCH  19  20
ENDBRANCH  17  19
ENDBRANCH  16  17
ENDBRANCH   1  16
TORSDOF 6
