REMARK  4 active torsions:
REMARK  status: ('A' for Active; 'I' for Inactive)
REMARK    1  A    between atoms: S_2  and  N_1 
REMARK    2  A    between atoms: C_7  and  S_2 
REMARK    3  A    between atoms: C_10  and  C_3 
REMARK    4  A    between atoms: C_14  and  C_10 
ROOT
ATOM      1  N   UNL d   1       2.459   2.757   0.000  0.00  0.00    -0.214 N 
ATOM      2  C   UNL d   1       2.555   3.584   0.000  0.00  0.00     0.157 A 
ATOM      3  N   UNL d   1       1.797   3.917   0.000  0.00  0.00    -0.226 NA
ATOM      4  C   UNL d   1       1.649   2.592   0.000  0.00  0.00     0.094 A 
ATOM      5  C   UNL d   1       1.233   3.304   0.000  0.00  0.00     0.100 A 
ATOM      6  C   UNL d   1       1.233   1.873   0.000  0.00  0.00     0.020 A 
ATOM      7  C   UNL d   1       0.399   3.311   0.000  0.00  0.00     0.021 A 
ATOM      8  C   UNL d   1       0.399   1.873   0.000  0.00  0.00     0.002 A 
ATOM      9  C   UNL d   1       0.000   2.602   0.000  0.00  0.00     0.002 A 
ENDROOT
BRANCH   1  10
ATOM     10  S   UNL d   1       3.082   2.216   0.000  0.00  0.00     0.272 S 
ATOM     11  O   UNL d   1       2.521   1.607   0.000  0.00  0.00    -0.200 OA
ATOM     12  O   UNL d   1       3.636   2.824   0.000  0.00  0.00    -0.200 OA
BRANCH  10  13
ATOM     13  C   UNL d   1       3.695   1.667   0.000  0.00  0.00     0.104 A 
ATOM     14  C   UNL d   1       3.510   0.862   0.000  0.00  0.00     0.013 A 
ATOM     15  C   UNL d   1       4.123   0.308   0.000  0.00  0.00     0.007 A 
ATOM     16  C   UNL d   1       4.891   0.566   0.000  0.00  0.00     0.035 A 
ATOM     17  C   UNL d   1       5.076   1.359   0.000  0.00  0.00     0.007 A 
ATOM     18 BR   UNL d   1       5.519   0.000   0.000  0.00  0.00    -0.049 Br
ATOM     19  C   UNL d   1       4.468   1.910   0.000  0.00  0.00     0.013 A 
ENDBRANCH  10  13
ENDBRANCH   1  10
BRANCH   2  20
ATOM     20  C   UNL d   1       3.289   3.998   0.000  0.00  0.00     0.038 C 
BRANCH  20  21
ATOM     21  C   UNL d   1       4.003   3.584   0.000  0.00  0.00     0.003 A 
ATOM     22  C   UNL d   1       4.003   2.750   0.000  0.00  0.00     0.000 A 
ATOM     23  C   UNL d   1       4.712   2.338   0.000  0.00  0.00     0.000 A 
ATOM     24  C   UNL d   1       5.430   2.740   0.000  0.00  0.00     0.000 A 
ATOM     25  C   UNL d   1       5.430   3.569   0.000  0.00  0.00     0.000 A 
ATOM     26  C   UNL d   1       4.721   3.988   0.000  0.00  0.00     0.000 A 
ENDBRANCH  20  21
ENDBRANCH   2  20
TORSDOF 4
