REMARK  5 active torsions:
REMARK  status: ('A' for Active; 'I' for Inactive)
REMARK    1  A    between atoms: C_2  and  S_1 
REMARK    2  A    between atoms: N_3  and  S_1 
REMARK    3  A    between atoms: C_6  and  C_7 
REMARK    4  A    between atoms: C_7  and  C_8 
REMARK    5  A    between atoms: C_8  and  C_12 
ROOT
ATOM      1  C   UNL d   1      -3.674  -0.980   0.000  0.00  0.00     0.104 A 
ATOM      2  C   UNL d   1      -4.072  -1.684   0.000  0.00  0.00     0.012 A 
ATOM      3  C   UNL d   1      -4.072  -0.273   0.000  0.00  0.00     0.013 A 
ATOM      4  C   UNL d   1      -4.912  -0.273   0.000  0.00  0.00     0.001 A 
ATOM      5  C   UNL d   1      -4.912  -1.684   0.000  0.00  0.00     0.001 A 
ATOM      6  C   UNL d   1      -5.309  -0.980   0.000  0.00  0.00     0.000 A 
ATOM      7  C   UNL d   1      -3.652  -2.411   0.000  0.00  0.00     0.001 C 
ENDROOT
BRANCH   1   8
ATOM      8  S   UNL d   1      -2.834  -0.980   0.000  0.00  0.00     0.271 S 
ATOM      9  O   UNL d   1      -2.834  -1.798   0.000  0.00  0.00    -0.200 OA
ATOM     10  O   UNL d   1      -2.834  -0.140   0.000  0.00  0.00    -0.200 OA
BRANCH   8  11
ATOM     11  N   UNL d   1      -2.017  -0.988   0.000  0.00  0.00    -0.229 N 
ATOM     12  C   UNL d   1      -1.620  -1.707   0.000  0.00  0.00     0.092 A 
ATOM     13  C   UNL d   1      -0.791  -1.714   0.000  0.00  0.00     0.020 A 
ATOM     14  C   UNL d   1      -0.363  -0.999   0.000  0.00  0.00     0.003 A 
ATOM     15  C   UNL d   1      -0.783  -0.299   0.000  0.00  0.00     0.020 A 
ATOM     16  C   UNL d   1      -1.608  -0.288   0.000  0.00  0.00     0.092 A 
ENDBRANCH   8  11
ENDBRANCH   1   8
BRANCH   4  17
ATOM     17  C   UNL d   1      -5.324   0.473   0.000  0.00  0.00     0.006 C 
BRANCH  17  18
ATOM     18  C   UNL d   1      -4.912   1.200   0.000  0.00  0.00     0.070 C 
BRANCH  18  19
ATOM     19  C   UNL d   1      -5.324   1.907   0.000  0.00  0.00     0.211 C 
ATOM     20  O   UNL d   1      -6.157   1.907   0.000  0.00  0.00    -0.644 OA
ATOM     21  O   UNL d   1      -4.923   2.619   0.000  0.00  0.00    -0.644 OA
ENDBRANCH  18  19
ENDBRANCH  17  18
ENDBRANCH   4  17
TORSDOF 5
