REMARK  7 active torsions:
REMARK  status: ('A' for Active; 'I' for Inactive)
REMARK    1  A    between atoms: C_2  and  S_1 
REMARK    2  A    between atoms: N_7  and  S_1 
REMARK    3  A    between atoms: C_5  and  C_6 
REMARK    4  A    between atoms: C_6  and  C_8 
REMARK    5  A    between atoms: C_15  and  N_7 
REMARK    6  A    between atoms: C_8  and  C_12 
REMARK    7  A    between atoms: C_18  and  C_15 
ROOT
ATOM      1  C   UNL d   1      -1.478  -0.989   0.000  0.00  0.00     0.105 A 
ATOM      2  C   UNL d   1      -1.893  -1.691   0.000  0.00  0.00     0.012 A 
ATOM      3  C   UNL d   1      -1.893  -0.258   0.000  0.00  0.00     0.013 A 
ATOM      4  C   UNL d   1      -2.717  -0.258   0.000  0.00  0.00     0.001 A 
ATOM      5  C   UNL d   1      -2.717  -1.691   0.000  0.00  0.00     0.001 A 
ATOM      6  C   UNL d   1      -3.132  -0.989   0.000  0.00  0.00     0.000 A 
ATOM      7  C   UNL d   1      -1.463  -2.423   0.000  0.00  0.00     0.001 C 
ENDROOT
BRANCH   1   8
ATOM      8  S   UNL d   1      -0.657  -0.989   0.000  0.00  0.00     0.285 S 
ATOM      9  O   UNL d   1      -0.657  -1.818   0.000  0.00  0.00    -0.198 OA
ATOM     10  O   UNL d   1      -0.657  -0.149   0.000  0.00  0.00    -0.198 OA
BRANCH   8  11
ATOM     11  N   UNL d   1       0.183  -0.989   0.000  0.00  0.00    -0.153 NA
BRANCH  11  12
ATOM     12  C   UNL d   1       0.597  -0.273   0.000  0.00  0.00     0.157 C 
BRANCH  12  13
ATOM     13  C   UNL d   1       1.422  -0.273   0.000  0.00  0.00     0.256 C 
ATOM     14  O   UNL d   1       1.837   0.444   0.000  0.00  0.00    -0.281 OA
ENDBRANCH  12  13
ENDBRANCH  11  12
ENDBRANCH   8  11
ENDBRANCH   1   8
BRANCH   4  15
ATOM     15  C   UNL d   1      -3.132   0.478   0.000  0.00  0.00     0.006 C 
BRANCH  15  16
ATOM     16  C   UNL d   1      -2.699   1.176   0.000  0.00  0.00     0.070 C 
BRANCH  16  17
ATOM     17  C   UNL d   1      -3.091   1.911   0.000  0.00  0.00     0.211 C 
ATOM     18  O   UNL d   1      -3.916   1.926   0.000  0.00  0.00    -0.644 OA
ATOM     19  O   UNL d   1      -2.662   2.609   0.000  0.00  0.00    -0.644 OA
ENDBRANCH  16  17
ENDBRANCH  15  16
ENDBRANCH   4  15
TORSDOF 7
