REMARK  7 active torsions:
REMARK  status: ('A' for Active; 'I' for Inactive)
REMARK    1  A    between atoms: C_2  and  S_1 
REMARK    2  A    between atoms: N_7  and  S_1 
REMARK    3  A    between atoms: O_11  and  C_6 
REMARK    4  A    between atoms: C_12  and  N_7 
REMARK    5  A    between atoms: O_13  and  C_9 
REMARK    6  A    between atoms: C_15  and  C_12 
REMARK    7  A    between atoms: C_14  and  C_15 
ROOT
ATOM      1  S   UNL d   1       4.312   1.677   0.000  0.00  0.00     0.287 S 
ATOM      2  O   UNL d   1       3.887   0.961   0.000  0.00  0.00    -0.198 OA
ATOM      3  O   UNL d   1       4.719   2.386   0.000  0.00  0.00    -0.198 OA
ENDROOT
BRANCH   1   4
ATOM      4  C   UNL d   1       5.025   1.256   0.000  0.00  0.00     0.129 A 
ATOM      5  C   UNL d   1       5.727   1.668   0.000  0.00  0.00     0.039 A 
ATOM      6  C   UNL d   1       6.440   1.256   0.000  0.00  0.00     0.095 A 
ATOM      7  C   UNL d   1       6.440   0.439   0.000  0.00  0.00     0.026 A 
ATOM      8  C   UNL d   1       5.727   0.015   0.000  0.00  0.00     0.027 A 
ATOM      9  C   UNL d   1       5.025   0.424   0.000  0.00  0.00     0.106 A 
BRANCH   6  10
ATOM     10  O   UNL d   1       7.162   1.668   0.000  0.00  0.00    -0.328 OA
ATOM     11  C   UNL d   1       7.162   2.475   0.000  0.00  0.00     0.181 C 
ENDBRANCH   6  10
BRANCH   9  12
ATOM     12  O   UNL d   1       4.321   0.000   0.000  0.00  0.00    -0.327 OA
ATOM     13  C   UNL d   1       3.608   0.405   0.000  0.00  0.00     0.181 C 
ENDBRANCH   9  12
ENDBRANCH   1   4
BRANCH   1  14
ATOM     14  N   UNL d   1       3.593   2.087   0.000  0.00  0.00    -0.157 NA
BRANCH  14  15
ATOM     15  C   UNL d   1       2.862   1.677   0.000  0.00  0.00     0.112 C 
BRANCH  15  16
ATOM     16  C   UNL d   1       2.143   2.087   0.000  0.00  0.00     0.021 C 
BRANCH  16  17
ATOM     17  C   UNL d   1       1.430   1.677   0.000  0.00  0.00     0.002 A 
ATOM     18  C   UNL d   1       0.716   2.087   0.000  0.00  0.00     0.000 A 
ATOM     19  C   UNL d   1       0.000   1.677   0.000  0.00  0.00     0.000 A 
ATOM     20  C   UNL d   1       0.000   0.846   0.000  0.00  0.00     0.000 A 
ATOM     21  C   UNL d   1       0.731   0.439   0.000  0.00  0.00     0.000 A 
ATOM     22  C   UNL d   1       1.430   0.846   0.000  0.00  0.00     0.000 A 
ENDBRANCH  16  17
ENDBRANCH  15  16
ENDBRANCH  14  15
ENDBRANCH   1  14
TORSDOF 7
