REMARK  3 active torsions:
REMARK  status: ('A' for Active; 'I' for Inactive)
REMARK       I    between atoms: C_4  and  N_1 
REMARK    1  A    between atoms: C_2  and  S_8 
REMARK    2  A    between atoms: C_10  and  C_4 
REMARK    3  A    between atoms: S_8  and  C_10 
ROOT
ATOM      1  N   UNL d   1      -2.655   6.019   0.000  0.00  0.00    -0.274 N 
ATOM      2  C   UNL d   1      -2.608   6.844   0.000  0.00  0.00     0.067 A 
ATOM      3  C   UNL d   1      -3.355   5.563   0.000  0.00  0.00     0.259 C 
ATOM      4  C   UNL d   1      -1.880   5.715   0.000  0.00  0.00     0.083 A 
ATOM      5  C   UNL d   1      -1.811   7.056   0.000  0.00  0.00     0.018 A 
ATOM      6  O   UNL d   1      -4.102   5.936   0.000  0.00  0.00    -0.267 OA
ATOM      7  C   UNL d   1      -1.369   6.360   0.000  0.00  0.00     0.021 A 
ATOM      8  C   UNL d   1      -3.189   7.429   0.000  0.00  0.00     0.018 A 
ATOM      9  C   UNL d   1      -1.590   7.844   0.000  0.00  0.00     0.002 A 
ATOM     10  C   UNL d   1      -2.982   8.217   0.000  0.00  0.00     0.002 A 
ATOM     11  C   UNL d   1      -2.180   8.439   0.000  0.00  0.00     0.000 A 
ENDROOT
BRANCH   3  12
ATOM     12  C   UNL d   1      -3.314   4.729   0.000  0.00  0.00     0.127 C 
BRANCH  12  13
ATOM     13  S   UNL d   1      -4.005   4.282   0.000  0.00  0.00    -0.069 SA
BRANCH  13  14
ATOM     14  C   UNL d   1      -4.742   4.664   0.000  0.00  0.00     0.140 A 
ATOM     15  N   UNL d   1      -4.964   5.466   0.000  0.00  0.00    -0.230 NA
ATOM     16  C   UNL d   1      -5.789   5.494   0.000  0.00  0.00     0.107 A 
ATOM     17  C   UNL d   1      -6.084   4.733   0.000  0.00  0.00     0.058 A 
ATOM     18  S   UNL d   1      -5.443   4.212   0.000  0.00  0.00    -0.059 SA
ENDBRANCH  13  14
ENDBRANCH  12  13
ENDBRANCH   3  12
TORSDOF 3
