REMARK  9 active torsions:
REMARK  status: ('A' for Active; 'I' for Inactive)
REMARK    1  A    between atoms: N_4  and  C_1 
REMARK       I    between atoms: C_7  and  N_4 
REMARK    2  A    between atoms: C_13  and  C_7 
REMARK    3  A    between atoms: C_8  and  C_14 
REMARK    4  A    between atoms: O_12  and  C_8 
REMARK    5  A    between atoms: S_11  and  C_13 
REMARK    6  A    between atoms: C_14  and  S_11 
REMARK    7  A    between atoms: C_16  and  O_12 
REMARK    8  A    between atoms: C_17  and  C_16 
REMARK    9  A    between atoms: C_18  and  C_17 
ROOT
ATOM      1  C   UNL d   1      -1.274   6.068   0.000  0.00  0.00     0.127 C 
ENDROOT
BRANCH   1   2
ATOM      2  S   UNL d   1      -0.559   5.656   0.000  0.00  0.00    -0.089 SA
BRANCH   2   3
ATOM      3  C   UNL d   1      -0.559   4.831   0.000  0.00  0.00     0.103 C 
BRANCH   3   4
ATOM      4  C   UNL d   1       0.151   4.418   0.000  0.00  0.00     0.307 C 
ATOM      5  O   UNL d   1       0.151   3.598   0.000  0.00  0.00    -0.258 OA
BRANCH   4   6
ATOM      6  O   UNL d   1       0.857   4.831   0.000  0.00  0.00    -0.271 OA
BRANCH   6   7
ATOM      7  C   UNL d   1       0.857   5.656   0.000  0.00  0.00     0.126 C 
BRANCH   7   8
ATOM      8  C   UNL d   1       1.572   6.068   0.000  0.00  0.00     0.027 C 
BRANCH   8   9
ATOM      9  C   UNL d   1       1.572   6.893   0.000  0.00  0.00     0.002 C 
ATOM     10  C   UNL d   1       2.273   7.306   0.000  0.00  0.00     0.000 C 
ENDBRANCH   8   9
ENDBRANCH   7   8
ENDBRANCH   6   7
ENDBRANCH   4   6
ENDBRANCH   3   4
ENDBRANCH   2   3
ENDBRANCH   1   2
BRANCH   1  11
ATOM     11  C   UNL d   1      -1.989   5.656   0.000  0.00  0.00     0.275 C 
ATOM     12  N   UNL d   1      -2.695   6.068   0.000  0.00  0.00    -0.187 NA
ATOM     13  O   UNL d   1      -1.989   4.831   0.000  0.00  0.00    -0.266 OA
BRANCH  12  14
ATOM     14  C   UNL d   1      -2.695   6.893   0.000  0.00  0.00     0.194 A 
ATOM     15  N   UNL d   1      -3.364   7.375   0.000  0.00  0.00    -0.107 NA
ATOM     16  O   UNL d   1      -3.107   8.158   0.000  0.00  0.00    -0.210 OA
ATOM     17  C   UNL d   1      -2.292   8.172   0.000  0.00  0.00     0.128 A 
ATOM     18  C   UNL d   1      -2.030   7.388   0.000  0.00  0.00     0.068 A 
ATOM     19  C   UNL d   1      -1.815   8.855   0.000  0.00  0.00     0.029 C 
ENDBRANCH  12  14
ENDBRANCH   1  11
TORSDOF 9
