REMARK  3 active torsions:
REMARK  status: ('A' for Active; 'I' for Inactive)
REMARK       I    between atoms: C_2  and  N_1 
REMARK    1  A    between atoms: C_3  and  C_2 
REMARK    2  A    between atoms: S_5  and  C_3 
REMARK    3  A    between atoms: C_7  and  S_5 
ROOT
ATOM      1  C   UNL d   1      -3.394   4.718   0.000  0.00  0.00     0.125 C 
ENDROOT
BRANCH   1   2
ATOM      2  C   UNL d   1      -3.404   5.543   0.000  0.00  0.00     0.259 C 
ATOM      3  N   UNL d   1      -2.689   5.969   0.000  0.00  0.00    -0.268 N 
ATOM      4  C   UNL d   1      -1.974   5.556   0.000  0.00  0.00     0.110 A 
ATOM      5  C   UNL d   1      -2.689   6.793   0.000  0.00  0.00     0.110 A 
ATOM      6  C   UNL d   1      -1.260   5.969   0.000  0.00  0.00     0.142 A 
ATOM      7  O   UNL d   1      -1.260   6.793   0.000  0.00  0.00    -0.300 OA
ATOM      8  C   UNL d   1      -1.974   7.206   0.000  0.00  0.00     0.142 A 
ATOM      9  O   UNL d   1      -4.123   5.955   0.000  0.00  0.00    -0.267 OA
ENDBRANCH   1   2
BRANCH   1  10
ATOM     10  S   UNL d   1      -4.104   4.311   0.000  0.00  0.00    -0.095 SA
BRANCH  10  11
ATOM     11  C   UNL d   1      -4.104   3.486   0.000  0.00  0.00     0.029 A 
ATOM     12  C   UNL d   1      -3.390   3.074   0.000  0.00  0.00     0.007 A 
ATOM     13  C   UNL d   1      -3.390   2.249   0.000  0.00  0.00     0.012 A 
ATOM     14  C   UNL d   1      -4.104   1.837   0.000  0.00  0.00     0.058 A 
ATOM     15  C   UNL d   1      -4.819   2.249   0.000  0.00  0.00     0.012 A 
ATOM     16 CL   UNL d   1      -4.118   1.012   0.000  0.00  0.00    -0.082 Cl
ATOM     17  C   UNL d   1      -4.819   3.074   0.000  0.00  0.00     0.007 A 
ENDBRANCH  10  11
ENDBRANCH   1  10
TORSDOF 3
