REMARK  2 active torsions:
REMARK  status: ('A' for Active; 'I' for Inactive)
REMARK    1  A    between atoms: O_3  and  C_1 
REMARK    2  A    between atoms: C_2  and  O_3 
REMARK       I    between atoms: N_7  and  C_2 
ROOT
ATOM      1  C   UNL d   1       2.629  -3.717   0.000  0.00  0.00     0.133 A 
ATOM      2  C   UNL d   1       2.629  -2.879   0.000  0.00  0.00     0.106 A 
ATOM      3  C   UNL d   1       1.917  -2.475   0.000  0.00  0.00     0.030 A 
ATOM      4  C   UNL d   1       1.917  -4.129   0.000  0.00  0.00     0.083 A 
ATOM      5  C   UNL d   1       1.200  -2.879   0.000  0.00  0.00     0.060 A 
ATOM      6  C   UNL d   1       1.200  -3.717   0.000  0.00  0.00     0.025 A 
ATOM      7  N   UNL d   1       3.350  -2.475   0.000  0.00  0.00    -0.242 NA
ATOM      8 CL   UNL d   1       1.917  -4.954   0.000  0.00  0.00    -0.080 Cl
ATOM      9 CL   UNL d   1       0.479  -2.475   0.000  0.00  0.00    -0.082 Cl
ATOM     10  C   UNL d   1       1.917  -1.650   0.000  0.00  0.00     0.004 A 
ATOM     11  C   UNL d   1       3.350  -1.650   0.000  0.00  0.00     0.099 A 
ATOM     12  C   UNL d   1       2.629  -1.238   0.000  0.00  0.00     0.021 A 
ENDROOT
BRANCH   1  13
ATOM     13  O   UNL d   1       3.350  -4.142   0.000  0.00  0.00    -0.257 OA
BRANCH  13  14
ATOM     14  C   UNL d   1       4.079  -3.729   0.000  0.00  0.00     0.378 C 
ATOM     15  N   UNL d   1       4.787  -4.142   0.000  0.00  0.00    -0.252 N 
ATOM     16  C   UNL d   1       5.504  -3.729   0.000  0.00  0.00     0.085 A 
ATOM     17  C   UNL d   1       4.787  -4.967   0.000  0.00  0.00     0.085 A 
ATOM     18  C   UNL d   1       6.217  -4.142   0.000  0.00  0.00     0.019 A 
ATOM     19  C   UNL d   1       6.217  -4.967   0.000  0.00  0.00     0.003 A 
ATOM     20  C   UNL d   1       5.504  -5.375   0.000  0.00  0.00     0.019 A 
ATOM     21  O   UNL d   1       4.079  -2.892   0.000  0.00  0.00    -0.237 OA
ENDBRANCH  13  14
ENDBRANCH   1  13
TORSDOF 2
