REMARK  0 active torsions:
REMARK  status: ('A' for Active; 'I' for Inactive)
REMARK       I    between atoms: C_2  and  N_1 
REMARK       I    between atoms: N_7  and  C_2 
ROOT
ATOM      1  N   UNL d   1       0.950   0.896   0.000  0.00  0.00    -0.241 N 
ATOM      2  C   UNL d   1       0.512   0.171   0.000  0.00  0.00     0.341 C 
ATOM      3  C   UNL d   1       1.754   0.996   0.000  0.00  0.00     0.087 A 
ATOM      4  C   UNL d   1       0.600   1.633   0.000  0.00  0.00     0.186 A 
ATOM      5  N   UNL d   1       1.200   2.196   0.000  0.00  0.00    -0.224 NA
ATOM      6  C   UNL d   1       1.917   1.796   0.000  0.00  0.00     0.099 A 
ATOM      7  N   UNL d   1      -0.312   0.171   0.000  0.00  0.00    -0.257 N 
ATOM      8  C   UNL d   1       2.367   0.446   0.000  0.00  0.00     0.019 A 
ATOM      9  C   UNL d   1       2.700   2.071   0.000  0.00  0.00     0.021 A 
ATOM     10  C   UNL d   1       3.142   0.713   0.000  0.00  0.00     0.002 A 
ATOM     11  C   UNL d   1       3.317   1.512   0.000  0.00  0.00     0.002 A 
ATOM     12  O   UNL d   1       0.942  -0.542   0.000  0.00  0.00    -0.245 OA
ATOM     13  C   UNL d   1      -0.721  -0.529   0.000  0.00  0.00     0.085 A 
ATOM     14  C   UNL d   1      -0.725   0.896   0.000  0.00  0.00     0.085 A 
ATOM     15  C   UNL d   1       3.754   0.146   0.000  0.00  0.00     0.000 C 
ATOM     16  C   UNL d   1       4.117   1.771   0.000  0.00  0.00     0.000 C 
ATOM     17  C   UNL d   1      -1.546  -0.529   0.000  0.00  0.00     0.019 A 
ATOM     18  C   UNL d   1      -1.558   0.896   0.000  0.00  0.00     0.019 A 
ATOM     19  C   UNL d   1      -1.958   0.171   0.000  0.00  0.00     0.003 A 
ENDROOT
TORSDOF 0
