REMARK  2 active torsions:
REMARK  status: ('A' for Active; 'I' for Inactive)
REMARK    1  A    between atoms: O_3  and  C_1 
REMARK       I    between atoms: N_6  and  C_1 
REMARK    2  A    between atoms: C_5  and  O_3 
ROOT
ATOM      1  C   UNL d   1       2.629  -4.104   0.000  0.00  0.00     0.105 A 
ATOM      2  C   UNL d   1       1.917  -3.692   0.000  0.00  0.00     0.030 A 
ATOM      3  C   UNL d   1       2.629  -4.942   0.000  0.00  0.00     0.122 A 
ATOM      4  N   UNL d   1       3.350  -3.692   0.000  0.00  0.00    -0.242 NA
ATOM      5  C   UNL d   1       1.200  -4.104   0.000  0.00  0.00     0.059 A 
ATOM      6  C   UNL d   1       1.917  -5.350   0.000  0.00  0.00     0.027 A 
ATOM      7  C   UNL d   1       1.200  -4.942   0.000  0.00  0.00     0.013 A 
ATOM      8 CL   UNL d   1       0.479  -3.692   0.000  0.00  0.00    -0.082 Cl
ATOM      9  C   UNL d   1       1.917  -2.867   0.000  0.00  0.00     0.004 A 
ATOM     10  C   UNL d   1       3.350  -2.867   0.000  0.00  0.00     0.099 A 
ATOM     11  C   UNL d   1       2.629  -2.454   0.000  0.00  0.00     0.021 A 
ENDROOT
BRANCH   3  12
ATOM     12  O   UNL d   1       3.350  -5.362   0.000  0.00  0.00    -0.257 OA
BRANCH  12  13
ATOM     13  C   UNL d   1       4.079  -4.954   0.000  0.00  0.00     0.378 C 
ATOM     14  N   UNL d   1       4.787  -5.362   0.000  0.00  0.00    -0.249 N 
ATOM     15  C   UNL d   1       5.504  -4.954   0.000  0.00  0.00     0.104 C 
ATOM     16  C   UNL d   1       4.787  -6.188   0.000  0.00  0.00     0.104 C 
ATOM     17  O   UNL d   1       4.079  -4.117   0.000  0.00  0.00    -0.237 OA
ENDBRANCH  12  13
ENDBRANCH   3  12
TORSDOF 2
