REMARK  3 active torsions:
REMARK  status: ('A' for Active; 'I' for Inactive)
REMARK    1  A    between atoms: C_6  and  N_1 
REMARK    2  A    between atoms: C_7  and  C_6 
REMARK    3  A    between atoms: C_8  and  C_7 
ROOT
ATOM      1  N   UNL d   1       3.169  -2.296   0.000  0.00  0.00    -0.305 N 
ATOM      2  C   UNL d   1       2.443  -1.908   0.000  0.00  0.00     0.064 A 
ATOM      3  C   UNL d   1       4.075  -1.845   0.000  0.00  0.00     0.064 A 
ATOM      4  C   UNL d   1       2.818  -1.182   0.000  0.00  0.00     0.018 A 
ATOM      5  C   UNL d   1       3.637  -1.144   0.000  0.00  0.00     0.018 A 
ATOM      6  C   UNL d   1       4.889  -1.821   0.000  0.00  0.00     0.018 A 
ATOM      7  C   UNL d   1       1.616  -1.946   0.000  0.00  0.00     0.018 A 
ATOM      8  C   UNL d   1       2.372  -0.480   0.000  0.00  0.00     0.002 A 
ATOM      9  C   UNL d   1       4.021  -0.418   0.000  0.00  0.00     0.002 A 
ATOM     10  C   UNL d   1       4.848  -0.393   0.000  0.00  0.00     0.000 A 
ATOM     11  C   UNL d   1       1.165  -1.253   0.000  0.00  0.00     0.002 A 
ATOM     12  C   UNL d   1       5.278  -1.094   0.000  0.00  0.00     0.002 A 
ATOM     13  C   UNL d   1       1.553  -0.518   0.000  0.00  0.00     0.000 A 
ENDROOT
BRANCH   1  14
ATOM     14  C   UNL d   1       3.194  -3.123   0.000  0.00  0.00     0.086 C 
BRANCH  14  15
ATOM     15  C   UNL d   1       3.908  -3.537   0.000  0.00  0.00     0.089 C 
BRANCH  15  16
ATOM     16  C   UNL d   1       4.622  -3.119   0.000  0.00  0.00     0.213 C 
ATOM     17  O   UNL d   1       4.614  -2.292   0.000  0.00  0.00    -0.644 OA
ATOM     18  O   UNL d   1       5.340  -3.524   0.000  0.00  0.00    -0.644 OA
ENDBRANCH  15  16
ENDBRANCH  14  15
ENDBRANCH   1  14
TORSDOF 3
