REMARK  8 active torsions:
REMARK  status: ('A' for Active; 'I' for Inactive)
REMARK    1  A    between atoms: C_6  and  N_1 
REMARK    2  A    between atoms: C_7  and  C_6 
REMARK    3  A    between atoms: C_12  and  C_7 
REMARK    4  A    between atoms: C_8  and  C_19 
REMARK    5  A    between atoms: C_9  and  C_20 
REMARK    6  A    between atoms: N_13  and  C_12 
REMARK    7  A    between atoms: C_19  and  N_13 
REMARK    8  A    between atoms: C_20  and  N_13 
ROOT
ATOM      1  N   UNL d   1       0.304  -0.050   0.000  0.00  0.00    -0.303 N 
ATOM      2  C   UNL d   1      -0.245   0.574   0.000  0.00  0.00     0.064 A 
ATOM      3  C   UNL d   1       1.066   0.283   0.000  0.00  0.00     0.064 A 
ATOM      4  C   UNL d   1       0.991   1.107   0.000  0.00  0.00     0.018 A 
ATOM      5  C   UNL d   1       0.179   1.294   0.000  0.00  0.00     0.018 A 
ATOM      6  C   UNL d   1       1.815  -0.062   0.000  0.00  0.00     0.018 A 
ATOM      7  C   UNL d   1      -1.070   0.583   0.000  0.00  0.00     0.018 A 
ATOM      8  C   UNL d   1       1.665   1.586   0.000  0.00  0.00     0.002 A 
ATOM      9  C   UNL d   1      -0.225   2.006   0.000  0.00  0.00     0.002 A 
ATOM     10  C   UNL d   1      -1.045   2.019   0.000  0.00  0.00     0.000 A 
ATOM     11  C   UNL d   1      -1.469   1.307   0.000  0.00  0.00     0.002 A 
ATOM     12  C   UNL d   1       2.497   0.420   0.000  0.00  0.00     0.002 A 
ATOM     13  C   UNL d   1       2.414   1.244   0.000  0.00  0.00     0.000 A 
ENDROOT
BRANCH   1  14
ATOM     14  C   UNL d   1       0.129  -0.853   0.000  0.00  0.00     0.124 C 
BRANCH  14  15
ATOM     15  C   UNL d   1       0.841  -1.265   0.000  0.00  0.00     0.231 C 
ATOM     16  O   UNL d   1       0.724  -2.085   0.000  0.00  0.00    -0.283 OA
BRANCH  15  17
ATOM     17  C   UNL d   1       1.640  -1.061   0.000  0.00  0.00     0.124 C 
BRANCH  17  18
ATOM     18  N   UNL d   1       2.214  -1.648   0.000  0.00  0.00    -0.300 N 
BRANCH  18  19
ATOM     19  C   UNL d   1       3.014  -1.440   0.000  0.00  0.00     0.080 C 
BRANCH  19  20
ATOM     20  C   UNL d   1       3.596  -2.027   0.000  0.00  0.00     0.019 C 
ATOM     21  C   UNL d   1       4.420  -2.027   0.000  0.00  0.00     0.002 C 
ENDBRANCH  19  20
ENDBRANCH  18  19
BRANCH  18  22
ATOM     22  C   UNL d   1       1.998  -2.439   0.000  0.00  0.00     0.080 C 
BRANCH  22  23
ATOM     23  C   UNL d   1       2.576  -3.026   0.000  0.00  0.00     0.019 C 
ATOM     24  C   UNL d   1       3.401  -3.026   0.000  0.00  0.00     0.002 C 
ENDBRANCH  22  23
ENDBRANCH  18  22
ENDBRANCH  17  18
ENDBRANCH  15  17
ENDBRANCH  14  15
ENDBRANCH   1  14
TORSDOF 8
