REMARK  2 active torsions:
REMARK  status: ('A' for Active; 'I' for Inactive)
REMARK    1  A    between atoms: C_6  and  C_1 
REMARK    2  A    between atoms: C_7  and  C_3 
ROOT
ATOM      1  C   UNL d   1       3.374  -5.337   0.000  0.00  0.00     0.081 A 
ATOM      2  N   UNL d   1       2.898  -6.005   0.000  0.00  0.00    -0.246 NA
ATOM      3  C   UNL d   1       2.886  -4.677   0.000  0.00  0.00     0.019 A 
ATOM      4  C   UNL d   1       2.109  -4.936   0.000  0.00  0.00     0.019 A 
ATOM      5  C   UNL d   1       2.109  -5.755   0.000  0.00  0.00     0.081 A 
ATOM      6  C   UNL d   1       1.395  -4.514   0.000  0.00  0.00     0.002 A 
ATOM      7  C   UNL d   1       1.395  -6.168   0.000  0.00  0.00     0.019 A 
ATOM      8  C   UNL d   1       0.681  -4.936   0.000  0.00  0.00     0.000 A 
ATOM      9  C   UNL d   1       0.681  -5.763   0.000  0.00  0.00     0.002 A 
ENDROOT
BRANCH   1  10
ATOM     10  C   UNL d   1       4.176  -5.550   0.000  0.00  0.00     0.018 A 
ATOM     11  C   UNL d   1       4.748  -4.965   0.000  0.00  0.00     0.002 A 
ATOM     12  C   UNL d   1       5.542  -5.178   0.000  0.00  0.00     0.000 A 
ATOM     13  C   UNL d   1       5.763  -5.968   0.000  0.00  0.00     0.000 A 
ATOM     14  C   UNL d   1       5.178  -6.552   0.000  0.00  0.00     0.000 A 
ATOM     15  C   UNL d   1       4.389  -6.343   0.000  0.00  0.00     0.002 A 
ENDBRANCH   1  10
BRANCH   3  16
ATOM     16  C   UNL d   1       3.144  -3.888   0.000  0.00  0.00     0.002 A 
ATOM     17  C   UNL d   1       3.950  -3.712   0.000  0.00  0.00     0.000 A 
ATOM     18  C   UNL d   1       4.201  -2.932   0.000  0.00  0.00     0.000 A 
ATOM     19  C   UNL d   1       3.650  -2.309   0.000  0.00  0.00     0.000 A 
ATOM     20  C   UNL d   1       2.836  -2.485   0.000  0.00  0.00     0.000 A 
ATOM     21  C   UNL d   1       2.585  -3.274   0.000  0.00  0.00     0.000 A 
ENDBRANCH   3  16
TORSDOF 2
