REMARK  4 active torsions:
REMARK  status: ('A' for Active; 'I' for Inactive)
REMARK    1  A    between atoms: N_2  and  C_1 
REMARK    2  A    between atoms: C_3  and  C_1 
REMARK       I    between atoms: C_6  and  N_2 
REMARK    3  A    between atoms: S_9  and  C_6 
REMARK    4  A    between atoms: C_14  and  S_9 
ROOT
ATOM      1  C   UNL d   1      -0.553   0.093   0.000  0.00  0.00     0.385 A 
ATOM      2  O   UNL d   1      -1.039   0.745   0.000  0.00  0.00    -0.283 OA
ATOM      3  O   UNL d   1      -1.039  -0.587   0.000  0.00  0.00    -0.283 OA
ATOM      4  C   UNL d   1      -1.823  -0.331   0.000  0.00  0.00     0.121 A 
ATOM      5  C   UNL d   1      -1.823   0.502   0.000  0.00  0.00     0.121 A 
ATOM      6  C   UNL d   1      -2.528   0.910   0.000  0.00  0.00     0.026 A 
ATOM      7  C   UNL d   1      -2.528  -0.740   0.000  0.00  0.00     0.026 A 
ATOM      8  C   UNL d   1      -3.244  -0.320   0.000  0.00  0.00     0.002 A 
ATOM      9  C   UNL d   1      -3.244   0.489   0.000  0.00  0.00     0.002 A 
ENDROOT
BRANCH   1  10
ATOM     10  N   UNL d   1       0.280   0.000   0.000  0.00  0.00    -0.171 NA
ATOM     11  C   UNL d   1       0.611  -0.756   0.000  0.00  0.00     0.310 C 
ATOM     12  O   UNL d   1       0.128  -1.420   0.000  0.00  0.00    -0.258 OA
BRANCH  11  13
ATOM     13  S   UNL d   1       1.434  -0.844   0.000  0.00  0.00    -0.026 SA
BRANCH  13  14
ATOM     14  C   UNL d   1       1.922  -0.179   0.000  0.00  0.00     0.034 A 
ATOM     15  C   UNL d   1       2.742  -0.267   0.000  0.00  0.00     0.007 A 
ATOM     16  C   UNL d   1       3.228   0.398   0.000  0.00  0.00     0.001 A 
ATOM     17  C   UNL d   1       2.894   1.153   0.000  0.00  0.00     0.000 A 
ATOM     18  C   UNL d   1       2.075   1.247   0.000  0.00  0.00     0.001 A 
ATOM     19  C   UNL d   1       1.589   0.577   0.000  0.00  0.00     0.007 A 
ENDBRANCH  13  14
ENDBRANCH  11  13
ENDBRANCH   1  10
BRANCH   1  20
ATOM     20  C   UNL d   1      -0.478   0.910   0.000  0.00  0.00     0.470 C 
ATOM     21  F   UNL d   1      -0.385   1.735   0.000  0.00  0.00    -0.164 F 
ATOM     22  F   UNL d   1       0.355   0.822   0.000  0.00  0.00    -0.164 F 
ATOM     23  F   UNL d   1      -1.295   0.991   0.000  0.00  0.00    -0.164 F 
ENDBRANCH   1  20
TORSDOF 4
