REMARK  0 active torsions:
REMARK  status: ('A' for Active; 'I' for Inactive)
REMARK       I    between atoms: C_3  and  N_1 
REMARK       I    between atoms: N_6  and  C_3 
ROOT
ATOM      1  N   UNL d   1       3.511  -5.489   0.000  0.00  0.00    -0.160 N 
ATOM      2  N   UNL d   1       3.163  -4.755   0.000  0.00  0.00    -0.056 NA
ATOM      3  C   UNL d   1       3.076  -6.218   0.000  0.00  0.00     0.357 C 
ATOM      4  N   UNL d   1       3.768  -4.195   0.000  0.00  0.00    -0.128 NA
ATOM      5  C   UNL d   1       4.320  -5.397   0.000  0.00  0.00     0.108 A 
ATOM      6  N   UNL d   1       2.255  -6.218   0.000  0.00  0.00    -0.252 N 
ATOM      7  C   UNL d   1       4.481  -4.593   0.000  0.00  0.00     0.122 A 
ATOM      8  O   UNL d   1       3.511  -6.931   0.000  0.00  0.00    -0.244 OA
ATOM      9  O   UNL d   1       0.609  -6.218   0.000  0.00  0.00    -0.300 OA
ATOM     10  C   UNL d   1       4.929  -5.936   0.000  0.00  0.00     0.021 A 
ATOM     11  C   UNL d   1       1.841  -5.489   0.000  0.00  0.00     0.111 A 
ATOM     12  C   UNL d   1       1.845  -6.919   0.000  0.00  0.00     0.111 A 
ATOM     13  C   UNL d   1       5.265  -4.320   0.000  0.00  0.00     0.022 A 
ATOM     14  C   UNL d   1       1.012  -5.489   0.000  0.00  0.00     0.142 A 
ATOM     15  C   UNL d   1       1.020  -6.919   0.000  0.00  0.00     0.142 A 
ATOM     16  C   UNL d   1       5.713  -5.675   0.000  0.00  0.00     0.002 A 
ATOM     17  C   UNL d   1       5.887  -4.875   0.000  0.00  0.00     0.002 A 
ENDROOT
TORSDOF 0
