REMARK  3 active torsions:
REMARK  status: ('A' for Active; 'I' for Inactive)
REMARK    1  A    between atoms: C_11  and  N_2 
REMARK    2  A    between atoms: C_9  and  N_3 
REMARK    3  A    between atoms: C_10  and  C_12 
ROOT
ATOM      1  C   UNL d   1      13.865 -18.719   0.000  0.00  0.00     0.339 A 
ATOM      2  N   UNL d   1      13.048 -18.819   0.000  0.00  0.00    -0.258 N 
ATOM      3  N   UNL d   1      14.224 -19.466   0.000  0.00  0.00    -0.258 N 
ATOM      4  S   UNL d   1      12.652 -20.946   0.000  0.00  0.00     0.214 S 
ATOM      5  C   UNL d   1      12.890 -19.641   0.000  0.00  0.00     0.097 A 
ATOM      6  C   UNL d   1      13.623 -20.033   0.000  0.00  0.00     0.097 A 
ATOM      7  C   UNL d   1      12.297 -20.208   0.000  0.00  0.00     0.118 A 
ATOM      8  C   UNL d   1      13.465 -20.846   0.000  0.00  0.00     0.118 A 
ATOM      9  O   UNL d   1      14.266 -17.994   0.000  0.00  0.00    -0.245 OA
ATOM     10  O   UNL d   1      13.015 -21.697   0.000  0.00  0.00    -0.217 OA
ATOM     11  O   UNL d   1      11.839 -21.105   0.000  0.00  0.00    -0.217 OA
ENDROOT
BRANCH   3  12
ATOM     12  C   UNL d   1      15.037 -19.620   0.000  0.00  0.00     0.068 A 
ATOM     13  C   UNL d   1      15.312 -20.396   0.000  0.00  0.00     0.021 A 
ATOM     14  C   UNL d   1      16.117 -20.554   0.000  0.00  0.00     0.073 A 
ATOM     15  C   UNL d   1      16.655 -19.928   0.000  0.00  0.00     0.004 A 
ATOM     16  C   UNL d   1      16.388 -19.145   0.000  0.00  0.00     0.001 A 
ATOM     17  C   UNL d   1      15.575 -18.994   0.000  0.00  0.00     0.018 A 
BRANCH  14  18
ATOM     18  C   UNL d   1      16.392 -21.334   0.000  0.00  0.00     0.419 C 
ATOM     19  F   UNL d   1      16.638 -22.047   0.000  0.00  0.00    -0.166 F 
ATOM     20  F   UNL d   1      15.938 -22.072   0.000  0.00  0.00    -0.166 F 
ATOM     21  F   UNL d   1      17.201 -21.630   0.000  0.00  0.00    -0.166 F 
ENDBRANCH  14  18
ENDBRANCH   3  12
BRANCH   2  22
ATOM     22  C   UNL d   1      12.477 -18.219   0.000  0.00  0.00     0.068 A 
ATOM     23  C   UNL d   1      11.676 -18.415   0.000  0.00  0.00     0.016 A 
ATOM     24  C   UNL d   1      11.438 -19.203   0.000  0.00  0.00     0.002 C 
ATOM     25  C   UNL d   1      11.113 -17.806   0.000  0.00  0.00     0.001 A 
ATOM     26  C   UNL d   1      11.351 -17.018   0.000  0.00  0.00     0.000 A 
ATOM     27  C   UNL d   1      12.152 -16.830   0.000  0.00  0.00     0.002 A 
ATOM     28  C   UNL d   1      12.714 -17.431   0.000  0.00  0.00     0.018 A 
ENDBRANCH   2  22
TORSDOF 3
