REMARK  4 active torsions:
REMARK  status: ('A' for Active; 'I' for Inactive)
REMARK    1  A    between atoms: C_11  and  N_2 
REMARK    2  A    between atoms: N_3  and  C_14 
REMARK    3  A    between atoms: C_16  and  C_11 
REMARK    4  A    between atoms: C_14  and  C_16 
ROOT
ATOM      1  C   UNL d   1       9.693 -24.826   0.000  0.00  0.00     0.231 C 
ATOM      2  O   UNL d   1      10.247 -24.213   0.000  0.00  0.00    -0.283 OA
ENDROOT
BRANCH   1   3
ATOM      3  C   UNL d   1       8.884 -24.655   0.000  0.00  0.00     0.124 C 
BRANCH   3   4
ATOM      4  N   UNL d   1       8.630 -23.867   0.000  0.00  0.00    -0.303 N 
ATOM      5  C   UNL d   1       9.121 -23.191   0.000  0.00  0.00     0.064 A 
ATOM      6  C   UNL d   1       8.630 -22.524   0.000  0.00  0.00     0.018 A 
ATOM      7  C   UNL d   1       9.947 -23.191   0.000  0.00  0.00     0.019 C 
ATOM      8  C   UNL d   1       8.884 -21.741   0.000  0.00  0.00     0.002 C 
ATOM      9  C   UNL d   1       7.842 -22.779   0.000  0.00  0.00     0.018 A 
ATOM     10  C   UNL d   1       7.842 -23.613   0.000  0.00  0.00     0.064 A 
ATOM     11  C   UNL d   1       7.120 -22.366   0.000  0.00  0.00     0.002 A 
ATOM     12  C   UNL d   1       7.120 -24.025   0.000  0.00  0.00     0.018 A 
ATOM     13  C   UNL d   1       6.408 -23.613   0.000  0.00  0.00     0.002 A 
ATOM     14  C   UNL d   1       6.408 -22.787   0.000  0.00  0.00     0.000 A 
ENDBRANCH   3   4
ENDBRANCH   1   3
BRANCH   1  15
ATOM     15  C   UNL d   1       9.947 -25.605   0.000  0.00  0.00     0.138 C 
BRANCH  15  16
ATOM     16  N   UNL d   1       9.397 -26.226   0.000  0.00  0.00    -0.194 N 
ATOM     17  S   UNL d   1       9.572 -27.031   0.000  0.00  0.00     0.274 S 
ATOM     18  C   UNL d   1       8.859 -27.444   0.000  0.00  0.00     0.109 A 
ATOM     19  O   UNL d   1      10.368 -26.814   0.000  0.00  0.00    -0.200 OA
ATOM     20  O   UNL d   1       9.568 -27.856   0.000  0.00  0.00    -0.200 OA
ATOM     21  C   UNL d   1       8.246 -26.893   0.000  0.00  0.00     0.069 A 
ATOM     22  C   UNL d   1       8.684 -28.244   0.000  0.00  0.00     0.013 A 
ATOM     23  C   UNL d   1       7.466 -27.143   0.000  0.00  0.00     0.005 A 
ATOM     24  C   UNL d   1       8.579 -26.139   0.000  0.00  0.00     0.275 A 
ATOM     25  C   UNL d   1       7.296 -27.944   0.000  0.00  0.00     0.000 A 
ATOM     26  C   UNL d   1       7.908 -28.494   0.000  0.00  0.00     0.001 A 
ATOM     27  O   UNL d   1       8.167 -25.426   0.000  0.00  0.00    -0.266 OA
ENDBRANCH  15  16
ENDBRANCH   1  15
TORSDOF 4
