REMARK  3 active torsions:
REMARK  status: ('A' for Active; 'I' for Inactive)
REMARK    1  A    between atoms: N_2  and  C_1 
REMARK    2  A    between atoms: C_4  and  C_1 
REMARK       I    between atoms: C_3  and  N_2 
REMARK       I    between atoms: N_5  and  C_3 
REMARK       I    between atoms: C_6  and  N_5 
REMARK    3  A    between atoms: C_11  and  C_6 
ROOT
ATOM      1  N   UNL d   1      -0.677  -0.383   0.000  0.00  0.00    -0.159 NA
ATOM      2  C   UNL d   1      -0.043  -0.926   0.000  0.00  0.00     0.371 C 
ATOM      3  N   UNL d   1       0.738  -0.653   0.000  0.00  0.00    -0.152 NA
ATOM      4  C   UNL d   1       0.894   0.167   0.000  0.00  0.00     0.283 C 
ATOM      5  O   UNL d   1      -0.213  -1.706   0.000  0.00  0.00    -0.243 OA
ATOM      6  O   UNL d   1       1.660   0.436   0.000  0.00  0.00    -0.265 OA
ENDROOT
BRANCH   1   7
ATOM      7  C   UNL d   1      -1.458  -0.653   0.000  0.00  0.00     0.386 A 
ATOM      8  O   UNL d   1      -0.777  -1.131   0.000  0.00  0.00    -0.281 OA
ATOM      9  C   UNL d   1      -1.018  -1.915   0.000  0.00  0.00     0.147 A 
ATOM     10  C   UNL d   1      -1.830  -1.930   0.000  0.00  0.00     0.147 A 
ATOM     11  O   UNL d   1      -2.086  -1.131   0.000  0.00  0.00    -0.281 OA
BRANCH   7  12
ATOM     12  C   UNL d   1      -1.954   0.011   0.000  0.00  0.00     0.470 C 
ATOM     13  F   UNL d   1      -1.288   0.507   0.000  0.00  0.00    -0.164 F 
ATOM     14  F   UNL d   1      -2.614  -0.500   0.000  0.00  0.00    -0.164 F 
ATOM     15  F   UNL d   1      -2.465   0.677   0.000  0.00  0.00    -0.164 F 
ENDBRANCH   7  12
ENDBRANCH   1   7
BRANCH   4  16
ATOM     16  C   UNL d   1       0.280   0.709   0.000  0.00  0.00     0.058 A 
ATOM     17  C   UNL d   1       0.440   1.518   0.000  0.00  0.00     0.005 A 
ATOM     18  C   UNL d   1      -0.170   2.071   0.000  0.00  0.00     0.000 A 
ATOM     19  C   UNL d   1      -0.954   1.798   0.000  0.00  0.00     0.000 A 
ATOM     20  C   UNL d   1      -1.117   0.990   0.000  0.00  0.00     0.000 A 
ATOM     21  C   UNL d   1      -0.507   0.454   0.000  0.00  0.00     0.005 A 
ENDBRANCH   4  16
TORSDOF 3
