REMARK  5 active torsions:
REMARK  status: ('A' for Active; 'I' for Inactive)
REMARK    1  A    between atoms: C_3  and  C_1 
REMARK    2  A    between atoms: N_4  and  C_3 
REMARK    3  A    between atoms: C_6  and  C_3 
REMARK    4  A    between atoms: C_21  and  N_9 
REMARK    5  A    between atoms: C_25  and  C_21 
ROOT
ATOM      1  C   UNL d   1       0.669   1.484   0.000  0.00  0.00     0.073 C 
ENDROOT
BRANCH   1   2
ATOM      2  C   UNL d   1      -0.062   1.887   0.000  0.00  0.00     0.057 A 
ATOM      3  C   UNL d   1      -0.782   1.484   0.000  0.00  0.00     0.214 A 
ATOM      4  C   UNL d   1      -1.495   1.887   0.000  0.00  0.00     0.120 A 
ATOM      5  O   UNL d   1      -0.782   0.665   0.000  0.00  0.00    -0.285 OA
ATOM      6  N   UNL d   1      -2.193   1.484   0.000  0.00  0.00    -0.241 NA
ATOM      7  C   UNL d   1      -1.495   2.713   0.000  0.00  0.00     0.021 A 
ATOM      8  C   UNL d   1      -2.909   1.887   0.000  0.00  0.00     0.099 A 
ATOM      9  C   UNL d   1      -2.909   2.713   0.000  0.00  0.00     0.021 A 
ATOM     10  C   UNL d   1      -2.193   3.127   0.000  0.00  0.00     0.003 A 
ATOM     11  C   UNL d   1      -0.782   3.127   0.000  0.00  0.00     0.002 A 
ATOM     12  C   UNL d   1      -0.062   2.713   0.000  0.00  0.00     0.005 A 
ENDBRANCH   1   2
BRANCH   1  13
ATOM     13  N   UNL d   1       0.669   0.665   0.000  0.00  0.00    -0.301 N 
ATOM     14  C   UNL d   1       1.385   0.247   0.000  0.00  0.00     0.100 A 
ATOM     15  C   UNL d   1       1.400  -0.571   0.000  0.00  0.00     0.100 A 
ATOM     16  N   UNL d   1       0.669  -0.993   0.000  0.00  0.00    -0.297 N 
ATOM     17  C   UNL d   1      -0.044  -0.593   0.000  0.00  0.00     0.100 A 
ATOM     18  C   UNL d   1      -0.044   0.247   0.000  0.00  0.00     0.100 A 
BRANCH  16  19
ATOM     19  C   UNL d   1       0.669  -1.815   0.000  0.00  0.00     0.126 C 
BRANCH  19  20
ATOM     20  C   UNL d   1       1.367  -2.229   0.000  0.00  0.00     0.253 C 
ATOM     21  O   UNL d   1       1.367  -3.055   0.000  0.00  0.00    -0.281 OA
ENDBRANCH  19  20
ENDBRANCH  16  19
ENDBRANCH   1  13
BRANCH   1  22
ATOM     22  C   UNL d   1       1.367   1.905   0.000  0.00  0.00     0.046 A 
ATOM     23  S   UNL d   1       1.367   2.724   0.000  0.00  0.00    -0.085 SA
ATOM     24  C   UNL d   1       2.131   2.967   0.000  0.00  0.00     0.035 A 
ATOM     25  C   UNL d   1       2.622   2.309   0.000  0.00  0.00     0.007 A 
ATOM     26  C   UNL d   1       2.153   1.644   0.000  0.00  0.00     0.009 A 
ENDBRANCH   1  22
TORSDOF 5
