REMARK  4 active torsions:
REMARK  status: ('A' for Active; 'I' for Inactive)
REMARK    1  A    between atoms: N_6  and  C_1 
REMARK    2  A    between atoms: C_7  and  N_2 
REMARK    3  A    between atoms: C_11  and  N_6 
REMARK    4  A    between atoms: C_14  and  C_11 
ROOT
ATOM      1  C   UNL d   1       2.666   2.062   0.000  0.00  0.00     0.735 A 
ATOM      2  N   UNL d   1       2.168   1.404   0.000  0.00  0.00    -0.139 N 
ATOM      3  N   UNL d   1       2.168   2.750   0.000  0.00  0.00    -0.059 NA
ATOM      4  C   UNL d   1       1.402   1.650   0.000  0.00  0.00     0.100 A 
ATOM      5  C   UNL d   1       1.402   2.499   0.000  0.00  0.00     0.116 A 
ATOM      6  C   UNL d   1       0.688   1.238   0.000  0.00  0.00     0.020 A 
ATOM      7  C   UNL d   1       0.658   2.853   0.000  0.00  0.00     0.021 A 
ATOM      8  C   UNL d   1       0.000   1.650   0.000  0.00  0.00     0.002 A 
ATOM      9  C   UNL d   1       0.000   2.475   0.000  0.00  0.00     0.002 A 
ENDROOT
BRANCH   1  10
ATOM     10  N   UNL d   1       3.491   2.092   0.000  0.00  0.00    -0.056 NA
BRANCH  10  11
ATOM     11  C   UNL d   1       3.904   1.404   0.000  0.00  0.00     0.163 C 
BRANCH  11  12
ATOM     12  C   UNL d   1       4.729   1.434   0.000  0.00  0.00     0.255 C 
ATOM     13  O   UNL d   1       5.166   0.719   0.000  0.00  0.00    -0.281 OA
ENDBRANCH  11  12
ENDBRANCH  10  11
ENDBRANCH   1  10
BRANCH   2  14
ATOM     14  C   UNL d   1       2.580   0.719   0.000  0.00  0.00     0.082 C 
ATOM     15  C   UNL d   1       2.168   0.000   0.000  0.00  0.00     0.020 C 
ATOM     16  C   UNL d   1       3.405   0.744   0.000  0.00  0.00     0.020 C 
ENDBRANCH   2  14
TORSDOF 4
