REMARK  3 active torsions:
REMARK  status: ('A' for Active; 'I' for Inactive)
REMARK    1  A    between atoms: C_3  and  C_1 
REMARK    2  A    between atoms: N_4  and  C_3 
REMARK    3  A    between atoms: C_8  and  C_3 
ROOT
ATOM      1  C   UNL d   1      -1.491  -0.270   0.000  0.00  0.00     0.069 C 
ENDROOT
BRANCH   1   2
ATOM      2  C   UNL d   1      -2.215   0.133   0.000  0.00  0.00     0.057 A 
ATOM      3  C   UNL d   1      -2.923  -0.292   0.000  0.00  0.00     0.214 A 
ATOM      4  C   UNL d   1      -3.632   0.118   0.000  0.00  0.00     0.120 A 
ATOM      5  O   UNL d   1      -2.923  -1.122   0.000  0.00  0.00    -0.285 OA
ATOM      6  N   UNL d   1      -4.348  -0.292   0.000  0.00  0.00    -0.241 NA
ATOM      7  C   UNL d   1      -3.632   0.949   0.000  0.00  0.00     0.021 A 
ATOM      8  C   UNL d   1      -5.057   0.133   0.000  0.00  0.00     0.099 A 
ATOM      9  C   UNL d   1      -5.057   0.930   0.000  0.00  0.00     0.021 A 
ATOM     10  C   UNL d   1      -4.348   1.358   0.000  0.00  0.00     0.003 A 
ATOM     11  C   UNL d   1      -2.923   1.358   0.000  0.00  0.00     0.002 A 
ATOM     12  C   UNL d   1      -2.215   0.930   0.000  0.00  0.00     0.005 A 
ENDBRANCH   1   2
BRANCH   1  13
ATOM     13  N   UNL d   1      -1.473  -1.089   0.000  0.00  0.00    -0.301 N 
ATOM     14  C   UNL d   1      -0.749  -1.476   0.000  0.00  0.00     0.100 A 
ATOM     15  C   UNL d   1      -0.727  -2.307   0.000  0.00  0.00     0.100 A 
ATOM     16  N   UNL d   1      -1.417  -2.735   0.000  0.00  0.00    -0.299 N 
ATOM     17  C   UNL d   1      -2.145  -2.348   0.000  0.00  0.00     0.100 A 
ATOM     18  C   UNL d   1      -1.403  -3.547   0.000  0.00  0.00     0.100 C 
ATOM     19  C   UNL d   1      -2.167  -1.532   0.000  0.00  0.00     0.100 A 
ENDBRANCH   1  13
BRANCH   1  20
ATOM     20  C   UNL d   1      -0.782   0.133   0.000  0.00  0.00     0.035 A 
ATOM     21  C   UNL d   1      -0.074  -0.270   0.000  0.00  0.00     0.100 A 
ATOM     22  N   UNL d   1       0.646   0.133   0.000  0.00  0.00    -0.242 NA
ATOM     23  C   UNL d   1       0.646   0.960   0.000  0.00  0.00     0.099 A 
ATOM     24  C   UNL d   1      -0.063   1.369   0.000  0.00  0.00     0.021 A 
ATOM     25  C   UNL d   1      -0.782   0.960   0.000  0.00  0.00     0.005 A 
ENDBRANCH   1  20
TORSDOF 3
