REMARK  5 active torsions:
REMARK  status: ('A' for Active; 'I' for Inactive)
REMARK    1  A    between atoms: N_2  and  S_1 
REMARK    2  A    between atoms: C_7  and  S_1 
REMARK    3  A    between atoms: C_3  and  N_2 
REMARK    4  A    between atoms: C_6  and  O_8 
REMARK    5  A    between atoms: O_8  and  C_9 
ROOT
ATOM      1  C   UNL d   1      -2.145  -0.665   0.000  0.00  0.00     0.117 A 
ATOM      2  C   UNL d   1      -2.567  -1.373   0.000  0.00  0.00     0.118 A 
ATOM      3  C   UNL d   1      -2.567   0.046   0.000  0.00  0.00     0.022 A 
ATOM      4  C   UNL d   1      -3.388  -1.373   0.000  0.00  0.00     0.026 A 
ATOM      5  C   UNL d   1      -3.388   0.046   0.000  0.00  0.00     0.002 A 
ATOM      6  C   UNL d   1      -3.806  -0.665   0.000  0.00  0.00     0.002 A 
ENDROOT
BRANCH   1   7
ATOM      7  N   UNL d   1      -1.323  -0.665   0.000  0.00  0.00    -0.156 NA
BRANCH   7   8
ATOM      8  S   UNL d   1      -0.909   0.046   0.000  0.00  0.00     0.285 S 
ATOM      9  O   UNL d   1      -1.639   0.468   0.000  0.00  0.00    -0.198 OA
ATOM     10  O   UNL d   1      -0.194  -0.369   0.000  0.00  0.00    -0.198 OA
BRANCH   8  11
ATOM     11  C   UNL d   1      -0.487   0.776   0.000  0.00  0.00     0.105 A 
ATOM     12  C   UNL d   1      -0.909   1.491   0.000  0.00  0.00     0.013 A 
ATOM     13  C   UNL d   1      -0.487   2.202   0.000  0.00  0.00     0.001 A 
ATOM     14  C   UNL d   1       0.354   2.202   0.000  0.00  0.00     0.000 A 
ATOM     15  C   UNL d   1       0.757   1.491   0.000  0.00  0.00     0.001 A 
ATOM     16  C   UNL d   1       0.354   0.776   0.000  0.00  0.00     0.013 A 
ENDBRANCH   8  11
ENDBRANCH   7   8
ENDBRANCH   1   7
BRANCH   2  17
ATOM     17  O   UNL d   1      -2.129  -2.103   0.000  0.00  0.00    -0.306 OA
BRANCH  17  18
ATOM     18  C   UNL d   1      -1.308  -2.103   0.000  0.00  0.00     0.100 A 
ATOM     19  C   UNL d   1      -0.886  -2.818   0.000  0.00  0.00     0.025 A 
ATOM     20  C   UNL d   1      -0.057  -2.799   0.000  0.00  0.00     0.002 A 
ATOM     21  C   UNL d   1       0.354  -3.422   0.000  0.00  0.00     0.000 C 
ATOM     22  C   UNL d   1       0.346  -2.080   0.000  0.00  0.00     0.000 A 
ATOM     23  C   UNL d   1      -0.087  -1.373   0.000  0.00  0.00     0.002 A 
ATOM     24  C   UNL d   1      -0.913  -1.396   0.000  0.00  0.00     0.025 A 
ATOM     25  C   UNL d   1       0.354  -0.745   0.000  0.00  0.00     0.000 C 
ENDBRANCH  17  18
ENDBRANCH   2  17
TORSDOF 5
