REMARK  3 active torsions:
REMARK  status: ('A' for Active; 'I' for Inactive)
REMARK    1  A    between atoms: C_10  and  C_1 
REMARK    2  A    between atoms: C_8  and  N_5 
REMARK    3  A    between atoms: N_9  and  C_10 
ROOT
ATOM      1  C   UNL d   1       5.393  -4.561   0.000  0.00  0.00     0.084 C 
ENDROOT
BRANCH   1   2
ATOM      2  N   UNL d   1       6.109  -4.149   0.000  0.00  0.00    -0.300 N 
ATOM      3  C   UNL d   1       6.821  -4.561   0.000  0.00  0.00     0.100 A 
ATOM      4  C   UNL d   1       7.541  -4.149   0.000  0.00  0.00     0.101 A 
ATOM      5  N   UNL d   1       7.541  -3.325   0.000  0.00  0.00    -0.286 N 
ATOM      6  C   UNL d   1       6.821  -2.901   0.000  0.00  0.00     0.101 A 
ATOM      7  C   UNL d   1       6.097  -3.325   0.000  0.00  0.00     0.100 A 
BRANCH   5   8
ATOM      8  C   UNL d   1       8.244  -2.901   0.000  0.00  0.00     0.148 A 
ATOM      9  N   UNL d   1       8.968  -3.325   0.000  0.00  0.00    -0.227 NA
ATOM     10  C   UNL d   1       9.688  -2.901   0.000  0.00  0.00     0.101 A 
ATOM     11  C   UNL d   1       9.676  -2.077   0.000  0.00  0.00     0.021 A 
ATOM     12  C   UNL d   1       8.956  -1.665   0.000  0.00  0.00     0.005 A 
ATOM     13  C   UNL d   1       8.244  -2.077   0.000  0.00  0.00     0.037 A 
ENDBRANCH   5   8
ENDBRANCH   1   2
BRANCH   1  14
ATOM     14  C   UNL d   1       4.673  -4.149   0.000  0.00  0.00     0.059 A 
ATOM     15  C   UNL d   1       3.949  -4.574   0.000  0.00  0.00     0.214 A 
ATOM     16  C   UNL d   1       3.246  -4.149   0.000  0.00  0.00     0.121 A 
ATOM     17  O   UNL d   1       3.949  -5.393   0.000  0.00  0.00    -0.285 OA
ATOM     18  N   UNL d   1       2.534  -4.561   0.000  0.00  0.00    -0.241 NA
ATOM     19  C   UNL d   1       3.246  -3.333   0.000  0.00  0.00     0.032 A 
ATOM     20  C   UNL d   1       1.802  -4.149   0.000  0.00  0.00     0.099 A 
ATOM     21  C   UNL d   1       1.802  -3.325   0.000  0.00  0.00     0.021 A 
ATOM     22  C   UNL d   1       2.526  -2.913   0.000  0.00  0.00     0.004 A 
ATOM     23  C   UNL d   1       3.949  -2.913   0.000  0.00  0.00     0.059 A 
ATOM     24  C   UNL d   1       4.682  -3.333   0.000  0.00  0.00     0.016 A 
ATOM     25 CL   UNL d   1       3.949  -2.085   0.000  0.00  0.00    -0.082 Cl
ENDBRANCH   1  14
TORSDOF 3
