REMARK  3 active torsions:
REMARK  status: ('A' for Active; 'I' for Inactive)
REMARK    1  A    between atoms: C_5  and  C_1 
REMARK    2  A    between atoms: N_8  and  C_5 
REMARK    3  A    between atoms: C_10  and  C_5 
ROOT
ATOM      1  C   UNL d   1       6.014  -3.548   0.000  0.00  0.00     0.085 C 
ENDROOT
BRANCH   1   2
ATOM      2  C   UNL d   1       5.297  -3.128   0.000  0.00  0.00     0.059 A 
ATOM      3  C   UNL d   1       4.585  -3.548   0.000  0.00  0.00     0.214 A 
ATOM      4  C   UNL d   1       3.877  -3.128   0.000  0.00  0.00     0.121 A 
ATOM      5  O   UNL d   1       4.585  -4.365   0.000  0.00  0.00    -0.285 OA
ATOM      6  N   UNL d   1       3.165  -3.548   0.000  0.00  0.00    -0.241 NA
ATOM      7  C   UNL d   1       3.877  -2.303   0.000  0.00  0.00     0.032 A 
ATOM      8  C   UNL d   1       2.453  -3.128   0.000  0.00  0.00     0.099 A 
ATOM      9  C   UNL d   1       2.441  -2.299   0.000  0.00  0.00     0.021 A 
ATOM     10  C   UNL d   1       3.165  -1.887   0.000  0.00  0.00     0.004 A 
ATOM     11  C   UNL d   1       4.585  -1.887   0.000  0.00  0.00     0.059 A 
ATOM     12  C   UNL d   1       5.302  -2.303   0.000  0.00  0.00     0.016 A 
ATOM     13 CL   UNL d   1       4.585  -1.066   0.000  0.00  0.00    -0.082 Cl
ENDBRANCH   1   2
BRANCH   1  14
ATOM     14  N   UNL d   1       6.014  -4.365   0.000  0.00  0.00    -0.302 N 
ATOM     15  C   UNL d   1       5.297  -4.785   0.000  0.00  0.00     0.080 A 
ATOM     16  C   UNL d   1       5.297  -5.614   0.000  0.00  0.00     0.019 A 
ATOM     17  C   UNL d   1       6.014  -6.014   0.000  0.00  0.00     0.003 A 
ATOM     18  C   UNL d   1       6.726  -5.601   0.000  0.00  0.00     0.019 A 
ATOM     19  C   UNL d   1       6.726  -4.785   0.000  0.00  0.00     0.080 A 
ENDBRANCH   1  14
BRANCH   1  20
ATOM     20  C   UNL d   1       6.726  -3.128   0.000  0.00  0.00     0.098 A 
ATOM     21  N   UNL d   1       7.446  -3.536   0.000  0.00  0.00    -0.243 NA
ATOM     22  C   UNL d   1       8.150  -3.128   0.000  0.00  0.00     0.099 A 
ATOM     23  C   UNL d   1       8.150  -2.299   0.000  0.00  0.00     0.021 A 
ATOM     24  C   UNL d   1       7.434  -1.887   0.000  0.00  0.00     0.003 A 
ATOM     25  C   UNL d   1       6.726  -2.303   0.000  0.00  0.00     0.021 A 
ENDBRANCH   1  20
TORSDOF 3
