REMARK  3 active torsions:
REMARK  status: ('A' for Active; 'I' for Inactive)
REMARK    1  A    between atoms: C_16  and  C_4 
REMARK    2  A    between atoms: C_10  and  O_14 
REMARK    3  A    between atoms: O_14  and  C_16 
ROOT
ATOM      1  C   UNL d   1       1.704  -6.902   0.000  0.00  0.00     0.030 A 
ATOM      2  C   UNL d   1       2.109  -6.200   0.000  0.00  0.00     0.105 A 
ATOM      3  C   UNL d   1       2.935  -6.213   0.000  0.00  0.00     0.118 A 
ATOM      4  N   UNL d   1       1.720  -5.478   0.000  0.00  0.00    -0.242 NA
ATOM      5  C   UNL d   1       2.092  -7.620   0.000  0.00  0.00     0.059 A 
ATOM      6  C   UNL d   1       3.344  -6.918   0.000  0.00  0.00     0.027 A 
ATOM      7  C   UNL d   1       2.923  -7.633   0.000  0.00  0.00     0.013 A 
ATOM      8 CL   UNL d   1       1.670  -8.334   0.000  0.00  0.00    -0.082 Cl
ATOM      9  C   UNL d   1       0.881  -6.894   0.000  0.00  0.00     0.004 A 
ATOM     10  C   UNL d   1       0.889  -5.465   0.000  0.00  0.00     0.099 A 
ATOM     11  C   UNL d   1       0.468  -6.179   0.000  0.00  0.00     0.021 A 
ENDROOT
BRANCH   3  12
ATOM     12  O   UNL d   1       3.357  -5.499   0.000  0.00  0.00    -0.302 OA
BRANCH  12  13
ATOM     13  C   UNL d   1       3.787  -4.789   0.000  0.00  0.00     0.144 C 
BRANCH  13  14
ATOM     14  C   UNL d   1       3.386  -4.063   0.000  0.00  0.00     0.142 A 
ATOM     15  N   UNL d   1       3.724  -3.336   0.000  0.00  0.00    -0.057 NA
ATOM     16  C   UNL d   1       3.136  -2.785   0.000  0.00  0.00     0.735 A 
ATOM     17  N   UNL d   1       2.409  -3.194   0.000  0.00  0.00    -0.136 N 
ATOM     18  N   UNL d   1       3.136  -1.958   0.000  0.00  0.00    -0.059 NA
ATOM     19  C   UNL d   1       2.572  -3.975   0.000  0.00  0.00     0.120 A 
ATOM     20  C   UNL d   1       1.704  -2.772   0.000  0.00  0.00     0.100 A 
ATOM     21  C   UNL d   1       1.708  -1.954   0.000  0.00  0.00     0.041 A 
ATOM     22  C   UNL d   1       2.434  -1.541   0.000  0.00  0.00     0.119 A 
ENDBRANCH  13  14
ENDBRANCH  12  13
ENDBRANCH   3  12
TORSDOF 3
