REMARK  4 active torsions:
REMARK  status: ('A' for Active; 'I' for Inactive)
REMARK    1  A    between atoms: N_2  and  S_1 
REMARK    2  A    between atoms: C_3  and  S_1 
REMARK    3  A    between atoms: C_4  and  N_2 
REMARK    4  A    between atoms: O_14  and  C_7 
ROOT
ATOM      1  S   UNL d   1      -0.909   0.046   0.000  0.00  0.00     0.285 S 
ATOM      2  O   UNL d   1      -0.194  -0.369   0.000  0.00  0.00    -0.198 OA
ATOM      3  O   UNL d   1      -1.640   0.468   0.000  0.00  0.00    -0.198 OA
ENDROOT
BRANCH   1   4
ATOM      4  N   UNL d   1      -1.324  -0.666   0.000  0.00  0.00    -0.156 NA
BRANCH   4   5
ATOM      5  C   UNL d   1      -2.146  -0.666   0.000  0.00  0.00     0.116 A 
ATOM      6  C   UNL d   1      -2.569  -1.374   0.000  0.00  0.00     0.112 A 
ATOM      7  C   UNL d   1      -3.391  -1.374   0.000  0.00  0.00     0.026 A 
ATOM      8  C   UNL d   1      -3.809  -0.666   0.000  0.00  0.00     0.002 A 
ATOM      9  C   UNL d   1      -3.391   0.046   0.000  0.00  0.00     0.002 A 
ATOM     10  C   UNL d   1      -2.569   0.046   0.000  0.00  0.00     0.022 A 
BRANCH   6  11
ATOM     11  O   UNL d   1      -2.131  -2.105   0.000  0.00  0.00    -0.327 OA
ATOM     12  C   UNL d   1      -1.309  -2.105   0.000  0.00  0.00     0.181 C 
ENDBRANCH   6  11
ENDBRANCH   4   5
ENDBRANCH   1   4
BRANCH   1  13
ATOM     13  C   UNL d   1      -0.487   0.776   0.000  0.00  0.00     0.105 A 
ATOM     14  C   UNL d   1      -0.909   1.492   0.000  0.00  0.00     0.014 A 
ATOM     15  C   UNL d   1      -0.487   2.204   0.000  0.00  0.00     0.012 A 
ATOM     16  C   UNL d   1       0.354   2.204   0.000  0.00  0.00     0.058 A 
ATOM     17  C   UNL d   1       0.757   1.492   0.000  0.00  0.00     0.012 A 
ATOM     18 CL   UNL d   1       0.780   2.839   0.000  0.00  0.00    -0.082 Cl
ATOM     19  C   UNL d   1       0.354   0.776   0.000  0.00  0.00     0.014 A 
ENDBRANCH   1  13
TORSDOF 4
