REMARK  5 active torsions:
REMARK  status: ('A' for Active; 'I' for Inactive)
REMARK    1  A    between atoms: C_13  and  C_4 
REMARK    2  A    between atoms: C_7  and  S_11 
REMARK    3  A    between atoms: O_14  and  C_7 
REMARK    4  A    between atoms: S_11  and  C_13 
REMARK    5  A    between atoms: C_16  and  O_14 
ROOT
ATOM      1  C   UNL d   1       7.105  -2.051   0.000  0.00  0.00     0.148 A 
ATOM      2  N   UNL d   1       6.389  -2.475   0.000  0.00  0.00    -0.288 N 
ATOM      3  N   UNL d   1       7.716  -2.625   0.000  0.00  0.00    -0.226 NA
ATOM      4  C   UNL d   1       7.388  -3.373   0.000  0.00  0.00     0.107 A 
ATOM      5  C   UNL d   1       6.556  -3.282   0.000  0.00  0.00     0.101 A 
ATOM      6  C   UNL d   1       7.105  -1.227   0.000  0.00  0.00     0.035 A 
ATOM      7  C   UNL d   1       5.670  -2.051   0.000  0.00  0.00     0.082 A 
ATOM      8  C   UNL d   1       5.678  -1.227   0.000  0.00  0.00     0.019 A 
ATOM      9  C   UNL d   1       6.389  -0.815   0.000  0.00  0.00     0.004 A 
ATOM     10  C   UNL d   1       7.824  -0.803   0.000  0.00  0.00     0.003 C 
ENDROOT
BRANCH   4  11
ATOM     11  C   UNL d   1       7.791  -4.093   0.000  0.00  0.00     0.059 C 
BRANCH  11  12
ATOM     12  S   UNL d   1       7.375  -4.796   0.000  0.00  0.00    -0.049 SA
BRANCH  12  13
ATOM     13  C   UNL d   1       7.787  -5.520   0.000  0.00  0.00     0.185 C 
ATOM     14  S   UNL d   1       8.602  -5.520   0.000  0.00  0.00    -0.044 SA
BRANCH  13  15
ATOM     15  O   UNL d   1       7.367  -6.227   0.000  0.00  0.00    -0.288 OA
BRANCH  15  16
ATOM     16  C   UNL d   1       6.955  -6.938   0.000  0.00  0.00     0.124 C 
ATOM     17  C   UNL d   1       6.127  -6.938   0.000  0.00  0.00     0.029 C 
ENDBRANCH  15  16
ENDBRANCH  13  15
ENDBRANCH  12  13
ENDBRANCH  11  12
ENDBRANCH   4  11
TORSDOF 5
