REMARK  3 active torsions:
REMARK  status: ('A' for Active; 'I' for Inactive)
REMARK    1  A    between atoms: C_5  and  C_1 
REMARK    2  A    between atoms: N_8  and  C_5 
REMARK    3  A    between atoms: C_10  and  C_5 
ROOT
ATOM      1  C   UNL d   1       6.104  -3.617   0.000  0.00  0.00     0.067 C 
ENDROOT
BRANCH   1   2
ATOM      2  C   UNL d   1       5.388  -3.200   0.000  0.00  0.00     0.057 A 
ATOM      3  C   UNL d   1       4.679  -3.617   0.000  0.00  0.00     0.214 A 
ATOM      4  C   UNL d   1       3.967  -3.200   0.000  0.00  0.00     0.121 A 
ATOM      5  O   UNL d   1       4.667  -4.438   0.000  0.00  0.00    -0.285 OA
ATOM      6  N   UNL d   1       3.254  -3.617   0.000  0.00  0.00    -0.241 NA
ATOM      7  C   UNL d   1       3.967  -2.367   0.000  0.00  0.00     0.032 A 
ATOM      8  C   UNL d   1       2.550  -3.200   0.000  0.00  0.00     0.099 A 
ATOM      9  C   UNL d   1       2.550  -2.367   0.000  0.00  0.00     0.021 A 
ATOM     10  C   UNL d   1       3.254  -1.967   0.000  0.00  0.00     0.004 A 
ATOM     11  C   UNL d   1       4.679  -1.954   0.000  0.00  0.00     0.059 A 
ATOM     12  C   UNL d   1       5.388  -2.367   0.000  0.00  0.00     0.016 A 
ATOM     13 CL   UNL d   1       4.667  -1.137   0.000  0.00  0.00    -0.082 Cl
ENDBRANCH   1   2
BRANCH   1  14
ATOM     14  N   UNL d   1       6.104  -4.438   0.000  0.00  0.00    -0.304 N 
ATOM     15  C   UNL d   1       6.817  -4.850   0.000  0.00  0.00     0.080 A 
ATOM     16  C   UNL d   1       6.829  -5.667   0.000  0.00  0.00     0.021 A 
ATOM     17  C   UNL d   1       5.388  -5.679   0.000  0.00  0.00     0.021 A 
ATOM     18  C   UNL d   1       5.388  -4.854   0.000  0.00  0.00     0.080 A 
ENDBRANCH   1  14
BRANCH   1  19
ATOM     19  C   UNL d   1       6.829  -3.200   0.000  0.00  0.00     0.016 A 
ATOM     20  C   UNL d   1       7.537  -3.604   0.000  0.00  0.00     0.002 A 
ATOM     21  C   UNL d   1       8.250  -3.200   0.000  0.00  0.00     0.011 A 
ATOM     22  C   UNL d   1       8.250  -2.367   0.000  0.00  0.00     0.058 A 
ATOM     23  C   UNL d   1       7.529  -1.954   0.000  0.00  0.00     0.011 A 
ATOM     24 CL   UNL d   1       8.954  -1.954   0.000  0.00  0.00    -0.082 Cl
ATOM     25  C   UNL d   1       6.817  -2.379   0.000  0.00  0.00     0.002 A 
ENDBRANCH   1  19
TORSDOF 3
