REMARK  3 active torsions:
REMARK  status: ('A' for Active; 'I' for Inactive)
REMARK    1  A    between atoms: C_9  and  C_1 
REMARK    2  A    between atoms: C_11  and  N_5 
REMARK    3  A    between atoms: N_8  and  C_9 
ROOT
ATOM      1  N   UNL d   1       6.400  -3.150   0.000  0.00  0.00    -0.301 N 
ATOM      2  N   UNL d   1       4.967  -3.979   0.000  0.00  0.00    -0.300 N 
ATOM      3  C   UNL d   1       5.679  -2.737   0.000  0.00  0.00     0.100 A 
ATOM      4  C   UNL d   1       6.400  -3.979   0.000  0.00  0.00     0.100 A 
ATOM      5  C   UNL d   1       4.954  -3.154   0.000  0.00  0.00     0.100 A 
ATOM      6  C   UNL d   1       5.688  -4.379   0.000  0.00  0.00     0.100 A 
ENDROOT
BRANCH   2   7
ATOM      7  C   UNL d   1       4.254  -4.400   0.000  0.00  0.00     0.084 C 
BRANCH   7   8
ATOM      8  C   UNL d   1       3.550  -3.979   0.000  0.00  0.00     0.059 A 
ATOM      9  C   UNL d   1       2.837  -4.400   0.000  0.00  0.00     0.214 A 
ATOM     10  C   UNL d   1       2.117  -3.979   0.000  0.00  0.00     0.121 A 
ATOM     11  O   UNL d   1       2.829  -5.217   0.000  0.00  0.00    -0.285 OA
ATOM     12  N   UNL d   1       1.404  -4.400   0.000  0.00  0.00    -0.241 NA
ATOM     13  C   UNL d   1       2.117  -3.154   0.000  0.00  0.00     0.032 A 
ATOM     14  C   UNL d   1       0.688  -3.979   0.000  0.00  0.00     0.099 A 
ATOM     15  C   UNL d   1       0.688  -3.154   0.000  0.00  0.00     0.021 A 
ATOM     16  C   UNL d   1       1.404  -2.750   0.000  0.00  0.00     0.004 A 
ATOM     17  C   UNL d   1       2.829  -2.750   0.000  0.00  0.00     0.059 A 
ATOM     18  C   UNL d   1       3.550  -3.154   0.000  0.00  0.00     0.016 A 
ATOM     19 CL   UNL d   1       2.829  -1.917   0.000  0.00  0.00    -0.082 Cl
ENDBRANCH   7   8
ENDBRANCH   2   7
BRANCH   1  20
ATOM     20  C   UNL d   1       7.104  -2.737   0.000  0.00  0.00     0.064 A 
ATOM     21  C   UNL d   1       7.817  -3.150   0.000  0.00  0.00     0.020 A 
ATOM     22  C   UNL d   1       8.537  -2.737   0.000  0.00  0.00     0.031 A 
ATOM     23  C   UNL d   1       8.537  -1.904   0.000  0.00  0.00     0.140 A 
ATOM     24  C   UNL d   1       7.817  -1.500   0.000  0.00  0.00     0.031 A 
ATOM     25  F   UNL d   1       9.250  -1.500   0.000  0.00  0.00    -0.204 F 
ATOM     26  C   UNL d   1       7.104  -1.917   0.000  0.00  0.00     0.020 A 
ENDBRANCH   1  20
TORSDOF 3
