REMARK  3 active torsions:
REMARK  status: ('A' for Active; 'I' for Inactive)
REMARK    1  A    between atoms: S_3  and  C_1 
REMARK    2  A    between atoms: C_7  and  N_2 
REMARK    3  A    between atoms: C_11  and  C_7 
ROOT
ATOM      1  C   UNL d   1       2.691   3.465   0.000  0.00  0.00     0.255 A 
ATOM      2  N   UNL d   1       2.227   2.802   0.000  0.00  0.00    -0.278 N 
ATOM      3  N   UNL d   1       2.227   4.125   0.000  0.00  0.00    -0.215 NA
ATOM      4  C   UNL d   1       1.429   3.052   0.000  0.00  0.00     0.084 A 
ATOM      5  C   UNL d   1       1.429   3.877   0.000  0.00  0.00     0.100 A 
ATOM      6  C   UNL d   1       0.715   2.639   0.000  0.00  0.00     0.019 A 
ATOM      7  C   UNL d   1       0.715   4.290   0.000  0.00  0.00     0.021 A 
ATOM      8  C   UNL d   1       0.000   3.052   0.000  0.00  0.00     0.002 A 
ATOM      9  C   UNL d   1       0.000   3.877   0.000  0.00  0.00     0.002 A 
ENDROOT
BRANCH   2  10
ATOM     10  C   UNL d   1       2.475   2.009   0.000  0.00  0.00     0.082 C 
BRANCH  10  11
ATOM     11  C   UNL d   1       1.925   1.404   0.000  0.00  0.00     0.018 A 
ATOM     12  C   UNL d   1       2.168   0.609   0.000  0.00  0.00     0.002 A 
ATOM     13  C   UNL d   1       1.621   0.000   0.000  0.00  0.00     0.000 A 
ATOM     14  C   UNL d   1       0.825   0.167   0.000  0.00  0.00     0.000 A 
ATOM     15  C   UNL d   1       0.577   0.963   0.000  0.00  0.00     0.000 A 
ATOM     16  C   UNL d   1       1.127   1.569   0.000  0.00  0.00     0.002 A 
ENDBRANCH  10  11
ENDBRANCH   2  10
BRANCH   1  17
ATOM     17  S   UNL d   1       3.516   3.465   0.000  0.00  0.00     0.174 S 
ATOM     18  O   UNL d   1       3.516   4.290   0.000  0.00  0.00    -0.589 OA
ATOM     19  O   UNL d   1       4.341   3.465   0.000  0.00  0.00    -0.589 OA
ATOM     20  O   UNL d   1       3.516   2.639   0.000  0.00  0.00    -0.589 OA
ENDBRANCH   1  17
TORSDOF 3
