REMARK  3 active torsions:
REMARK  status: ('A' for Active; 'I' for Inactive)
REMARK    1  A    between atoms: S_3  and  C_1 
REMARK    2  A    between atoms: C_7  and  N_2 
REMARK    3  A    between atoms: C_13  and  C_7 
ROOT
ATOM      1  C   UNL d   1       2.698   2.838   0.000  0.00  0.00     0.255 A 
ATOM      2  N   UNL d   1       2.232   2.154   0.000  0.00  0.00    -0.278 N 
ATOM      3  N   UNL d   1       2.232   3.495   0.000  0.00  0.00    -0.215 NA
ATOM      4  C   UNL d   1       1.433   2.395   0.000  0.00  0.00     0.084 A 
ATOM      5  C   UNL d   1       1.433   3.222   0.000  0.00  0.00     0.100 A 
ATOM      6  C   UNL d   1       0.716   1.986   0.000  0.00  0.00     0.019 A 
ATOM      7  C   UNL d   1       0.716   3.635   0.000  0.00  0.00     0.021 A 
ATOM      8  C   UNL d   1       0.000   2.395   0.000  0.00  0.00     0.002 A 
ATOM      9  C   UNL d   1       0.000   3.222   0.000  0.00  0.00     0.002 A 
ENDROOT
BRANCH   1  10
ATOM     10  S   UNL d   1       3.525   2.838   0.000  0.00  0.00     0.174 S 
ATOM     11  O   UNL d   1       3.525   3.665   0.000  0.00  0.00    -0.589 OA
ATOM     12  O   UNL d   1       4.351   2.838   0.000  0.00  0.00    -0.589 OA
ATOM     13  O   UNL d   1       3.525   2.013   0.000  0.00  0.00    -0.589 OA
ENDBRANCH   1  10
BRANCH   2  14
ATOM     14  C   UNL d   1       2.481   1.378   0.000  0.00  0.00     0.082 C 
BRANCH  14  15
ATOM     15  C   UNL d   1       1.900   0.802   0.000  0.00  0.00     0.018 C 
ATOM     16  C   UNL d   1       2.092   0.000   0.000  0.00  0.00     0.002 C 
ATOM     17  C   UNL d   1       1.103   0.994   0.000  0.00  0.00     0.002 C 
ENDBRANCH  14  15
ENDBRANCH   2  14
TORSDOF 3
