REMARK  4 active torsions:
REMARK  status: ('A' for Active; 'I' for Inactive)
REMARK    1  A    between atoms: C_2  and  C_1 
REMARK    2  A    between atoms: C_4  and  C_2 
REMARK    3  A    between atoms: N_6  and  C_2 
REMARK    4  A    between atoms: C_8  and  N_6 
ROOT
ATOM      1  C   UNL d   1       5.843  -2.982   0.000  0.00  0.00     0.088 C 
ENDROOT
BRANCH   1   2
ATOM      2  C   UNL d   1       5.122  -2.563   0.000  0.00  0.00     0.058 A 
ATOM      3  C   UNL d   1       4.398  -2.982   0.000  0.00  0.00     0.214 A 
ATOM      4  C   UNL d   1       3.686  -2.563   0.000  0.00  0.00     0.120 A 
ATOM      5  O   UNL d   1       4.398  -3.815   0.000  0.00  0.00    -0.285 OA
ATOM      6  N   UNL d   1       2.982  -2.982   0.000  0.00  0.00    -0.241 NA
ATOM      7  C   UNL d   1       3.686  -1.738   0.000  0.00  0.00     0.021 A 
ATOM      8  C   UNL d   1       2.257  -2.563   0.000  0.00  0.00     0.099 A 
ATOM      9  C   UNL d   1       2.257  -1.738   0.000  0.00  0.00     0.021 A 
ATOM     10  C   UNL d   1       2.982  -1.320   0.000  0.00  0.00     0.003 A 
ATOM     11  C   UNL d   1       4.398  -1.320   0.000  0.00  0.00     0.002 A 
ATOM     12  C   UNL d   1       5.122  -1.738   0.000  0.00  0.00     0.005 A 
ENDBRANCH   1   2
BRANCH   1  13
ATOM     13  C   UNL d   1       6.567  -2.563   0.000  0.00  0.00     0.045 A 
ATOM     14  C   UNL d   1       6.555  -1.738   0.000  0.00  0.00     0.141 A 
ATOM     15  F   UNL d   1       5.987  -1.163   0.000  0.00  0.00    -0.204 F 
ATOM     16  C   UNL d   1       7.271  -1.320   0.000  0.00  0.00     0.030 A 
ATOM     17  C   UNL d   1       7.983  -1.738   0.000  0.00  0.00     0.002 A 
ATOM     18  C   UNL d   1       7.995  -2.563   0.000  0.00  0.00     0.000 A 
ATOM     19  C   UNL d   1       7.271  -2.982   0.000  0.00  0.00     0.004 A 
ENDBRANCH   1  13
BRANCH   1  20
ATOM     20  N   UNL d   1       5.843  -3.815   0.000  0.00  0.00    -0.227 NA
BRANCH  20  21
ATOM     21  C   UNL d   1       6.229  -4.398   0.000  0.00  0.00     0.162 A 
ATOM     22  N   UNL d   1       5.907  -5.026   0.000  0.00  0.00    -0.225 NA
ATOM     23  C   UNL d   1       6.293  -5.617   0.000  0.00  0.00     0.101 A 
ATOM     24  C   UNL d   1       6.989  -5.581   0.000  0.00  0.00     0.021 A 
ATOM     25  C   UNL d   1       7.307  -4.953   0.000  0.00  0.00     0.005 A 
ATOM     26  C   UNL d   1       6.921  -4.362   0.000  0.00  0.00     0.039 A 
ENDBRANCH  20  21
ENDBRANCH   1  20
TORSDOF 4
