REMARK  5 active torsions:
REMARK  status: ('A' for Active; 'I' for Inactive)
REMARK    1  A    between atoms: N_2  and  S_1 
REMARK    2  A    between atoms: C_7  and  S_1 
REMARK    3  A    between atoms: C_3  and  N_2 
REMARK    4  A    between atoms: N_6  and  C_8 
REMARK    5  A    between atoms: C_9  and  N_6 
ROOT
ATOM      1  C   UNL d   1      -2.143  -0.665   0.000  0.00  0.00     0.111 A 
ATOM      2  C   UNL d   1      -2.565  -1.372   0.000  0.00  0.00     0.100 A 
ATOM      3  C   UNL d   1      -2.565   0.046   0.000  0.00  0.00     0.021 A 
ATOM      4  C   UNL d   1      -3.386  -1.372   0.000  0.00  0.00     0.021 A 
ATOM      5  C   UNL d   1      -3.386   0.046   0.000  0.00  0.00     0.002 A 
ATOM      6  C   UNL d   1      -3.804  -0.665   0.000  0.00  0.00     0.002 A 
ENDROOT
BRANCH   1   7
ATOM      7  N   UNL d   1      -1.323  -0.665   0.000  0.00  0.00    -0.157 NA
BRANCH   7   8
ATOM      8  S   UNL d   1      -0.908   0.046   0.000  0.00  0.00     0.285 S 
ATOM      9  O   UNL d   1      -0.194  -0.369   0.000  0.00  0.00    -0.198 OA
ATOM     10  O   UNL d   1      -1.638   0.467   0.000  0.00  0.00    -0.198 OA
BRANCH   8  11
ATOM     11  C   UNL d   1      -0.486   0.775   0.000  0.00  0.00     0.105 A 
ATOM     12  C   UNL d   1       0.353   0.775   0.000  0.00  0.00     0.013 A 
ATOM     13  C   UNL d   1       0.756   1.490   0.000  0.00  0.00     0.001 A 
ATOM     14  C   UNL d   1       0.353   2.200   0.000  0.00  0.00     0.000 A 
ATOM     15  C   UNL d   1      -0.486   2.200   0.000  0.00  0.00     0.001 A 
ATOM     16  C   UNL d   1      -0.908   1.490   0.000  0.00  0.00     0.013 A 
ENDBRANCH   8  11
ENDBRANCH   7   8
ENDBRANCH   1   7
BRANCH   2  17
ATOM     17  N   UNL d   1      -2.128  -2.102   0.000  0.00  0.00    -0.244 NA
BRANCH  17  18
ATOM     18  C   UNL d   1      -1.307  -2.102   0.000  0.00  0.00     0.081 A 
ATOM     19  C   UNL d   1      -0.912  -1.395   0.000  0.00  0.00     0.019 A 
ATOM     20  C   UNL d   1      -0.087  -1.372   0.000  0.00  0.00     0.002 A 
ATOM     21  C   UNL d   1       0.346  -2.079   0.000  0.00  0.00     0.000 A 
ATOM     22  C   UNL d   1      -0.057  -2.797   0.000  0.00  0.00     0.002 A 
ATOM     23  C   UNL d   1      -0.885  -2.816   0.000  0.00  0.00     0.019 A 
ENDBRANCH  17  18
ENDBRANCH   2  17
TORSDOF 5
