REMARK  6 active torsions:
REMARK  status: ('A' for Active; 'I' for Inactive)
REMARK    1  A    between atoms: N_2  and  S_1 
REMARK    2  A    between atoms: C_4  and  S_1 
REMARK    3  A    between atoms: C_5  and  N_3 
REMARK    4  A    between atoms: C_10  and  C_4 
REMARK    5  A    between atoms: C_14  and  C_10 
REMARK    6  A    between atoms: O_15  and  C_13 
ROOT
ATOM      1  N   UNL d   1       0.503   0.019   0.000  0.00  0.00    -0.226 N 
ATOM      2  N   UNL d   1       2.160  -0.004   0.000  0.00  0.00    -0.300 N 
ATOM      3  C   UNL d   1       0.912  -0.708   0.000  0.00  0.00     0.111 A 
ATOM      4  C   UNL d   1       0.923   0.711   0.000  0.00  0.00     0.111 A 
ATOM      5  C   UNL d   1       1.740   0.711   0.000  0.00  0.00     0.100 A 
ATOM      6  C   UNL d   1       1.729  -0.708   0.000  0.00  0.00     0.100 A 
ENDROOT
BRANCH   1   7
ATOM      7  S   UNL d   1      -0.329   0.030   0.000  0.00  0.00     0.272 S 
ATOM      8  O   UNL d   1      -0.337  -0.817   0.000  0.00  0.00    -0.200 OA
ATOM      9  O   UNL d   1      -0.318   0.847   0.000  0.00  0.00    -0.200 OA
BRANCH   7  10
ATOM     10  C   UNL d   1      -1.146   0.030   0.000  0.00  0.00     0.116 C 
BRANCH  10  11
ATOM     11  C   UNL d   1      -1.562   0.757   0.000  0.00  0.00     0.014 C 
BRANCH  11  12
ATOM     12  C   UNL d   1      -2.417   0.772   0.000  0.00  0.00     0.001 A 
ATOM     13  C   UNL d   1      -2.826   1.510   0.000  0.00  0.00     0.000 A 
ATOM     14  C   UNL d   1      -3.651   1.510   0.000  0.00  0.00     0.000 A 
ATOM     15  C   UNL d   1      -4.071   0.813   0.000  0.00  0.00     0.000 A 
ATOM     16  C   UNL d   1      -3.651   0.087   0.000  0.00  0.00     0.000 A 
ATOM     17  C   UNL d   1      -2.826   0.064   0.000  0.00  0.00     0.000 A 
ENDBRANCH  11  12
ENDBRANCH  10  11
ENDBRANCH   7  10
ENDBRANCH   1   7
BRANCH   2  18
ATOM     18  C   UNL d   1       2.977  -0.026   0.000  0.00  0.00     0.086 A 
ATOM     19  C   UNL d   1       3.375  -0.772   0.000  0.00  0.00     0.110 A 
ATOM     20  C   UNL d   1       4.203  -0.798   0.000  0.00  0.00     0.026 A 
ATOM     21  C   UNL d   1       4.657  -0.079   0.000  0.00  0.00     0.002 A 
ATOM     22  C   UNL d   1       4.248   0.636   0.000  0.00  0.00     0.002 A 
ATOM     23  C   UNL d   1       3.409   0.654   0.000  0.00  0.00     0.019 A 
BRANCH  19  24
ATOM     24  O   UNL d   1       2.939  -1.468   0.000  0.00  0.00    -0.327 OA
ATOM     25  C   UNL d   1       2.115  -1.453   0.000  0.00  0.00     0.181 C 
ENDBRANCH  19  24
ENDBRANCH   2  18
TORSDOF 6
