REMARK  5 active torsions:
REMARK  status: ('A' for Active; 'I' for Inactive)
REMARK    1  A    between atoms: S_2  and  N_1 
REMARK    2  A    between atoms: C_10  and  S_2 
REMARK    3  A    between atoms: N_7  and  C_3 
REMARK    4  A    between atoms: C_12  and  C_6 
REMARK    5  A    between atoms: C_13  and  N_7 
ROOT
ATOM      1  N   UNL d   1      -1.652   0.635   0.000  0.00  0.00    -0.176 N 
ATOM      2  C   UNL d   1      -1.924  -0.140   0.000  0.00  0.00     0.191 A 
ATOM      3  C   UNL d   1      -0.836   0.635   0.000  0.00  0.00     0.281 A 
ATOM      4  S   UNL d   1      -1.255  -0.624   0.000  0.00  0.00    -0.044 SA
ATOM      5  C   UNL d   1      -0.586  -0.117   0.000  0.00  0.00     0.089 A 
ATOM      6  O   UNL d   1      -0.314   1.300   0.000  0.00  0.00    -0.265 OA
ENDROOT
BRANCH   1   7
ATOM      7  S   UNL d   1      -2.117   1.312   0.000  0.00  0.00     0.275 S 
ATOM      8  O   UNL d   1      -1.452   1.815   0.000  0.00  0.00    -0.199 OA
ATOM      9  O   UNL d   1      -2.809   0.847   0.000  0.00  0.00    -0.199 OA
BRANCH   7  10
ATOM     10  C   UNL d   1      -2.586   1.981   0.000  0.00  0.00     0.104 A 
ATOM     11  C   UNL d   1      -3.414   1.905   0.000  0.00  0.00     0.013 A 
ATOM     12  C   UNL d   1      -3.913   2.571   0.000  0.00  0.00     0.001 A 
ATOM     13  C   UNL d   1      -3.569   3.353   0.000  0.00  0.00     0.000 A 
ATOM     14  C   UNL d   1      -2.764   3.388   0.000  0.00  0.00     0.001 A 
ATOM     15  C   UNL d   1      -2.280   2.741   0.000  0.00  0.00     0.013 A 
ENDBRANCH   7  10
ENDBRANCH   1   7
BRANCH   2  16
ATOM     16  N   UNL d   1      -2.718  -0.299   0.000  0.00  0.00    -0.222 NA
BRANCH  16  17
ATOM     17  C   UNL d   1      -2.979  -1.089   0.000  0.00  0.00     0.084 A 
ATOM     18  C   UNL d   1      -3.784  -1.251   0.000  0.00  0.00     0.019 A 
ATOM     19  C   UNL d   1      -4.057  -2.030   0.000  0.00  0.00     0.002 A 
ATOM     20  C   UNL d   1      -3.493  -2.658   0.000  0.00  0.00     0.000 A 
ATOM     21  C   UNL d   1      -2.688  -2.495   0.000  0.00  0.00     0.002 A 
ATOM     22  C   UNL d   1      -2.435  -1.705   0.000  0.00  0.00     0.019 A 
ENDBRANCH  16  17
ENDBRANCH   2  16
BRANCH   5  23
ATOM     23  C   UNL d   1       0.208  -0.321   0.000  0.00  0.00     0.011 A 
ATOM     24  C   UNL d   1       0.775   0.257   0.000  0.00  0.00     0.001 A 
ATOM     25  C   UNL d   1       1.577   0.057   0.000  0.00  0.00     0.000 A 
ATOM     26  C   UNL d   1       1.815  -0.726   0.000  0.00  0.00     0.000 A 
ATOM     27  C   UNL d   1       1.229  -1.319   0.000  0.00  0.00     0.000 A 
ATOM     28  C   UNL d   1       0.423  -1.123   0.000  0.00  0.00     0.001 A 
ENDBRANCH   5  23
TORSDOF 5
