REMARK  2 active torsions:
REMARK  status: ('A' for Active; 'I' for Inactive)
REMARK    1  A    between atoms: C_4  and  C_1 
REMARK       I    between atoms: N_8  and  C_4 
REMARK    2  A    between atoms: O_12  and  C_11 
ROOT
ATOM      1  C   UNL d   1       0.423   0.323   0.000  0.00  0.00     0.120 A 
ATOM      2  C   UNL d   1       0.427  -0.502   0.000  0.00  0.00     0.305 A 
ATOM      3  O   UNL d   1      -0.294  -0.920   0.000  0.00  0.00    -0.271 OA
ATOM      4  C   UNL d   1      -0.298   0.742   0.000  0.00  0.00     0.012 A 
ATOM      5  C   UNL d   1      -1.003  -0.514   0.000  0.00  0.00     0.125 A 
ATOM      6  C   UNL d   1      -1.007   0.319   0.000  0.00  0.00     0.025 A 
ATOM      7  O   UNL d   1       1.136  -0.912   0.000  0.00  0.00    -0.259 OA
ATOM      8  C   UNL d   1      -1.724  -0.920   0.000  0.00  0.00     0.117 A 
ATOM      9  C   UNL d   1      -1.724   0.730   0.000  0.00  0.00     0.002 A 
ATOM     10  C   UNL d   1      -2.433   0.311   0.000  0.00  0.00     0.002 A 
ATOM     11  C   UNL d   1      -2.433  -0.510   0.000  0.00  0.00     0.026 A 
ENDROOT
BRANCH   1  12
ATOM     12  C   UNL d   1       1.132   0.734   0.000  0.00  0.00     0.270 C 
ATOM     13  N   UNL d   1       1.845   0.332   0.000  0.00  0.00    -0.269 N 
ATOM     14  C   UNL d   1       1.845  -0.489   0.000  0.00  0.00     0.102 C 
ATOM     15  C   UNL d   1       2.554   0.742   0.000  0.00  0.00     0.102 C 
ATOM     16  O   UNL d   1       1.132   1.555   0.000  0.00  0.00    -0.266 OA
ENDBRANCH   1  12
BRANCH   8  17
ATOM     17  O   UNL d   1      -1.724  -1.741   0.000  0.00  0.00    -0.326 OA
ATOM     18  C   UNL d   1      -2.433  -2.151   0.000  0.00  0.00     0.181 C 
ENDBRANCH   8  17
TORSDOF 2
