REMARK  5 active torsions:
REMARK  status: ('A' for Active; 'I' for Inactive)
REMARK    1  A    between atoms: N_2  and  S_1 
REMARK    2  A    between atoms: C_7  and  S_1 
REMARK    3  A    between atoms: C_3  and  N_2 
REMARK    4  A    between atoms: C_14  and  C_4 
REMARK    5  A    between atoms: O_19  and  C_16 
ROOT
ATOM      1  N   UNL d   1       4.301  -1.654   0.000  0.00  0.00    -0.158 NA
ENDROOT
BRANCH   1   2
ATOM      2  S   UNL d   1       3.537  -1.105   0.000  0.00  0.00     0.285 S 
ATOM      3  O   UNL d   1       3.889  -0.242   0.000  0.00  0.00    -0.198 OA
ATOM      4  O   UNL d   1       3.196  -1.987   0.000  0.00  0.00    -0.198 OA
BRANCH   2   5
ATOM      5  C   UNL d   1       2.811  -1.007   0.000  0.00  0.00     0.105 A 
ATOM      6  C   UNL d   1       2.536  -0.320   0.000  0.00  0.00     0.015 A 
ATOM      7  C   UNL d   1       1.804  -0.222   0.000  0.00  0.00     0.025 A 
ATOM      8  C   UNL d   1       1.340  -0.804   0.000  0.00  0.00     0.094 A 
ATOM      9  C   UNL d   1       1.615  -1.490   0.000  0.00  0.00     0.025 A 
ATOM     10  C   UNL d   1       2.360  -1.595   0.000  0.00  0.00     0.015 A 
BRANCH   8  11
ATOM     11  O   UNL d   1       0.615  -0.693   0.000  0.00  0.00    -0.328 OA
ATOM     12  C   UNL d   1       0.281  -0.046   0.000  0.00  0.00     0.181 C 
ENDBRANCH   8  11
ENDBRANCH   2   5
ENDBRANCH   1   2
BRANCH   1  13
ATOM     13  C   UNL d   1       5.138  -1.647   0.000  0.00  0.00     0.094 A 
ATOM     14  C   UNL d   1       5.537  -0.928   0.000  0.00  0.00     0.023 A 
ATOM     15  C   UNL d   1       6.373  -0.922   0.000  0.00  0.00     0.041 A 
ATOM     16  C   UNL d   1       6.792  -1.634   0.000  0.00  0.00     0.196 A 
ATOM     17  C   UNL d   1       6.380  -2.353   0.000  0.00  0.00     0.044 A 
ATOM     18  O   UNL d   1       7.615  -1.628   0.000  0.00  0.00    -0.287 OA
ATOM     19  C   UNL d   1       5.556  -2.360   0.000  0.00  0.00     0.022 A 
ATOM     20  C   UNL d   1       5.145  -3.079   0.000  0.00  0.00     0.002 C 
BRANCH  15  21
ATOM     21  C   UNL d   1       6.785  -0.203   0.000  0.00  0.00     0.003 C 
ATOM     22  C   UNL d   1       7.615  -0.196   0.000  0.00  0.00     0.000 C 
ATOM     23  C   UNL d   1       6.360   0.523   0.000  0.00  0.00     0.000 C 
ENDBRANCH  15  21
ENDBRANCH   1  13
TORSDOF 5
