REMARK  5 active torsions:
REMARK  status: ('A' for Active; 'I' for Inactive)
REMARK    1  A    between atoms: O_2  and  S_1 
REMARK    2  A    between atoms: C_3  and  S_1 
REMARK    3  A    between atoms: C_6  and  O_2 
REMARK    4  A    between atoms: O_17  and  C_14 
REMARK    5  A    between atoms: C_20  and  O_17 
ROOT
ATOM      1  S   UNL d   1       3.631  -1.412   0.000  0.00  0.00     0.304 S 
ATOM      2  O   UNL d   1       3.631  -2.235   0.000  0.00  0.00    -0.193 OA
ATOM      3  O   UNL d   1       3.631  -0.590   0.000  0.00  0.00    -0.193 OA
ENDROOT
BRANCH   1   4
ATOM      4  O   UNL d   1       4.453  -1.412   0.000  0.00  0.00    -0.227 OA
BRANCH   4   5
ATOM      5  C   UNL d   1       4.865  -0.698   0.000  0.00  0.00     0.114 A 
ATOM      6  C   UNL d   1       4.453   0.021   0.000  0.00  0.00     0.026 A 
ATOM      7  C   UNL d   1       4.865   0.731   0.000  0.00  0.00     0.002 A 
ATOM      8  C   UNL d   1       4.453   1.446   0.000  0.00  0.00     0.000 A 
ATOM      9  C   UNL d   1       5.695   0.731   0.000  0.00  0.00     0.000 A 
ATOM     10  C   UNL d   1       4.865   2.164   0.000  0.00  0.00     0.000 A 
ATOM     11  C   UNL d   1       5.695   2.164   0.000  0.00  0.00     0.000 A 
ATOM     12  C   UNL d   1       6.107   1.446   0.000  0.00  0.00     0.000 A 
ATOM     13  C   UNL d   1       6.107   0.021   0.000  0.00  0.00     0.002 A 
ATOM     14  C   UNL d   1       5.695  -0.698   0.000  0.00  0.00     0.026 A 
ENDBRANCH   4   5
ENDBRANCH   1   4
BRANCH   1  15
ATOM     15  C   UNL d   1       2.808  -1.412   0.000  0.00  0.00     0.111 A 
ATOM     16  C   UNL d   1       2.393  -0.698   0.000  0.00  0.00     0.015 A 
ATOM     17  C   UNL d   1       1.570  -0.698   0.000  0.00  0.00     0.025 A 
ATOM     18  C   UNL d   1       1.151  -1.412   0.000  0.00  0.00     0.100 A 
ATOM     19  C   UNL d   1       1.570  -2.123   0.000  0.00  0.00     0.025 A 
ATOM     20  C   UNL d   1       2.393  -2.123   0.000  0.00  0.00     0.015 A 
BRANCH  18  21
ATOM     21  O   UNL d   1       0.328  -1.412   0.000  0.00  0.00    -0.305 OA
BRANCH  21  22
ATOM     22  C   UNL d   1      -0.083  -2.123   0.000  0.00  0.00     0.123 C 
ATOM     23  C   UNL d   1      -0.906  -2.123   0.000  0.00  0.00     0.029 C 
ENDBRANCH  21  22
ENDBRANCH  18  21
ENDBRANCH   1  15
TORSDOF 5
