REMARK  4 active torsions:
REMARK  status: ('A' for Active; 'I' for Inactive)
REMARK    1  A    between atoms: C_2  and  C_1 
REMARK    2  A    between atoms: N_12  and  C_6 
REMARK    3  A    between atoms: C_16  and  N_12 
REMARK    4  A    between atoms: O_25  and  C_17 
ROOT
ATOM      1  C   UNL d   1       1.264  -1.235   0.000  0.00  0.00     0.082 A 
ATOM      2  C   UNL d   1       1.264  -2.062   0.000  0.00  0.00     0.302 A 
ATOM      3  C   UNL d   1       0.540  -0.815   0.000  0.00  0.00     0.009 A 
ATOM      4  O   UNL d   1       0.549  -2.482   0.000  0.00  0.00    -0.273 OA
ATOM      5  C   UNL d   1      -0.170  -1.239   0.000  0.00  0.00     0.025 A 
ATOM      6  C   UNL d   1      -0.170  -2.074   0.000  0.00  0.00     0.103 A 
ATOM      7  O   UNL d   1       1.983  -2.473   0.000  0.00  0.00    -0.259 OA
ATOM      8  C   UNL d   1      -0.885  -0.827   0.000  0.00  0.00     0.026 A 
ATOM      9  C   UNL d   1      -0.885  -2.482   0.000  0.00  0.00     0.027 A 
ATOM     10  C   UNL d   1      -1.596  -1.247   0.000  0.00  0.00     0.094 A 
ATOM     11  C   UNL d   1      -1.596  -2.070   0.000  0.00  0.00     0.026 A 
ENDROOT
BRANCH   1  12
ATOM     12  C   UNL d   1       1.975  -0.823   0.000  0.00  0.00     0.095 A 
ATOM     13  N   UNL d   1       2.723  -1.151   0.000  0.00  0.00    -0.221 NA
ATOM     14  C   UNL d   1       3.272  -0.540   0.000  0.00  0.00     0.194 A 
ATOM     15  S   UNL d   1       2.860   0.170   0.000  0.00  0.00    -0.046 SA
ATOM     16  C   UNL d   1       2.049  -0.004   0.000  0.00  0.00     0.058 A 
BRANCH  14  17
ATOM     17  N   UNL d   1       4.090  -0.628   0.000  0.00  0.00    -0.221 NA
BRANCH  17  18
ATOM     18  C   UNL d   1       4.569   0.046   0.000  0.00  0.00     0.084 A 
ATOM     19  C   UNL d   1       5.392  -0.042   0.000  0.00  0.00     0.022 A 
ATOM     20  C   UNL d   1       5.874   0.619   0.000  0.00  0.00     0.044 A 
ATOM     21  C   UNL d   1       5.529   1.372   0.000  0.00  0.00     0.196 A 
ATOM     22  C   UNL d   1       4.706   1.455   0.000  0.00  0.00     0.044 A 
ATOM     23  O   UNL d   1       6.015   2.041   0.000  0.00  0.00    -0.287 OA
ATOM     24  C   UNL d   1       4.232   0.786   0.000  0.00  0.00     0.022 A 
ENDBRANCH  17  18
ENDBRANCH  14  17
ENDBRANCH   1  12
BRANCH  10  25
ATOM     25  O   UNL d   1      -2.307  -0.836   0.000  0.00  0.00    -0.328 OA
ATOM     26  C   UNL d   1      -2.307  -0.013   0.000  0.00  0.00     0.181 C 
ENDBRANCH  10  25
TORSDOF 4
