REMARK  6 active torsions:
REMARK  status: ('A' for Active; 'I' for Inactive)
REMARK    1  A    between atoms: C_2  and  S_1 
REMARK    2  A    between atoms: N_8  and  S_1 
REMARK    3  A    between atoms: O_15  and  C_3 
REMARK    4  A    between atoms: C_14  and  N_8 
REMARK    5  A    between atoms: N_10  and  C_17 
REMARK    6  A    between atoms: C_17  and  C_14 
ROOT
ATOM      1  S   UNL d   1       2.300  -0.867   0.000  0.00  0.00     0.287 S 
ATOM      2  O   UNL d   1       2.713  -1.588   0.000  0.00  0.00    -0.198 OA
ATOM      3  O   UNL d   1       1.888  -0.154   0.000  0.00  0.00    -0.198 OA
ENDROOT
BRANCH   1   4
ATOM      4  C   UNL d   1       1.588  -1.279   0.000  0.00  0.00     0.128 A 
ATOM      5  C   UNL d   1       0.867  -0.867   0.000  0.00  0.00     0.118 A 
ATOM      6  C   UNL d   1       0.154  -1.279   0.000  0.00  0.00     0.091 A 
ATOM      7 CL   UNL d   1      -0.558  -0.867   0.000  0.00  0.00    -0.079 Cl
ATOM      8  C   UNL d   1       0.154  -2.104   0.000  0.00  0.00     0.070 A 
ATOM      9  C   UNL d   1       0.867  -2.517   0.000  0.00  0.00     0.013 A 
ATOM     10 CL   UNL d   1      -0.558  -2.517   0.000  0.00  0.00    -0.081 Cl
ATOM     11  C   UNL d   1       1.588  -2.104   0.000  0.00  0.00     0.016 A 
BRANCH   5  12
ATOM     12  O   UNL d   1       0.867  -0.042   0.000  0.00  0.00    -0.327 OA
ATOM     13  C   UNL d   1       0.154   0.371   0.000  0.00  0.00     0.181 C 
ENDBRANCH   5  12
ENDBRANCH   1   4
BRANCH   1  14
ATOM     14  N   UNL d   1       3.017  -0.454   0.000  0.00  0.00    -0.155 NA
BRANCH  14  15
ATOM     15  C   UNL d   1       3.730  -0.867   0.000  0.00  0.00     0.131 C 
BRANCH  15  16
ATOM     16  C   UNL d   1       4.442  -0.454   0.000  0.00  0.00     0.102 C 
BRANCH  16  17
ATOM     17  N   UNL d   1       5.155  -0.867   0.000  0.00  0.00    -0.298 N 
ATOM     18  C   UNL d   1       5.155  -1.700   0.000  0.00  0.00     0.107 A 
ATOM     19  C   UNL d   1       5.863  -2.113   0.000  0.00  0.00     0.142 A 
ATOM     20  O   UNL d   1       6.580  -1.704   0.000  0.00  0.00    -0.300 OA
ATOM     21  C   UNL d   1       6.580  -0.875   0.000  0.00  0.00     0.142 A 
ATOM     22  C   UNL d   1       5.867  -0.454   0.000  0.00  0.00     0.107 A 
ENDBRANCH  16  17
ENDBRANCH  15  16
ENDBRANCH  14  15
ENDBRANCH   1  14
TORSDOF 6
