REMARK  4 active torsions:
REMARK  status: ('A' for Active; 'I' for Inactive)
REMARK    1  A    between atoms: C_2  and  S_1 
REMARK    2  A    between atoms: N_4  and  S_1 
REMARK    3  A    between atoms: O_12  and  C_5 
REMARK    4  A    between atoms: O_13  and  C_7 
ROOT
ATOM      1  C   UNL d   1      -1.064  -0.261   0.000  0.00  0.00     0.128 A 
ATOM      2  C   UNL d   1      -1.474   0.455   0.000  0.00  0.00     0.040 A 
ATOM      3  C   UNL d   1      -1.474  -0.973   0.000  0.00  0.00     0.107 A 
ATOM      4  C   UNL d   1      -2.297  -0.973   0.000  0.00  0.00     0.034 A 
ATOM      5  C   UNL d   1      -2.297   0.455   0.000  0.00  0.00     0.101 A 
ATOM      6  C   UNL d   1      -2.715  -0.261   0.000  0.00  0.00     0.059 A 
ATOM      7 BR   UNL d   1      -3.535  -0.261   0.000  0.00  0.00    -0.047 Br
ENDROOT
BRANCH   1   8
ATOM      8  S   UNL d   1      -0.236  -0.261   0.000  0.00  0.00     0.273 S 
ATOM      9  O   UNL d   1      -0.236  -1.085   0.000  0.00  0.00    -0.200 OA
ATOM     10  O   UNL d   1      -0.236   0.567   0.000  0.00  0.00    -0.200 OA
BRANCH   8  11
ATOM     11  N   UNL d   1       0.588  -0.261   0.000  0.00  0.00    -0.229 N 
ATOM     12  C   UNL d   1       0.948   0.480   0.000  0.00  0.00     0.092 A 
ATOM     13  C   UNL d   1       1.751   0.666   0.000  0.00  0.00     0.020 A 
ATOM     14  C   UNL d   1       2.401   0.157   0.000  0.00  0.00     0.002 A 
ATOM     15  C   UNL d   1       2.397  -0.670   0.000  0.00  0.00     0.002 A 
ATOM     16  C   UNL d   1       1.755  -1.184   0.000  0.00  0.00     0.020 A 
ATOM     17  C   UNL d   1       0.948  -1.010   0.000  0.00  0.00     0.092 A 
ENDBRANCH   8  11
ENDBRANCH   1   8
BRANCH   3  18
ATOM     18  O   UNL d   1      -1.064  -1.681   0.000  0.00  0.00    -0.327 OA
ATOM     19  C   UNL d   1      -1.474  -2.397   0.000  0.00  0.00     0.181 C 
ENDBRANCH   3  18
BRANCH   5  20
ATOM     20  O   UNL d   1      -2.707   1.163   0.000  0.00  0.00    -0.328 OA
ATOM     21  C   UNL d   1      -3.526   1.163   0.000  0.00  0.00     0.181 C 
ENDBRANCH   5  20
TORSDOF 4
