REMARK  7 active torsions:
REMARK  status: ('A' for Active; 'I' for Inactive)
REMARK    1  A    between atoms: C_2  and  S_1 
REMARK    2  A    between atoms: N_4  and  S_1 
REMARK    3  A    between atoms: C_13  and  N_4 
REMARK    4  A    between atoms: C_14  and  N_4 
REMARK    5  A    between atoms: O_12  and  C_7 
REMARK    6  A    between atoms: C_16  and  C_13 
REMARK    7  A    between atoms: C_17  and  C_14 
ROOT
ATOM      1  S   UNL d   1       3.342  -0.354   0.000  0.00  0.00     0.271 S 
ATOM      2  O   UNL d   1       3.342   0.471   0.000  0.00  0.00    -0.200 OA
ATOM      3  O   UNL d   1       3.342  -1.179   0.000  0.00  0.00    -0.200 OA
ENDROOT
BRANCH   1   4
ATOM      4  C   UNL d   1       2.525  -0.354   0.000  0.00  0.00     0.106 A 
ATOM      5  C   UNL d   1       2.112   0.358   0.000  0.00  0.00     0.038 A 
ATOM      6  C   UNL d   1       1.288   0.358   0.000  0.00  0.00     0.105 A 
ATOM      7  C   UNL d   1       0.879  -0.354   0.000  0.00  0.00     0.080 A 
ATOM      8  C   UNL d   1       1.288  -1.067   0.000  0.00  0.00     0.014 A 
ATOM      9 CL   UNL d   1       0.054  -0.354   0.000  0.00  0.00    -0.080 Cl
ATOM     10  C   UNL d   1       2.112  -1.067   0.000  0.00  0.00     0.014 A 
BRANCH   6  11
ATOM     11  O   UNL d   1       0.879   1.071   0.000  0.00  0.00    -0.327 OA
ATOM     12  C   UNL d   1       0.054   1.071   0.000  0.00  0.00     0.181 C 
ENDBRANCH   6  11
ENDBRANCH   1   4
BRANCH   1  13
ATOM     13  N   UNL d   1       4.167  -0.354   0.000  0.00  0.00    -0.229 N 
BRANCH  13  14
ATOM     14  C   UNL d   1       4.579  -1.067   0.000  0.00  0.00     0.092 C 
BRANCH  14  15
ATOM     15  C   UNL d   1       5.404  -1.067   0.000  0.00  0.00     0.020 C 
ATOM     16  C   UNL d   1       5.817  -1.779   0.000  0.00  0.00     0.002 C 
ENDBRANCH  14  15
ENDBRANCH  13  14
BRANCH  13  17
ATOM     17  C   UNL d   1       4.579   0.358   0.000  0.00  0.00     0.092 C 
BRANCH  17  18
ATOM     18  C   UNL d   1       5.404   0.358   0.000  0.00  0.00     0.020 C 
ATOM     19  C   UNL d   1       5.817   1.075   0.000  0.00  0.00     0.002 C 
ENDBRANCH  17  18
ENDBRANCH  13  17
ENDBRANCH   1  13
TORSDOF 7
