REMARK  5 active torsions:
REMARK  status: ('A' for Active; 'I' for Inactive)
REMARK    1  A    between atoms: N_2  and  S_1 
REMARK    2  A    between atoms: C_3  and  S_1 
REMARK    3  A    between atoms: C_8  and  N_2 
REMARK    4  A    between atoms: C_12  and  C_8 
REMARK    5  A    between atoms: O_13  and  C_9 
ROOT
ATOM      1  S   UNL d   1       3.417  -0.029   0.000  0.00  0.00     0.285 S 
ATOM      2  O   UNL d   1       3.417   0.796   0.000  0.00  0.00    -0.198 OA
ATOM      3  O   UNL d   1       3.417  -0.863   0.000  0.00  0.00    -0.198 OA
ENDROOT
BRANCH   1   4
ATOM      4  N   UNL d   1       4.242  -0.029   0.000  0.00  0.00    -0.157 NA
BRANCH   4   5
ATOM      5  C   UNL d   1       4.654   0.683   0.000  0.00  0.00     0.112 C 
BRANCH   5   6
ATOM      6  C   UNL d   1       5.479   0.683   0.000  0.00  0.00     0.020 A 
ATOM      7  C   UNL d   1       5.888  -0.029   0.000  0.00  0.00     0.002 A 
ATOM      8  C   UNL d   1       6.713  -0.029   0.000  0.00  0.00     0.000 A 
ATOM      9  C   UNL d   1       7.125   0.683   0.000  0.00  0.00     0.000 A 
ATOM     10  C   UNL d   1       6.704   1.396   0.000  0.00  0.00     0.000 A 
ATOM     11  C   UNL d   1       5.879   1.396   0.000  0.00  0.00     0.002 A 
ENDBRANCH   5   6
ENDBRANCH   4   5
ENDBRANCH   1   4
BRANCH   1  12
ATOM     12  C   UNL d   1       2.592  -0.029   0.000  0.00  0.00     0.105 A 
ATOM     13  C   UNL d   1       2.179   0.683   0.000  0.00  0.00     0.015 A 
ATOM     14  C   UNL d   1       1.350   0.683   0.000  0.00  0.00     0.025 A 
ATOM     15  C   UNL d   1       0.938  -0.029   0.000  0.00  0.00     0.094 A 
ATOM     16  C   UNL d   1       1.350  -0.750   0.000  0.00  0.00     0.025 A 
ATOM     17  C   UNL d   1       2.179  -0.750   0.000  0.00  0.00     0.015 A 
BRANCH  15  18
ATOM     18  O   UNL d   1       0.113  -0.029   0.000  0.00  0.00    -0.328 OA
ATOM     19  C   UNL d   1      -0.300  -0.750   0.000  0.00  0.00     0.181 C 
ENDBRANCH  15  18
ENDBRANCH   1  12
TORSDOF 5
