REMARK  3 active torsions:
REMARK  status: ('A' for Active; 'I' for Inactive)
REMARK    1  A    between atoms: C_4  and  C_1 
REMARK       I    between atoms: N_8  and  C_4 
REMARK    2  A    between atoms: C_15  and  C_11 
REMARK    3  A    between atoms: C_12  and  C_15 
ROOT
ATOM      1  C   UNL d   1       0.425   0.325   0.000  0.00  0.00     0.120 A 
ATOM      2  C   UNL d   1       0.429  -0.504   0.000  0.00  0.00     0.305 A 
ATOM      3  O   UNL d   1      -0.296  -0.925   0.000  0.00  0.00    -0.273 OA
ATOM      4  C   UNL d   1      -0.300   0.746   0.000  0.00  0.00     0.012 A 
ATOM      5  C   UNL d   1      -1.008  -0.517   0.000  0.00  0.00     0.103 A 
ATOM      6  C   UNL d   1      -1.012   0.321   0.000  0.00  0.00     0.023 A 
ATOM      7  O   UNL d   1       1.142  -0.917   0.000  0.00  0.00    -0.259 OA
ATOM      8  C   UNL d   1      -1.733  -0.925   0.000  0.00  0.00     0.023 A 
ATOM      9  C   UNL d   1      -1.733   0.733   0.000  0.00  0.00     0.002 A 
ATOM     10  C   UNL d   1      -2.446   0.312   0.000  0.00  0.00     0.000 A 
ATOM     11  C   UNL d   1      -2.446  -0.512   0.000  0.00  0.00     0.002 A 
ENDROOT
BRANCH   1  12
ATOM     12  C   UNL d   1       1.137   0.738   0.000  0.00  0.00     0.270 C 
ATOM     13  N   UNL d   1       1.854   0.333   0.000  0.00  0.00    -0.269 N 
ATOM     14  C   UNL d   1       2.567   0.746   0.000  0.00  0.00     0.102 C 
ATOM     15  C   UNL d   1       1.854  -0.492   0.000  0.00  0.00     0.102 C 
ATOM     16  O   UNL d   1       1.137   1.562   0.000  0.00  0.00    -0.266 OA
ENDBRANCH   1  12
BRANCH   8  17
ATOM     17  C   UNL d   1      -1.733  -1.750   0.000  0.00  0.00     0.002 C 
BRANCH  17  18
ATOM     18  C   UNL d   1      -2.446  -2.163   0.000  0.00  0.00     0.000 C 
ATOM     19  C   UNL d   1      -2.446  -2.987   0.000  0.00  0.00     0.000 C 
ENDBRANCH  17  18
ENDBRANCH   8  17
TORSDOF 3
