REMARK  6 active torsions:
REMARK  status: ('A' for Active; 'I' for Inactive)
REMARK    1  A    between atoms: N_2  and  S_1 
REMARK    2  A    between atoms: C_3  and  S_1 
REMARK    3  A    between atoms: C_9  and  N_2 
REMARK    4  A    between atoms: C_13  and  C_9 
REMARK    5  A    between atoms: O_14  and  C_10 
REMARK    6  A    between atoms: C_17  and  O_14 
ROOT
ATOM      1  S   UNL d   1       1.904  -0.656   0.000  0.00  0.00     0.285 S 
ATOM      2  O   UNL d   1       1.491  -1.369   0.000  0.00  0.00    -0.198 OA
ATOM      3  O   UNL d   1       2.317   0.058   0.000  0.00  0.00    -0.198 OA
ENDROOT
BRANCH   1   4
ATOM      4  N   UNL d   1       1.190  -0.242   0.000  0.00  0.00    -0.157 NA
BRANCH   4   5
ATOM      5  C   UNL d   1       1.190   0.585   0.000  0.00  0.00     0.112 C 
BRANCH   5   6
ATOM      6  C   UNL d   1       0.476   0.998   0.000  0.00  0.00     0.023 A 
ATOM      7  C   UNL d   1      -0.246   0.585   0.000  0.00  0.00     0.022 A 
ATOM      8  C   UNL d   1      -0.960   0.998   0.000  0.00  0.00     0.099 A 
ATOM      9  N   UNL d   1      -0.960   1.816   0.000  0.00  0.00    -0.242 NA
ATOM     10  C   UNL d   1      -0.246   2.230   0.000  0.00  0.00     0.099 A 
ATOM     11  C   UNL d   1       0.476   1.816   0.000  0.00  0.00     0.022 A 
ENDBRANCH   5   6
ENDBRANCH   4   5
ENDBRANCH   1   4
BRANCH   1  12
ATOM     12  C   UNL d   1       2.618  -1.069   0.000  0.00  0.00     0.105 A 
ATOM     13  C   UNL d   1       3.332  -0.656   0.000  0.00  0.00     0.015 A 
ATOM     14  C   UNL d   1       4.046  -1.069   0.000  0.00  0.00     0.025 A 
ATOM     15  C   UNL d   1       4.046  -1.896   0.000  0.00  0.00     0.100 A 
ATOM     16  C   UNL d   1       3.332  -2.309   0.000  0.00  0.00     0.025 A 
ATOM     17  C   UNL d   1       2.618  -1.896   0.000  0.00  0.00     0.015 A 
BRANCH  15  18
ATOM     18  O   UNL d   1       4.760  -2.309   0.000  0.00  0.00    -0.305 OA
BRANCH  18  19
ATOM     19  C   UNL d   1       5.474  -1.896   0.000  0.00  0.00     0.123 C 
ATOM     20  C   UNL d   1       6.192  -2.309   0.000  0.00  0.00     0.029 C 
ENDBRANCH  18  19
ENDBRANCH  15  18
ENDBRANCH   1  12
TORSDOF 6
