REMARK  7 active torsions:
REMARK  status: ('A' for Active; 'I' for Inactive)
REMARK    1  A    between atoms: C_4  and  S_1 
REMARK    2  A    between atoms: N_6  and  S_1 
REMARK    3  A    between atoms: N_3  and  C_2 
REMARK    4  A    between atoms: C_15  and  N_6 
REMARK    5  A    between atoms: C_16  and  N_6 
REMARK    6  A    between atoms: C_18  and  C_15 
REMARK    7  A    between atoms: C_17  and  C_16 
ROOT
ATOM      1  C   UNL d   1       1.062   0.125   0.000  0.00  0.00     0.138 A 
ATOM      2  C   UNL d   1       2.300  -0.588   0.000  0.00  0.00     0.106 A 
ATOM      3  C   UNL d   1       1.887   0.125   0.000  0.00  0.00     0.037 A 
ATOM      4  C   UNL d   1       0.650  -0.588   0.000  0.00  0.00     0.080 A 
ATOM      5  C   UNL d   1       1.887  -1.304   0.000  0.00  0.00     0.014 A 
ATOM      6  C   UNL d   1       1.062  -1.304   0.000  0.00  0.00     0.014 A 
ATOM      7 CL   UNL d   1      -0.175  -0.588   0.000  0.00  0.00    -0.081 Cl
ENDROOT
BRANCH   2   8
ATOM      8  S   UNL d   1       3.125  -0.588   0.000  0.00  0.00     0.271 S 
ATOM      9  O   UNL d   1       3.125  -1.413   0.000  0.00  0.00    -0.200 OA
ATOM     10  O   UNL d   1       3.125   0.237   0.000  0.00  0.00    -0.200 OA
BRANCH   8  11
ATOM     11  N   UNL d   1       3.950  -0.588   0.000  0.00  0.00    -0.229 N 
BRANCH  11  12
ATOM     12  C   UNL d   1       4.362  -1.304   0.000  0.00  0.00     0.092 C 
BRANCH  12  13
ATOM     13  C   UNL d   1       5.188  -1.304   0.000  0.00  0.00     0.020 C 
ATOM     14  C   UNL d   1       5.604  -2.017   0.000  0.00  0.00     0.002 C 
ENDBRANCH  12  13
ENDBRANCH  11  12
BRANCH  11  15
ATOM     15  C   UNL d   1       4.362   0.125   0.000  0.00  0.00     0.092 C 
BRANCH  15  16
ATOM     16  C   UNL d   1       5.188   0.125   0.000  0.00  0.00     0.020 C 
ATOM     17  C   UNL d   1       5.604   0.846   0.000  0.00  0.00     0.002 C 
ENDBRANCH  15  16
ENDBRANCH  11  15
ENDBRANCH   8  11
ENDBRANCH   2   8
BRANCH   1  18
ATOM     18  N   UNL d   1       0.650   0.846   0.000  0.00  0.00    -0.113 N 
ATOM     19  O   UNL d   1       1.062   1.558   0.000  0.00  0.00    -0.532 OA
ATOM     20  O   UNL d   1      -0.175   0.846   0.000  0.00  0.00    -0.532 OA
ENDBRANCH   1  18
TORSDOF 7
