REMARK  7 active torsions:
REMARK  status: ('A' for Active; 'I' for Inactive)
REMARK    1  A    between atoms: C_12  and  C_1 
REMARK    2  A    between atoms: C_14  and  C_4 
REMARK       I    between atoms: C_10  and  N_9 
REMARK    3  A    between atoms: O_22  and  C_10 
REMARK    4  A    between atoms: O_23  and  C_12 
REMARK    5  A    between atoms: N_13  and  C_14 
REMARK    6  A    between atoms: C_27  and  O_22 
REMARK    7  A    between atoms: C_28  and  O_23 
ROOT
ATOM      1  C   UNL d   1       6.639  -4.618   0.000  0.00  0.00     0.088 A 
ATOM      2  C   UNL d   1       6.023  -4.078   0.000  0.00  0.00     0.034 A 
ATOM      3  C   UNL d   1       5.304  -4.494   0.000  0.00  0.00     0.100 A 
ATOM      4  C   UNL d   1       6.015  -3.247   0.000  0.00  0.00     0.059 A 
ATOM      5  C   UNL d   1       6.302  -5.387   0.000  0.00  0.00     0.105 A 
ATOM      6  O   UNL d   1       5.487  -5.304   0.000  0.00  0.00    -0.307 OA
ATOM      7  C   UNL d   1       5.304  -2.843   0.000  0.00  0.00     0.197 A 
ATOM      8  C   UNL d   1       4.593  -4.078   0.000  0.00  0.00     0.026 A 
ATOM      9  C   UNL d   1       4.593  -3.259   0.000  0.00  0.00     0.041 A 
ATOM     10  O   UNL d   1       5.292  -2.012   0.000  0.00  0.00    -0.286 OA
ATOM     11  C   UNL d   1       6.722  -6.090   0.000  0.00  0.00     0.027 C 
ATOM     12  C   UNL d   1       3.878  -4.494   0.000  0.00  0.00     0.002 A 
ATOM     13  C   UNL d   1       3.878  -2.848   0.000  0.00  0.00     0.003 A 
ATOM     14  C   UNL d   1       3.172  -3.259   0.000  0.00  0.00     0.000 A 
ATOM     15  C   UNL d   1       3.172  -4.090   0.000  0.00  0.00     0.000 A 
ENDROOT
BRANCH   4  16
ATOM     16  C   UNL d   1       6.734  -2.831   0.000  0.00  0.00     0.084 C 
BRANCH  16  17
ATOM     17  N   UNL d   1       6.722  -2.000   0.000  0.00  0.00    -0.300 N 
ATOM     18  C   UNL d   1       7.433  -1.584   0.000  0.00  0.00     0.100 A 
ATOM     19  C   UNL d   1       7.420  -0.752   0.000  0.00  0.00     0.104 A 
ATOM     20  N   UNL d   1       6.701  -0.353   0.000  0.00  0.00    -0.249 N 
ATOM     21  C   UNL d   1       5.990  -0.777   0.000  0.00  0.00     0.104 A 
ATOM     22  C   UNL d   1       6.689   0.449   0.000  0.00  0.00     0.378 C 
ATOM     23  C   UNL d   1       6.003  -1.596   0.000  0.00  0.00     0.100 A 
ATOM     24  O   UNL d   1       5.973   0.861   0.000  0.00  0.00    -0.237 OA
BRANCH  22  25
ATOM     25  O   UNL d   1       7.399   0.881   0.000  0.00  0.00    -0.257 OA
BRANCH  25  26
ATOM     26  C   UNL d   1       8.118   0.470   0.000  0.00  0.00     0.128 C 
ATOM     27  C   UNL d   1       8.829   0.894   0.000  0.00  0.00     0.029 C 
ENDBRANCH  25  26
ENDBRANCH  22  25
ENDBRANCH  16  17
ENDBRANCH   4  16
BRANCH   1  28
ATOM     28  C   UNL d   1       7.437  -4.427   0.000  0.00  0.00     0.302 C 
ATOM     29  O   UNL d   1       7.686  -3.646   0.000  0.00  0.00    -0.259 OA
BRANCH  28  30
ATOM     30  O   UNL d   1       7.998  -5.038   0.000  0.00  0.00    -0.271 OA
BRANCH  30  31
ATOM     31  C   UNL d   1       7.749  -5.824   0.000  0.00  0.00     0.126 C 
ATOM     32  C   UNL d   1       8.310  -6.435   0.000  0.00  0.00     0.029 C 
ENDBRANCH  30  31
ENDBRANCH  28  30
ENDBRANCH   1  28
TORSDOF 7
