REMARK  7 active torsions:
REMARK  status: ('A' for Active; 'I' for Inactive)
REMARK    1  A    between atoms: C_19  and  N_1 
REMARK    2  A    between atoms: C_6  and  C_3 
REMARK    3  A    between atoms: C_9  and  C_6 
REMARK    4  A    between atoms: C_7  and  N_8 
REMARK       I    between atoms: N_8  and  C_11 
REMARK    5  A    between atoms: C_11  and  C_23 
REMARK    6  A    between atoms: C_22  and  C_19 
REMARK    7  A    between atoms: C_23  and  C_22 
ROOT
ATOM      1  C   UNL d   1      -1.734   4.235   0.000  0.00  0.00     0.024 C 
ENDROOT
BRANCH   1   2
ATOM      2  C   UNL d   1      -1.028   3.837   0.000  0.00  0.00     0.084 C 
BRANCH   2   3
ATOM      3  N   UNL d   1      -0.298   4.223   0.000  0.00  0.00    -0.259 N 
ATOM      4  C   UNL d   1      -0.202   5.050   0.000  0.00  0.00     0.153 A 
ATOM      5  S   UNL d   1       0.609   5.192   0.000  0.00  0.00    -0.053 SA
ATOM      6  S   UNL d   1      -0.814   5.616   0.000  0.00  0.00    -0.052 SA
ATOM      7  C   UNL d   1       1.033   4.496   0.000  0.00  0.00     0.090 A 
ATOM      8  C   UNL d   1       0.470   3.900   0.000  0.00  0.00     0.272 A 
ATOM      9  O   UNL d   1       0.659   3.073   0.000  0.00  0.00    -0.266 OA
BRANCH   7  10
ATOM     10  C   UNL d   1       1.868   4.412   0.000  0.00  0.00     0.036 C 
BRANCH  10  11
ATOM     11  C   UNL d   1       2.221   3.673   0.000  0.00  0.00     0.101 A 
ATOM     12  O   UNL d   1       3.014   3.400   0.000  0.00  0.00    -0.305 OA
ATOM     13  C   UNL d   1       2.989   2.565   0.000  0.00  0.00     0.123 A 
ATOM     14  C   UNL d   1       2.233   2.325   0.000  0.00  0.00     0.029 A 
ATOM     15  C   UNL d   1       1.755   2.993   0.000  0.00  0.00     0.027 A 
ENDBRANCH  10  11
ENDBRANCH   7  10
ENDBRANCH   2   3
ENDBRANCH   1   2
BRANCH   1  16
ATOM     16  C   UNL d   1      -2.477   3.837   0.000  0.00  0.00     0.064 C 
BRANCH  16  17
ATOM     17  C   UNL d   1      -3.182   4.235   0.000  0.00  0.00     0.279 C 
ATOM     18  N   UNL d   1      -3.900   3.828   0.000  0.00  0.00    -0.208 NA
ATOM     19  O   UNL d   1      -3.186   5.067   0.000  0.00  0.00    -0.265 OA
BRANCH  18  20
ATOM     20  C   UNL d   1      -3.900   2.985   0.000  0.00  0.00     0.085 A 
ATOM     21  C   UNL d   1      -3.182   2.590   0.000  0.00  0.00     0.018 A 
ATOM     22  C   UNL d   1      -3.169   1.759   0.000  0.00  0.00     0.002 A 
ATOM     23  C   UNL d   1      -2.477   3.018   0.000  0.00  0.00     0.002 A 
ATOM     24  C   UNL d   1      -2.456   1.360   0.000  0.00  0.00     0.000 A 
ATOM     25  C   UNL d   1      -3.887   1.331   0.000  0.00  0.00     0.000 A 
ATOM     26  C   UNL d   1      -1.738   1.776   0.000  0.00  0.00     0.000 A 
ATOM     27  C   UNL d   1      -1.750   2.615   0.000  0.00  0.00     0.000 A 
ATOM     28  C   UNL d   1      -4.596   1.725   0.000  0.00  0.00     0.002 A 
ATOM     29  C   UNL d   1      -4.605   2.556   0.000  0.00  0.00     0.019 A 
ENDBRANCH  18  20
ENDBRANCH  16  17
ENDBRANCH   1  16
TORSDOF 7
