REMARK  2 active torsions:
REMARK  status: ('A' for Active; 'I' for Inactive)
REMARK    1  A    between atoms: N_2  and  S_1 
REMARK    2  A    between atoms: C_3  and  S_1 
ROOT
ATOM      1  N   UNL d   1       0.630  -0.631   0.000  0.00  0.00    -0.231 N 
ATOM      2  C   UNL d   1       1.033   0.085   0.000  0.00  0.00     0.075 A 
ATOM      3  C   UNL d   1       1.858   0.087   0.000  0.00  0.00     0.017 A 
ATOM      4  C   UNL d   1       1.042  -1.353   0.000  0.00  0.00     0.092 A 
ATOM      5  C   UNL d   1       0.624   0.809   0.000  0.00  0.00     0.018 A 
ATOM      6  C   UNL d   1       1.862  -1.348   0.000  0.00  0.00     0.020 A 
ATOM      7  C   UNL d   1       2.274  -0.624   0.000  0.00  0.00     0.003 A 
ATOM      8  C   UNL d   1       2.265   0.818   0.000  0.00  0.00     0.002 A 
ATOM      9  C   UNL d   1       1.022   1.534   0.000  0.00  0.00     0.002 A 
ATOM     10  C   UNL d   1       1.847   1.540   0.000  0.00  0.00     0.000 A 
ENDROOT
BRANCH   1  11
ATOM     11  S   UNL d   1      -0.194  -0.631   0.000  0.00  0.00     0.277 S 
ATOM     12  O   UNL d   1      -0.194  -1.456   0.000  0.00  0.00    -0.199 OA
ATOM     13  O   UNL d   1      -0.194   0.183   0.000  0.00  0.00    -0.199 OA
BRANCH  11  14
ATOM     14  C   UNL d   1      -1.004  -0.630   0.000  0.00  0.00     0.133 A 
ATOM     15  S   UNL d   1      -1.476  -1.304   0.000  0.00  0.00    -0.074 SA
ATOM     16  C   UNL d   1      -2.289  -1.044   0.000  0.00  0.00     0.036 A 
ATOM     17  C   UNL d   1      -2.267  -0.224   0.000  0.00  0.00     0.008 A 
ATOM     18  C   UNL d   1      -1.518   0.058   0.000  0.00  0.00     0.020 A 
ENDBRANCH  11  14
ENDBRANCH   1  11
TORSDOF 2
