REMARK  5 active torsions:
REMARK  status: ('A' for Active; 'I' for Inactive)
REMARK    1  A    between atoms: C_11  and  C_1 
REMARK    2  A    between atoms: O_19  and  C_11 
REMARK    3  A    between atoms: C_16  and  N_12 
REMARK    4  A    between atoms: C_18  and  C_16 
REMARK    5  A    between atoms: C_26  and  O_19 
ROOT
ATOM      1  C   UNL d   1       6.003  -4.207   0.000  0.00  0.00     0.088 A 
ATOM      2  C   UNL d   1       5.387  -3.671   0.000  0.00  0.00     0.033 A 
ATOM      3  C   UNL d   1       5.387  -2.831   0.000  0.00  0.00     0.043 A 
ATOM      4  C   UNL d   1       4.677  -4.090   0.000  0.00  0.00     0.100 A 
ATOM      5  C   UNL d   1       5.666  -4.976   0.000  0.00  0.00     0.105 A 
ATOM      6  O   UNL d   1       4.843  -4.893   0.000  0.00  0.00    -0.307 OA
ATOM      7  C   UNL d   1       4.668  -2.432   0.000  0.00  0.00     0.103 A 
ATOM      8  O   UNL d   1       4.656  -1.601   0.000  0.00  0.00    -0.288 OA
ATOM      9  C   UNL d   1       3.957  -3.671   0.000  0.00  0.00     0.025 A 
ATOM     10  C   UNL d   1       3.957  -2.843   0.000  0.00  0.00     0.025 A 
ATOM     11  N   UNL d   1       6.086  -1.596   0.000  0.00  0.00    -0.282 N 
ATOM     12  C   UNL d   1       6.090  -2.424   0.000  0.00  0.00     0.084 A 
ATOM     13  C   UNL d   1       5.367  -1.185   0.000  0.00  0.00     0.209 A 
ATOM     14  C   UNL d   1       6.086  -5.687   0.000  0.00  0.00     0.027 C 
ATOM     15  C   UNL d   1       3.247  -4.090   0.000  0.00  0.00     0.002 A 
ATOM     16  C   UNL d   1       3.247  -2.432   0.000  0.00  0.00     0.002 A 
ATOM     17  C   UNL d   1       2.532  -3.671   0.000  0.00  0.00     0.000 A 
ATOM     18  C   UNL d   1       2.532  -2.848   0.000  0.00  0.00     0.000 A 
ENDROOT
BRANCH  11  19
ATOM     19  C   UNL d   1       6.788  -1.176   0.000  0.00  0.00     0.084 C 
BRANCH  19  20
ATOM     20  C   UNL d   1       7.512  -1.584   0.000  0.00  0.00     0.037 A 
ATOM     21  C   UNL d   1       7.520  -2.411   0.000  0.00  0.00     0.100 A 
ATOM     22  N   UNL d   1       8.235  -2.810   0.000  0.00  0.00    -0.242 NA
ATOM     23  C   UNL d   1       8.946  -2.394   0.000  0.00  0.00     0.099 A 
ATOM     24  C   UNL d   1       8.933  -1.575   0.000  0.00  0.00     0.021 A 
ATOM     25  C   UNL d   1       8.218  -1.164   0.000  0.00  0.00     0.005 A 
ENDBRANCH  19  20
ENDBRANCH  11  19
BRANCH   1  26
ATOM     26  C   UNL d   1       6.801  -4.020   0.000  0.00  0.00     0.302 C 
ATOM     27  O   UNL d   1       7.050  -3.242   0.000  0.00  0.00    -0.259 OA
BRANCH  26  28
ATOM     28  O   UNL d   1       7.370  -4.627   0.000  0.00  0.00    -0.271 OA
BRANCH  28  29
ATOM     29  C   UNL d   1       7.121  -5.404   0.000  0.00  0.00     0.126 C 
ATOM     30  C   UNL d   1       7.670  -6.015   0.000  0.00  0.00     0.029 C 
ENDBRANCH  28  29
ENDBRANCH  26  28
ENDBRANCH   1  26
TORSDOF 5
