REMARK  5 active torsions:
REMARK  status: ('A' for Active; 'I' for Inactive)
REMARK    1  A    between atoms: C_10  and  N_3 
REMARK    2  A    between atoms: C_14  and  N_6 
REMARK    3  A    between atoms: C_9  and  C_7 
REMARK    4  A    between atoms: O_23  and  C_20 
REMARK    5  A    between atoms: C_26  and  O_23 
ROOT
ATOM      1  C   UNL d   1      -0.598   0.183   0.000  0.00  0.00     0.105 A 
ATOM      2  C   UNL d   1      -0.598   1.023   0.000  0.00  0.00     0.186 A 
ATOM      3  N   UNL d   1       0.667   0.618   0.000  0.00  0.00    -0.240 N 
ATOM      4  C   UNL d   1       0.169   1.261   0.000  0.00  0.00     0.292 A 
ATOM      5  C   UNL d   1       0.180  -0.066   0.000  0.00  0.00     0.271 A 
ATOM      6  N   UNL d   1      -1.883   0.591   0.000  0.00  0.00    -0.212 N 
ATOM      7  C   UNL d   1      -1.385  -0.045   0.000  0.00  0.00     0.100 A 
ATOM      8  O   UNL d   1      -1.385   1.285   0.000  0.00  0.00    -0.223 OA
ATOM      9  O   UNL d   1       0.418  -0.860   0.000  0.00  0.00    -0.266 OA
ATOM     10  O   UNL d   1       0.418   2.049   0.000  0.00  0.00    -0.264 OA
ENDROOT
BRANCH   3  11
ATOM     11  C   UNL d   1       1.492   0.649   0.000  0.00  0.00     0.070 A 
ATOM     12  C   UNL d   1       1.866   1.379   0.000  0.00  0.00     0.020 A 
ATOM     13  C   UNL d   1       2.695   1.427   0.000  0.00  0.00     0.026 A 
ATOM     14  C   UNL d   1       3.140   0.722   0.000  0.00  0.00     0.100 A 
ATOM     15  C   UNL d   1       2.767   0.000   0.000  0.00  0.00     0.026 A 
ATOM     16  C   UNL d   1       1.948  -0.024   0.000  0.00  0.00     0.020 A 
BRANCH  14  17
ATOM     17  O   UNL d   1       3.963   0.746   0.000  0.00  0.00    -0.305 OA
BRANCH  17  18
ATOM     18  C   UNL d   1       4.343   1.479   0.000  0.00  0.00     0.123 C 
ATOM     19  C   UNL d   1       3.911   2.173   0.000  0.00  0.00     0.029 C 
ENDBRANCH  17  18
ENDBRANCH  14  17
ENDBRANCH   3  11
BRANCH   7  20
ATOM     20  C   UNL d   1      -1.634  -0.833   0.000  0.00  0.00     0.048 A 
ATOM     21  S   UNL d   1      -1.147  -1.534   0.000  0.00  0.00    -0.085 SA
ATOM     22  C   UNL d   1      -1.655  -2.170   0.000  0.00  0.00     0.035 A 
ATOM     23  C   UNL d   1      -2.422  -1.931   0.000  0.00  0.00     0.007 A 
ATOM     24  C   UNL d   1      -2.422  -1.078   0.000  0.00  0.00     0.009 A 
ENDBRANCH   7  20
BRANCH   6  25
ATOM     25  C   UNL d   1      -2.712   0.556   0.000  0.00  0.00     0.088 A 
ATOM     26  C   UNL d   1      -3.161   1.244   0.000  0.00  0.00     0.020 A 
ATOM     27  C   UNL d   1      -3.997   1.213   0.000  0.00  0.00     0.002 A 
ATOM     28  C   UNL d   1      -4.370   0.473   0.000  0.00  0.00     0.000 A 
ATOM     29  C   UNL d   1      -3.914  -0.221   0.000  0.00  0.00     0.002 A 
ATOM     30  C   UNL d   1      -3.085  -0.169   0.000  0.00  0.00     0.020 A 
ENDBRANCH   6  25
TORSDOF 5
