REMARK  7 active torsions:
REMARK  status: ('A' for Active; 'I' for Inactive)
REMARK    1  A    between atoms: C_8  and  N_1 
REMARK    2  A    between atoms: C_7  and  C_3 
REMARK    3  A    between atoms: C_10  and  C_6 
REMARK    4  A    between atoms: C_11  and  C_7 
REMARK    5  A    between atoms: C_14  and  C_8 
REMARK    6  A    between atoms: C_12  and  C_14 
REMARK       I    between atoms: N_17  and  C_12 
REMARK    7  A    between atoms: C_20  and  N_17 
ROOT
ATOM      1  C   UNL d   1      -2.447   5.487   0.000  0.00  0.00     0.089 C 
ENDROOT
BRANCH   1   2
ATOM      2  N   UNL d   1      -2.430   6.311   0.000  0.00  0.00    -0.259 N 
ATOM      3  C   UNL d   1      -3.078   6.841   0.000  0.00  0.00     0.153 A 
ATOM      4  S   UNL d   1      -2.788   7.623   0.000  0.00  0.00    -0.053 SA
ATOM      5  S   UNL d   1      -3.885   6.614   0.000  0.00  0.00    -0.052 SA
ATOM      6  C   UNL d   1      -1.951   7.586   0.000  0.00  0.00     0.090 A 
ATOM      7  C   UNL d   1      -1.737   6.791   0.000  0.00  0.00     0.272 A 
ATOM      8  O   UNL d   1      -0.933   6.509   0.000  0.00  0.00    -0.266 OA
BRANCH   6   9
ATOM      9  C   UNL d   1      -1.451   8.242   0.000  0.00  0.00     0.036 C 
BRANCH   9  10
ATOM     10  C   UNL d   1      -0.626   8.115   0.000  0.00  0.00     0.101 A 
ATOM     11  O   UNL d   1       0.013   8.645   0.000  0.00  0.00    -0.305 OA
ATOM     12  C   UNL d   1       0.711   8.166   0.000  0.00  0.00     0.123 A 
ATOM     13  C   UNL d   1       0.496   7.409   0.000  0.00  0.00     0.029 A 
ATOM     14  C   UNL d   1      -0.324   7.346   0.000  0.00  0.00     0.027 A 
ENDBRANCH   9  10
ENDBRANCH   6   9
ENDBRANCH   1   2
BRANCH   1  15
ATOM     15  C   UNL d   1      -3.187   5.063   0.000  0.00  0.00     0.082 C 
BRANCH  15  16
ATOM     16  C   UNL d   1      -3.187   4.243   0.000  0.00  0.00     0.281 C 
ATOM     17  N   UNL d   1      -3.906   3.835   0.000  0.00  0.00    -0.208 NA
ATOM     18  O   UNL d   1      -2.468   3.835   0.000  0.00  0.00    -0.265 OA
BRANCH  17  19
ATOM     19  C   UNL d   1      -3.906   3.011   0.000  0.00  0.00     0.088 A 
ATOM     20  C   UNL d   1      -4.613   2.611   0.000  0.00  0.00     0.061 A 
ATOM     21  C   UNL d   1      -4.638   1.800   0.000  0.00  0.00     0.203 A 
ATOM     22  O   UNL d   1      -5.382   1.400   0.000  0.00  0.00    -0.286 OA
ATOM     23  C   UNL d   1      -3.881   1.383   0.000  0.00  0.00     0.103 A 
ATOM     24  C   UNL d   1      -3.175   1.779   0.000  0.00  0.00     0.011 A 
ATOM     25  C   UNL d   1      -3.200   2.620   0.000  0.00  0.00     0.020 A 
BRANCH  23  26
ATOM     26  C   UNL d   1      -3.856   0.551   0.000  0.00  0.00     0.214 C 
ATOM     27  O   UNL d   1      -3.112   0.147   0.000  0.00  0.00    -0.644 OA
ATOM     28  O   UNL d   1      -4.541   0.097   0.000  0.00  0.00    -0.644 OA
ENDBRANCH  23  26
ENDBRANCH  17  19
ENDBRANCH  15  16
ENDBRANCH   1  15
TORSDOF 7
