REMARK  3 active torsions:
REMARK  status: ('A' for Active; 'I' for Inactive)
REMARK    1  A    between atoms: C_6  and  N_1 
REMARK    2  A    between atoms: C_7  and  O_10 
REMARK    3  A    between atoms: O_10  and  C_13 
ROOT
ATOM      1  C   UNL d   1      -0.842  -0.016   0.000  0.00  0.00     0.070 A 
ATOM      2  C   UNL d   1      -0.436   0.714   0.000  0.00  0.00     0.020 A 
ATOM      3  C   UNL d   1      -0.417  -0.724   0.000  0.00  0.00     0.020 A 
ATOM      4  C   UNL d   1       0.817  -0.002   0.000  0.00  0.00     0.105 A 
ATOM      5  C   UNL d   1       0.406  -0.724   0.000  0.00  0.00     0.026 A 
ATOM      6  C   UNL d   1       0.390   0.714   0.000  0.00  0.00     0.026 A 
ENDROOT
BRANCH   1   7
ATOM      7  N   UNL d   1      -1.661  -0.016   0.000  0.00  0.00    -0.242 N 
ATOM      8  C   UNL d   1      -2.178   0.652   0.000  0.00  0.00     0.267 A 
ATOM      9  C   UNL d   1      -2.934   0.373   0.000  0.00  0.00     0.066 A 
ATOM     10  O   UNL d   1      -1.967   1.447   0.000  0.00  0.00    -0.267 OA
ATOM     11  C   UNL d   1      -2.934  -0.434   0.000  0.00  0.00     0.066 A 
ATOM     12  C   UNL d   1      -2.122  -0.670   0.000  0.00  0.00     0.267 A 
ATOM     13  O   UNL d   1      -1.837  -1.447   0.000  0.00  0.00    -0.267 OA
ENDBRANCH   1   7
BRANCH   4  14
ATOM     14  O   UNL d   1       1.617  -0.002   0.000  0.00  0.00    -0.260 OA
BRANCH  14  15
ATOM     15  C   UNL d   1       2.025   0.703   0.000  0.00  0.00     0.391 C 
ATOM     16  F   UNL d   1       1.624   1.403   0.000  0.00  0.00    -0.145 F 
ATOM     17  F   UNL d   1       2.839   0.703   0.000  0.00  0.00    -0.145 F 
ENDBRANCH  14  15
ENDBRANCH   4  14
TORSDOF 3
