REMARK  2 active torsions:
REMARK  status: ('A' for Active; 'I' for Inactive)
REMARK    1  A    between atoms: N_2  and  S_1 
REMARK    2  A    between atoms: C_4  and  S_1 
ROOT
ATOM      1  N   UNL d   1       1.174  -0.022   0.000  0.00  0.00    -0.231 N 
ATOM      2  C   UNL d   1       0.456   0.395   0.000  0.00  0.00     0.075 A 
ATOM      3  C   UNL d   1       0.456   1.213   0.000  0.00  0.00     0.017 A 
ATOM      4  C   UNL d   1       1.892   0.395   0.000  0.00  0.00     0.092 A 
ATOM      5  C   UNL d   1      -0.262  -0.022   0.000  0.00  0.00     0.018 A 
ATOM      6  C   UNL d   1       1.892   1.213   0.000  0.00  0.00     0.020 A 
ATOM      7  C   UNL d   1       1.174   1.631   0.000  0.00  0.00     0.003 A 
ATOM      8  C   UNL d   1      -0.262   1.631   0.000  0.00  0.00     0.002 A 
ATOM      9  C   UNL d   1      -0.968   0.395   0.000  0.00  0.00     0.002 A 
ATOM     10  C   UNL d   1      -0.968   1.213   0.000  0.00  0.00     0.000 A 
ENDROOT
BRANCH   1  11
ATOM     11  S   UNL d   1       1.174  -0.841   0.000  0.00  0.00     0.271 S 
ATOM     12  O   UNL d   1       0.117  -0.841   0.000  0.00  0.00    -0.200 OA
ATOM     13  O   UNL d   1       2.076  -0.841   0.000  0.00  0.00    -0.200 OA
BRANCH  11  14
ATOM     14  C   UNL d   1       1.174  -1.670   0.000  0.00  0.00     0.104 A 
ATOM     15  C   UNL d   1       0.456  -2.076   0.000  0.00  0.00     0.014 A 
ATOM     16  C   UNL d   1       0.451  -2.894   0.000  0.00  0.00     0.012 A 
ATOM     17  C   UNL d   1       1.158  -3.312   0.000  0.00  0.00     0.058 A 
ATOM     18  C   UNL d   1       1.876  -2.905   0.000  0.00  0.00     0.012 A 
ATOM     19 CL   UNL d   1       1.158  -4.141   0.000  0.00  0.00    -0.082 Cl
ATOM     20  C   UNL d   1       1.876  -2.076   0.000  0.00  0.00     0.014 A 
ENDBRANCH  11  14
ENDBRANCH   1  11
TORSDOF 2
