REMARK  3 active torsions:
REMARK  status: ('A' for Active; 'I' for Inactive)
REMARK    1  A    between atoms: C_11  and  N_3 
REMARK    2  A    between atoms: C_10  and  N_6 
REMARK    3  A    between atoms: C_9  and  C_7 
ROOT
ATOM      1  C   UNL d   1      -0.784   0.000   0.000  0.00  0.00     0.106 A 
ATOM      2  C   UNL d   1      -0.414   0.756   0.000  0.00  0.00     0.186 A 
ATOM      3  N   UNL d   1      -1.755   0.946   0.000  0.00  0.00    -0.240 N 
ATOM      4  C   UNL d   1      -1.034   1.315   0.000  0.00  0.00     0.292 A 
ATOM      5  C   UNL d   1      -1.594   0.114   0.000  0.00  0.00     0.271 A 
ATOM      6  N   UNL d   1       0.553  -0.152   0.000  0.00  0.00    -0.211 N 
ATOM      7  C   UNL d   1      -0.177  -0.553   0.000  0.00  0.00     0.117 A 
ATOM      8  O   UNL d   1       0.383   0.655   0.000  0.00  0.00    -0.223 OA
ATOM      9  O   UNL d   1      -2.179  -0.468   0.000  0.00  0.00    -0.266 OA
ATOM     10  O   UNL d   1      -0.920   2.150   0.000  0.00  0.00    -0.264 OA
ENDROOT
BRANCH   6  11
ATOM     11  C   UNL d   1       1.303  -0.496   0.000  0.00  0.00     0.088 A 
ATOM     12  C   UNL d   1       1.366  -1.328   0.000  0.00  0.00     0.021 A 
ATOM     13  C   UNL d   1       2.109  -1.692   0.000  0.00  0.00     0.013 A 
ATOM     14  C   UNL d   1       2.808  -1.218   0.000  0.00  0.00     0.058 A 
ATOM     15  C   UNL d   1       2.735  -0.383   0.000  0.00  0.00     0.013 A 
ATOM     16 CL   UNL d   1       3.542  -1.556   0.000  0.00  0.00    -0.082 Cl
ATOM     17  C   UNL d   1       1.986  -0.038   0.000  0.00  0.00     0.021 A 
ENDBRANCH   6  11
BRANCH   7  18
ATOM     18  C   UNL d   1      -0.275  -1.369   0.000  0.00  0.00     0.118 A 
ATOM     19  O   UNL d   1       0.307  -1.957   0.000  0.00  0.00    -0.304 OA
ATOM     20  C   UNL d   1      -0.063  -2.697   0.000  0.00  0.00     0.123 A 
ATOM     21  C   UNL d   1      -0.888  -2.542   0.000  0.00  0.00     0.029 A 
ATOM     22  C   UNL d   1      -0.996  -1.746   0.000  0.00  0.00     0.028 A 
ENDBRANCH   7  18
BRANCH   3  23
ATOM     23  C   UNL d   1      -2.425   1.420   0.000  0.00  0.00     0.070 A 
ATOM     24  C   UNL d   1      -2.369   2.248   0.000  0.00  0.00     0.018 A 
ATOM     25  C   UNL d   1      -3.051   2.710   0.000  0.00  0.00     0.002 A 
ATOM     26  C   UNL d   1      -3.782   2.378   0.000  0.00  0.00     0.000 A 
ATOM     27  C   UNL d   1      -3.848   1.534   0.000  0.00  0.00     0.002 A 
ATOM     28  C   UNL d   1      -3.184   1.062   0.000  0.00  0.00     0.018 A 
ENDBRANCH   3  23
TORSDOF 3
