REMARK  5 active torsions:
REMARK  status: ('A' for Active; 'I' for Inactive)
REMARK    1  A    between atoms: C_2  and  N_1 
REMARK    2  A    between atoms: C_5  and  N_1 
REMARK    3  A    between atoms: C_7  and  C_2 
REMARK    4  A    between atoms: C_4  and  O_6 
REMARK    5  A    between atoms: O_6  and  C_8 
ROOT
ATOM      1  C   UNL d   1      -0.036  -0.454   0.000  0.00  0.00     0.020 A 
ATOM      2  C   UNL d   1       1.615  -0.466   0.000  0.00  0.00     0.105 A 
ATOM      3  C   UNL d   1       0.368  -1.175   0.000  0.00  0.00     0.004 A 
ATOM      4  C   UNL d   1       0.368   0.258   0.000  0.00  0.00     0.004 A 
ATOM      5  C   UNL d   1       1.187  -1.175   0.000  0.00  0.00     0.025 A 
ATOM      6  C   UNL d   1       1.187   0.258   0.000  0.00  0.00     0.025 A 
ENDROOT
BRANCH   1   7
ATOM      7  C   UNL d   1      -0.878  -0.454   0.000  0.00  0.00     0.108 C 
BRANCH   7   8
ATOM      8  N   UNL d   1      -1.279   0.273   0.000  0.00  0.00    -0.184 N 
ATOM      9  O   UNL d   1      -0.864   0.985   0.000  0.00  0.00    -0.080 OA
BRANCH   8  10
ATOM     10  C   UNL d   1      -2.101   0.273   0.000  0.00  0.00     0.090 A 
ATOM     11  C   UNL d   1      -2.502  -0.454   0.000  0.00  0.00     0.020 A 
ATOM     12  C   UNL d   1      -3.327  -0.454   0.000  0.00  0.00     0.002 A 
ATOM     13  C   UNL d   1      -3.754   0.273   0.000  0.00  0.00     0.000 A 
ATOM     14  C   UNL d   1      -3.327   0.985   0.000  0.00  0.00     0.002 A 
ATOM     15  C   UNL d   1      -2.502   0.985   0.000  0.00  0.00     0.020 A 
ENDBRANCH   8  10
ENDBRANCH   7   8
ENDBRANCH   1   7
BRANCH   2  16
ATOM     16  O   UNL d   1       2.433  -0.475   0.000  0.00  0.00    -0.260 OA
BRANCH  16  17
ATOM     17  C   UNL d   1       2.849   0.229   0.000  0.00  0.00     0.391 C 
ATOM     18  F   UNL d   1       2.433   0.941   0.000  0.00  0.00    -0.145 F 
ATOM     19  F   UNL d   1       3.668   0.223   0.000  0.00  0.00    -0.145 F 
ENDBRANCH  16  17
ENDBRANCH   2  16
TORSDOF 5
