REMARK  4 active torsions:
REMARK  status: ('A' for Active; 'I' for Inactive)
REMARK    1  A    between atoms: C_2  and  N_1 
REMARK    2  A    between atoms: C_14  and  C_7 
REMARK    3  A    between atoms: O_20  and  C_14 
REMARK    4  A    between atoms: C_23  and  O_20 
ROOT
ATOM      1  C   UNL d   1      -0.424  -0.481   0.000  0.00  0.00     0.105 A 
ATOM      2  C   UNL d   1      -0.881   0.213   0.000  0.00  0.00     0.086 A 
ATOM      3  S   UNL d   1      -0.925  -1.129   0.000  0.00  0.00    -0.069 SA
ATOM      4  C   UNL d   1      -1.668  -0.051   0.000  0.00  0.00     0.013 A 
ATOM      5  C   UNL d   1      -1.690  -0.864   0.000  0.00  0.00     0.031 A 
ATOM      6  C   UNL d   1      -2.382   0.353   0.000  0.00  0.00     0.001 A 
ATOM      7  C   UNL d   1      -2.382  -1.268   0.000  0.00  0.00     0.006 A 
ATOM      8  C   UNL d   1      -3.104  -0.051   0.000  0.00  0.00     0.000 A 
ATOM      9  C   UNL d   1      -3.104  -0.864   0.000  0.00  0.00     0.001 A 
ENDROOT
BRANCH   1  10
ATOM     10  N   UNL d   1       0.412  -0.412   0.000  0.00  0.00    -0.236 N 
ATOM     11  C   UNL d   1       0.886  -1.082   0.000  0.00  0.00     0.266 A 
ATOM     12  C   UNL d   1       1.651  -0.817   0.000  0.00  0.00     0.069 A 
ATOM     13  O   UNL d   1       0.599  -1.872   0.000  0.00  0.00    -0.267 OA
ATOM     14  C   UNL d   1       2.365  -1.224   0.000  0.00  0.00     0.165 A 
ATOM     15  C   UNL d   1       1.651   0.020   0.000  0.00  0.00     0.069 A 
ATOM     16  C   UNL d   1       3.084  -0.817   0.000  0.00  0.00     0.006 A 
ATOM     17  O   UNL d   1       2.112  -0.363   0.000  0.00  0.00    -0.341 OA
ATOM     18  C   UNL d   1       3.084   0.020   0.000  0.00  0.00     0.006 A 
ATOM     19  C   UNL d   1       2.365   0.424   0.000  0.00  0.00     0.165 A 
ATOM     20  C   UNL d   1       0.886   0.263   0.000  0.00  0.00     0.266 A 
ATOM     21  O   UNL d   1       0.665   0.920   0.000  0.00  0.00    -0.267 OA
ENDBRANCH   1  10
BRANCH   2  22
ATOM     22  C   UNL d   1      -0.616   0.999   0.000  0.00  0.00     0.302 C 
ATOM     23  O   UNL d   1      -0.101   1.161   0.000  0.00  0.00    -0.259 OA
BRANCH  22  24
ATOM     24  O   UNL d   1      -1.190   1.619   0.000  0.00  0.00    -0.271 OA
BRANCH  24  25
ATOM     25  C   UNL d   1      -1.973   1.425   0.000  0.00  0.00     0.126 C 
ATOM     26  C   UNL d   1      -2.530   2.051   0.000  0.00  0.00     0.029 C 
ENDBRANCH  24  25
ENDBRANCH  22  24
ENDBRANCH   2  22
TORSDOF 4
