REMARK  3 active torsions:
REMARK  status: ('A' for Active; 'I' for Inactive)
REMARK    1  A    between atoms: C_3  and  C_1 
REMARK       I    between atoms: N_4  and  C_1 
REMARK    2  A    between atoms: N_2  and  C_7 
REMARK    3  A    between atoms: C_16  and  N_4 
ROOT
ATOM      1  C   UNL d   1       0.243  -0.983   0.000  0.00  0.00     0.064 A 
ATOM      2  C   UNL d   1      -0.180  -1.696   0.000  0.00  0.00     0.019 A 
ATOM      3  C   UNL d   1      -0.180  -0.266   0.000  0.00  0.00     0.019 A 
ATOM      4  C   UNL d   1      -1.418  -0.983   0.000  0.00  0.00     0.085 A 
ATOM      5  C   UNL d   1      -1.006  -1.696   0.000  0.00  0.00     0.021 A 
ATOM      6  C   UNL d   1      -1.006  -0.266   0.000  0.00  0.00     0.021 A 
ENDROOT
BRANCH   4   7
ATOM      7  N   UNL d   1      -2.243  -0.983   0.000  0.00  0.00    -0.208 NA
ATOM      8  C   UNL d   1      -2.655  -0.278   0.000  0.00  0.00     0.285 C 
ATOM      9  O   UNL d   1      -3.481  -0.278   0.000  0.00  0.00    -0.265 OA
BRANCH   8  10
ATOM     10  C   UNL d   1      -2.243   0.435   0.000  0.00  0.00     0.087 A 
ATOM     11  S   UNL d   1      -2.489   1.217   0.000  0.00  0.00    -0.082 SA
ATOM     12  C   UNL d   1      -1.831   1.699   0.000  0.00  0.00     0.036 A 
ATOM     13  C   UNL d   1      -1.157   1.217   0.000  0.00  0.00     0.008 A 
ATOM     14  C   UNL d   1      -1.418   0.435   0.000  0.00  0.00     0.012 A 
ENDBRANCH   8  10
ENDBRANCH   4   7
BRANCH   1  15
ATOM     15  N   UNL d   1       1.069  -0.983   0.000  0.00  0.00    -0.301 N 
ATOM     16  C   UNL d   1       1.481  -0.278   0.000  0.00  0.00     0.100 A 
ATOM     17  C   UNL d   1       2.306  -0.278   0.000  0.00  0.00     0.100 A 
ATOM     18  N   UNL d   1       2.719  -0.983   0.000  0.00  0.00    -0.299 N 
ATOM     19  C   UNL d   1       2.306  -1.696   0.000  0.00  0.00     0.100 A 
ATOM     20  C   UNL d   1       3.543  -0.983   0.000  0.00  0.00     0.100 C 
ATOM     21  C   UNL d   1       1.481  -1.696   0.000  0.00  0.00     0.100 A 
ENDBRANCH   1  15
TORSDOF 3
