REMARK  4 active torsions:
REMARK  status: ('A' for Active; 'I' for Inactive)
REMARK    1  A    between atoms: C_2  and  S_1 
REMARK    2  A    between atoms: N_3  and  S_1 
REMARK    3  A    between atoms: C_12  and  N_3 
REMARK    4  A    between atoms: N_4  and  C_8 
ROOT
ATOM      1  C   UNL d   1       1.236   0.432   0.000  0.00  0.00     0.064 A 
ATOM      2  C   UNL d   1       0.420  -1.000   0.000  0.00  0.00     0.094 A 
ATOM      3  C   UNL d   1       0.411   0.432   0.000  0.00  0.00     0.019 A 
ATOM      4  C   UNL d   1       1.653  -0.281   0.000  0.00  0.00     0.019 A 
ATOM      5  C   UNL d   1       0.003  -0.293   0.000  0.00  0.00     0.021 A 
ATOM      6  C   UNL d   1       1.245  -0.991   0.000  0.00  0.00     0.021 A 
ENDROOT
BRANCH   2   7
ATOM      7  N   UNL d   1       0.012  -1.704   0.000  0.00  0.00    -0.158 NA
BRANCH   7   8
ATOM      8  S   UNL d   1      -0.813  -1.704   0.000  0.00  0.00     0.291 S 
ATOM      9  O   UNL d   1      -0.813  -0.882   0.000  0.00  0.00    -0.198 OA
ATOM     10  O   UNL d   1      -0.813  -2.523   0.000  0.00  0.00    -0.198 OA
BRANCH   8  11
ATOM     11  C   UNL d   1      -1.629  -1.704   0.000  0.00  0.00     0.135 A 
ATOM     12  S   UNL d   1      -2.100  -2.369   0.000  0.00  0.00    -0.073 SA
ATOM     13  C   UNL d   1      -2.898  -2.115   0.000  0.00  0.00     0.036 A 
ATOM     14  C   UNL d   1      -2.889  -1.318   0.000  0.00  0.00     0.008 A 
ATOM     15  C   UNL d   1      -2.136  -1.037   0.000  0.00  0.00     0.020 A 
ENDBRANCH   8  11
ENDBRANCH   7   8
ENDBRANCH   2   7
BRANCH   1  16
ATOM     16  N   UNL d   1       1.644   1.148   0.000  0.00  0.00    -0.304 N 
ATOM     17  C   UNL d   1       2.469   1.148   0.000  0.00  0.00     0.080 A 
ATOM     18  C   UNL d   1       2.877   1.874   0.000  0.00  0.00     0.019 A 
ATOM     19  C   UNL d   1       2.457   2.590   0.000  0.00  0.00     0.003 A 
ATOM     20  C   UNL d   1       1.635   2.575   0.000  0.00  0.00     0.019 A 
ATOM     21  C   UNL d   1       1.224   1.849   0.000  0.00  0.00     0.080 A 
ENDBRANCH   1  16
TORSDOF 4
