REMARK  5 active torsions:
REMARK  status: ('A' for Active; 'I' for Inactive)
REMARK    1  A    between atoms: C_11  and  N_1 
REMARK    2  A    between atoms: S_8  and  C_4 
REMARK    3  A    between atoms: C_6  and  S_8 
REMARK    4  A    between atoms: C_9  and  C_7 
REMARK    5  A    between atoms: N_10  and  C_13 
ROOT
ATOM      1  N   UNL d   1       0.374   0.334   0.000  0.00  0.00    -0.241 N 
ATOM      2  C   UNL d   1       0.828   1.021   0.000  0.00  0.00     0.268 A 
ATOM      3  C   UNL d   1       0.875  -0.305   0.000  0.00  0.00     0.273 A 
ATOM      4  C   UNL d   1       1.657  -0.015   0.000  0.00  0.00     0.092 A 
ATOM      5  C   UNL d   1       1.613   0.803   0.000  0.00  0.00     0.072 A 
ATOM      6  O   UNL d   1       0.567   1.805   0.000  0.00  0.00    -0.267 OA
ATOM      7  O   UNL d   1       0.657  -1.093   0.000  0.00  0.00    -0.266 OA
ENDROOT
BRANCH   1   8
ATOM      8  C   UNL d   1      -0.454   0.334   0.000  0.00  0.00     0.070 A 
ATOM      9  C   UNL d   1      -0.857  -0.374   0.000  0.00  0.00     0.019 A 
ATOM     10  C   UNL d   1      -1.700  -0.374   0.000  0.00  0.00     0.019 A 
ATOM     11  C   UNL d   1      -2.103   0.334   0.000  0.00  0.00     0.064 A 
ATOM     12  C   UNL d   1      -1.685   1.064   0.000  0.00  0.00     0.019 A 
ATOM     13  C   UNL d   1      -0.857   1.046   0.000  0.00  0.00     0.019 A 
BRANCH  11  14
ATOM     14  N   UNL d   1      -2.921   0.323   0.000  0.00  0.00    -0.300 N 
ATOM     15  C   UNL d   1      -3.357   1.042   0.000  0.00  0.00     0.107 A 
ATOM     16  C   UNL d   1      -4.185   1.014   0.000  0.00  0.00     0.142 A 
ATOM     17  O   UNL d   1      -4.595   0.301   0.000  0.00  0.00    -0.300 OA
ATOM     18  C   UNL d   1      -4.159  -0.418   0.000  0.00  0.00     0.142 A 
ATOM     19  C   UNL d   1      -3.324  -0.392   0.000  0.00  0.00     0.107 A 
ENDBRANCH  11  14
ENDBRANCH   1   8
BRANCH   4  20
ATOM     20  S   UNL d   1       2.358  -0.451   0.000  0.00  0.00    -0.063 SA
BRANCH  20  21
ATOM     21  C   UNL d   1       3.095  -0.076   0.000  0.00  0.00     0.117 A 
ATOM     22  C   UNL d   1       3.792  -0.523   0.000  0.00  0.00     0.088 A 
ATOM     23  C   UNL d   1       4.515  -0.145   0.000  0.00  0.00     0.010 A 
ATOM     24  C   UNL d   1       4.559   0.665   0.000  0.00  0.00     0.021 A 
ATOM     25  C   UNL d   1       3.880   1.119   0.000  0.00  0.00     0.100 A 
ATOM     26  N   UNL d   1       3.139   0.737   0.000  0.00  0.00    -0.237 NA
BRANCH  22  27
ATOM     27  C   UNL d   1       3.749  -1.351   0.000  0.00  0.00     0.213 C 
ATOM     28  O   UNL d   1       4.446  -1.791   0.000  0.00  0.00    -0.644 OA
ATOM     29  O   UNL d   1       3.011  -1.726   0.000  0.00  0.00    -0.644 OA
ENDBRANCH  22  27
ENDBRANCH  20  21
ENDBRANCH   4  20
TORSDOF 5
