REMARK  4 active torsions:
REMARK  status: ('A' for Active; 'I' for Inactive)
REMARK    1  A    between atoms: N_7  and  C_1 
REMARK    2  A    between atoms: N_8  and  C_4 
REMARK    3  A    between atoms: N_11  and  C_5 
REMARK    4  A    between atoms: C_13  and  N_8 
ROOT
ATOM      1  C   UNL d   1       4.400  -0.418   0.000  0.00  0.00     0.201 A 
ATOM      2  N   UNL d   1       3.274   0.492   0.000  0.00  0.00    -0.038 NA
ATOM      3  N   UNL d   1       3.076  -0.924   0.000  0.00  0.00    -0.036 NA
ATOM      4  C   UNL d   1       2.764  -0.170   0.000  0.00  0.00     0.753 A 
ATOM      5  C   UNL d   1       4.088   0.354   0.000  0.00  0.00     0.206 A 
ATOM      6  C   UNL d   1       3.895  -1.053   0.000  0.00  0.00     0.227 A 
ATOM      7  N   UNL d   1       4.198  -1.825   0.000  0.00  0.00    -0.125 N 
ENDROOT
BRANCH   4   8
ATOM      8  N   UNL d   1       1.950  -0.032   0.000  0.00  0.00    -0.059 NA
BRANCH   8   9
ATOM      9  C   UNL d   1       1.435  -0.680   0.000  0.00  0.00     0.100 A 
ATOM     10  C   UNL d   1       0.612  -0.570   0.000  0.00  0.00     0.020 A 
ATOM     11  C   UNL d   1       0.097  -1.200   0.000  0.00  0.00     0.008 A 
ATOM     12  C   UNL d   1       0.386  -1.973   0.000  0.00  0.00     0.035 A 
ATOM     13  C   UNL d   1       1.200  -2.101   0.000  0.00  0.00     0.008 A 
ATOM     14 BR   UNL d   1      -0.133  -2.626   0.000  0.00  0.00    -0.049 Br
ATOM     15  C   UNL d   1       1.715  -1.453   0.000  0.00  0.00     0.020 A 
ENDBRANCH   8   9
ENDBRANCH   4   8
BRANCH   5  16
ATOM     16  N   UNL d   1       4.621   1.016   0.000  0.00  0.00    -0.222 NA
ATOM     17  C   UNL d   1       4.308   1.789   0.000  0.00  0.00     0.121 C 
ENDBRANCH   5  16
BRANCH   1  18
ATOM     18  N   UNL d   1       5.242  -0.529   0.000  0.00  0.00    -0.107 N 
ATOM     19  O   UNL d   1       5.725   0.133   0.000  0.00  0.00    -0.531 OA
ATOM     20  O   UNL d   1       5.550  -1.274   0.000  0.00  0.00    -0.531 OA
ENDBRANCH   1  18
TORSDOF 4
