REMARK  4 active torsions:
REMARK  status: ('A' for Active; 'I' for Inactive)
REMARK    1  A    between atoms: C_5  and  C_4 
REMARK    2  A    between atoms: C_6  and  C_5 
REMARK       I    between atoms: N_11  and  C_6 
REMARK    3  A    between atoms: C_9  and  C_10 
REMARK    4  A    between atoms: C_14  and  N_11 
ROOT
ATOM      1  C   UNL d   1      -0.756  -0.441   0.000  0.00  0.00     0.074 C 
ENDROOT
BRANCH   1   2
ATOM      2  C   UNL d   1      -1.463  -0.041   0.000  0.00  0.00     0.092 A 
ATOM      3  C   UNL d   1      -1.463   0.790   0.000  0.00  0.00     0.285 A 
ATOM      4  N   UNL d   1      -2.185   1.207   0.000  0.00  0.00    -0.207 NA
ATOM      5  O   UNL d   1      -0.756   1.207   0.000  0.00  0.00    -0.265 OA
ATOM      6  C   UNL d   1      -2.882   0.790   0.000  0.00  0.00     0.091 A 
ATOM      7  C   UNL d   1      -2.882  -0.041   0.000  0.00  0.00     0.047 A 
ATOM      8  C   UNL d   1      -3.607   1.207   0.000  0.00  0.00     0.020 A 
ATOM      9  S   UNL d   1      -2.185  -0.441   0.000  0.00  0.00    -0.080 SA
ATOM     10  C   UNL d   1      -3.597  -0.434   0.000  0.00  0.00     0.008 A 
ATOM     11  C   UNL d   1      -4.325  -0.041   0.000  0.00  0.00     0.001 A 
ATOM     12  C   UNL d   1      -4.325   0.790   0.000  0.00  0.00     0.002 A 
ENDBRANCH   1   2
BRANCH   1  13
ATOM     13  C   UNL d   1      -0.051  -0.041   0.000  0.00  0.00     0.280 C 
ATOM     14  N   UNL d   1       0.660  -0.451   0.000  0.00  0.00    -0.208 NA
ATOM     15  O   UNL d   1      -0.051   0.776   0.000  0.00  0.00    -0.265 OA
BRANCH  14  16
ATOM     16  C   UNL d   1       1.368  -0.041   0.000  0.00  0.00     0.085 A 
ATOM     17  C   UNL d   1       2.092  -0.451   0.000  0.00  0.00     0.025 A 
ATOM     18  C   UNL d   1       2.790  -0.024   0.000  0.00  0.00     0.066 A 
ATOM     19  C   UNL d   1       2.790   0.766   0.000  0.00  0.00     0.006 A 
ATOM     20  C   UNL d   1       2.075   1.200   0.000  0.00  0.00     0.002 A 
ATOM     21  C   UNL d   1       1.368   0.776   0.000  0.00  0.00     0.019 A 
BRANCH  18  22
ATOM     22  C   UNL d   1       3.511  -0.393   0.000  0.00  0.00     0.211 C 
ATOM     23  O   UNL d   1       4.216   0.027   0.000  0.00  0.00    -0.644 OA
ATOM     24  O   UNL d   1       3.511  -1.214   0.000  0.00  0.00    -0.644 OA
ENDBRANCH  18  22
ENDBRANCH  14  16
ENDBRANCH   1  13
TORSDOF 4
