REMARK  4 active torsions:
REMARK  status: ('A' for Active; 'I' for Inactive)
REMARK    1  A    between atoms: N_2  and  C_1 
REMARK    2  A    between atoms: N_4  and  C_1 
REMARK       I    between atoms: C_3  and  N_2 
REMARK    3  A    between atoms: C_6  and  C_3 
REMARK    4  A    between atoms: C_9  and  N_5 
ROOT
ATOM      1  N   UNL d   1      -0.163   0.570   0.000  0.00  0.00    -0.278 N 
ATOM      2  N   UNL d   1       1.286  -0.207   0.000  0.00  0.00    -0.301 N 
ATOM      3  C   UNL d   1       0.543   1.005   0.000  0.00  0.00     0.101 A 
ATOM      4  C   UNL d   1      -0.149  -0.258   0.000  0.00  0.00     0.101 A 
ATOM      5  C   UNL d   1       1.266   0.608   0.000  0.00  0.00     0.100 A 
ATOM      6  C   UNL d   1       0.574  -0.652   0.000  0.00  0.00     0.100 A 
ENDROOT
BRANCH   1   7
ATOM      7  C   UNL d   1      -0.882   0.974   0.000  0.00  0.00     0.209 C 
ATOM      8  S   UNL d   1      -0.882   1.789   0.000  0.00  0.00    -0.038 SA
BRANCH   7   9
ATOM      9  N   UNL d   1      -1.575   0.540   0.000  0.00  0.00    -0.179 NA
ATOM     10  C   UNL d   1      -2.291   0.923   0.000  0.00  0.00     0.287 C 
ATOM     11  O   UNL d   1      -2.278   1.738   0.000  0.00  0.00    -0.265 OA
BRANCH  10  12
ATOM     12  C   UNL d   1      -2.990   0.516   0.000  0.00  0.00     0.087 A 
ATOM     13  S   UNL d   1      -3.051  -0.299   0.000  0.00  0.00    -0.082 SA
ATOM     14  C   UNL d   1      -3.870  -0.513   0.000  0.00  0.00     0.036 A 
ATOM     15  C   UNL d   1      -4.294   0.204   0.000  0.00  0.00     0.008 A 
ATOM     16  C   UNL d   1      -3.785   0.832   0.000  0.00  0.00     0.012 A 
ENDBRANCH  10  12
ENDBRANCH   7   9
ENDBRANCH   1   7
BRANCH   2  17
ATOM     17  C   UNL d   1       2.010  -0.601   0.000  0.00  0.00     0.064 A 
ATOM     18  C   UNL d   1       2.719  -0.166   0.000  0.00  0.00     0.020 A 
ATOM     19  C   UNL d   1       3.435  -0.570   0.000  0.00  0.00     0.031 A 
ATOM     20  C   UNL d   1       3.462  -1.399   0.000  0.00  0.00     0.140 A 
ATOM     21  C   UNL d   1       2.753  -1.833   0.000  0.00  0.00     0.031 A 
ATOM     22  F   UNL d   1       4.185  -1.782   0.000  0.00  0.00    -0.204 F 
ATOM     23  C   UNL d   1       2.026  -1.426   0.000  0.00  0.00     0.020 A 
ENDBRANCH   2  17
TORSDOF 4
