REMARK  4 active torsions:
REMARK  status: ('A' for Active; 'I' for Inactive)
REMARK    1  A    between atoms: N_2  and  C_1 
REMARK    2  A    between atoms: C_9  and  C_3 
REMARK    3  A    between atoms: O_15  and  C_9 
REMARK    4  A    between atoms: C_18  and  O_15 
ROOT
ATOM      1  C   UNL d   1       0.010  -0.759   0.000  0.00  0.00     0.105 A 
ATOM      2  C   UNL d   1      -0.661  -0.278   0.000  0.00  0.00     0.086 A 
ATOM      3  S   UNL d   1      -0.255  -1.536   0.000  0.00  0.00    -0.069 SA
ATOM      4  C   UNL d   1      -1.325  -0.759   0.000  0.00  0.00     0.013 A 
ATOM      5  C   UNL d   1      -1.078  -1.536   0.000  0.00  0.00     0.031 A 
ATOM      6  C   UNL d   1      -2.112  -0.512   0.000  0.00  0.00     0.001 C 
ATOM      7  C   UNL d   1      -1.564  -2.203   0.000  0.00  0.00     0.007 C 
ENDROOT
BRANCH   1   8
ATOM      8  N   UNL d   1       0.782  -0.466   0.000  0.00  0.00    -0.236 N 
ATOM      9  C   UNL d   1       1.505  -0.857   0.000  0.00  0.00     0.268 A 
ATOM     10  C   UNL d   1       2.100  -0.278   0.000  0.00  0.00     0.066 A 
ATOM     11  O   UNL d   1       1.624  -1.685   0.000  0.00  0.00    -0.267 OA
ATOM     12  C   UNL d   1       1.732   0.453   0.000  0.00  0.00     0.066 A 
ATOM     13  C   UNL d   1       0.926   0.340   0.000  0.00  0.00     0.268 A 
ATOM     14  O   UNL d   1       0.363   0.926   0.000  0.00  0.00    -0.267 OA
ENDBRANCH   1   8
BRANCH   2  15
ATOM     15  C   UNL d   1      -0.661   0.556   0.000  0.00  0.00     0.302 C 
ATOM     16  O   UNL d   1       0.064   0.970   0.000  0.00  0.00    -0.259 OA
BRANCH  15  17
ATOM     17  O   UNL d   1      -1.366   0.957   0.000  0.00  0.00    -0.271 OA
BRANCH  17  18
ATOM     18  C   UNL d   1      -1.366   1.791   0.000  0.00  0.00     0.126 C 
ATOM     19  C   UNL d   1      -2.082   2.205   0.000  0.00  0.00     0.029 C 
ENDBRANCH  17  18
ENDBRANCH  15  17
ENDBRANCH   2  15
TORSDOF 4
