REMARK  6 active torsions:
REMARK  status: ('A' for Active; 'I' for Inactive)
REMARK    1  A    between atoms: C_9  and  N_1 
REMARK    2  A    between atoms: N_6  and  C_2 
REMARK    3  A    between atoms: C_7  and  C_5 
REMARK    4  A    between atoms: C_13  and  N_6 
REMARK    5  A    between atoms: C_8  and  C_7 
REMARK       I    between atoms: N_10  and  C_8 
REMARK    6  A    between atoms: C_14  and  N_10 
ROOT
ATOM      1  N   UNL d   1       1.824  -0.924   0.000  0.00  0.00    -0.254 N 
ATOM      2  C   UNL d   1       1.900  -0.102   0.000  0.00  0.00     0.182 A 
ATOM      3  C   UNL d   1       1.052  -1.112   0.000  0.00  0.00     0.272 A 
ATOM      4  S   UNL d   1       1.121   0.214   0.000  0.00  0.00    -0.045 SA
ATOM      5  C   UNL d   1       0.597  -0.419   0.000  0.00  0.00     0.093 A 
ATOM      6  O   UNL d   1       0.742  -1.873   0.000  0.00  0.00    -0.266 OA
ENDROOT
BRANCH   5   7
ATOM      7  C   UNL d   1      -0.214  -0.369   0.000  0.00  0.00     0.074 C 
BRANCH   7   8
ATOM      8  C   UNL d   1      -0.571   0.373   0.000  0.00  0.00     0.280 C 
ATOM      9  N   UNL d   1      -1.412   0.412   0.000  0.00  0.00    -0.208 NA
ATOM     10  O   UNL d   1      -0.129   1.039   0.000  0.00  0.00    -0.265 OA
BRANCH   9  11
ATOM     11  C   UNL d   1      -1.847  -0.277   0.000  0.00  0.00     0.085 A 
ATOM     12  C   UNL d   1      -2.678  -0.241   0.000  0.00  0.00     0.019 A 
ATOM     13  C   UNL d   1      -3.133  -0.940   0.000  0.00  0.00     0.002 A 
ATOM     14  C   UNL d   1      -2.741  -1.666   0.000  0.00  0.00     0.000 A 
ATOM     15  C   UNL d   1      -1.910  -1.705   0.000  0.00  0.00     0.002 A 
ATOM     16  C   UNL d   1      -1.464  -1.013   0.000  0.00  0.00     0.019 A 
ENDBRANCH   9  11
ENDBRANCH   7   8
ENDBRANCH   5   7
BRANCH   1  17
ATOM     17  C   UNL d   1       2.438  -1.455   0.000  0.00  0.00     0.069 A 
ATOM     18  C   UNL d   1       2.269  -2.269   0.000  0.00  0.00     0.018 A 
ATOM     19  C   UNL d   1       2.889  -2.823   0.000  0.00  0.00     0.002 A 
ATOM     20  C   UNL d   1       3.671  -2.556   0.000  0.00  0.00     0.000 A 
ATOM     21  C   UNL d   1       3.839  -1.742   0.000  0.00  0.00     0.002 A 
ATOM     22  C   UNL d   1       3.219  -1.201   0.000  0.00  0.00     0.018 A 
ENDBRANCH   1  17
BRANCH   2  23
ATOM     23  N   UNL d   1       2.563   0.373   0.000  0.00  0.00    -0.222 NA
BRANCH  23  24
ATOM     24  C   UNL d   1       2.494   1.187   0.000  0.00  0.00     0.084 A 
ATOM     25  C   UNL d   1       3.170   1.659   0.000  0.00  0.00     0.019 A 
ATOM     26  C   UNL d   1       3.091   2.490   0.000  0.00  0.00     0.002 A 
ATOM     27  C   UNL d   1       2.358   2.827   0.000  0.00  0.00     0.000 A 
ATOM     28  C   UNL d   1       1.676   2.352   0.000  0.00  0.00     0.002 A 
ATOM     29  C   UNL d   1       1.745   1.530   0.000  0.00  0.00     0.019 A 
ENDBRANCH  23  24
ENDBRANCH   2  23
TORSDOF 6
