REMARK  5 active torsions:
REMARK  status: ('A' for Active; 'I' for Inactive)
REMARK    1  A    between atoms: C_2  and  N_1 
REMARK       I    between atoms: C_3  and  N_1 
REMARK    2  A    between atoms: N_7  and  C_2 
REMARK    3  A    between atoms: C_4  and  C_3 
REMARK    4  A    between atoms: N_5  and  C_9 
REMARK    5  A    between atoms: C_17  and  N_7 
ROOT
ATOM      1  C   UNL d   1       2.055   0.299   0.000  0.00  0.00     0.064 A 
ATOM      2  C   UNL d   1       2.039  -0.524   0.000  0.00  0.00     0.019 A 
ATOM      3  C   UNL d   1       1.333   0.722   0.000  0.00  0.00     0.019 A 
ATOM      4  C   UNL d   1       0.608  -0.507   0.000  0.00  0.00     0.084 A 
ATOM      5  C   UNL d   1       0.608   0.319   0.000  0.00  0.00     0.021 A 
ATOM      6  C   UNL d   1       1.330  -0.927   0.000  0.00  0.00     0.021 A 
ENDROOT
BRANCH   4   7
ATOM      7  N   UNL d   1      -0.091  -0.910   0.000  0.00  0.00    -0.217 NA
BRANCH   7   8
ATOM      8  C   UNL d   1      -0.806  -0.497   0.000  0.00  0.00     0.224 C 
ATOM      9  S   UNL d   1      -0.806   0.319   0.000  0.00  0.00    -0.037 SA
BRANCH   8  10
ATOM     10  N   UNL d   1      -1.528  -0.927   0.000  0.00  0.00    -0.178 NA
ATOM     11  C   UNL d   1      -2.227  -0.524   0.000  0.00  0.00     0.287 C 
ATOM     12  O   UNL d   1      -2.227   0.299   0.000  0.00  0.00    -0.265 OA
BRANCH  11  13
ATOM     13  C   UNL d   1      -2.929  -0.927   0.000  0.00  0.00     0.087 A 
ATOM     14  S   UNL d   1      -3.678  -0.588   0.000  0.00  0.00    -0.082 SA
ATOM     15  C   UNL d   1      -4.248  -1.209   0.000  0.00  0.00     0.036 A 
ATOM     16  C   UNL d   1      -3.829  -1.908   0.000  0.00  0.00     0.008 A 
ATOM     17  C   UNL d   1      -3.023  -1.756   0.000  0.00  0.00     0.012 A 
ENDBRANCH  11  13
ENDBRANCH   8  10
ENDBRANCH   7   8
ENDBRANCH   4   7
BRANCH   1  18
ATOM     18  N   UNL d   1       2.764   0.695   0.000  0.00  0.00    -0.300 N 
ATOM     19  C   UNL d   1       3.469   0.279   0.000  0.00  0.00     0.107 A 
ATOM     20  C   UNL d   1       4.195   0.672   0.000  0.00  0.00     0.142 A 
ATOM     21  O   UNL d   1       4.215   1.491   0.000  0.00  0.00    -0.300 OA
ATOM     22  C   UNL d   1       3.510   1.921   0.000  0.00  0.00     0.142 A 
ATOM     23  C   UNL d   1       2.781   1.528   0.000  0.00  0.00     0.107 A 
ENDBRANCH   1  18
TORSDOF 5
