REMARK  4 active torsions:
REMARK  status: ('A' for Active; 'I' for Inactive)
REMARK    1  A    between atoms: C_6  and  C_1 
REMARK       I    between atoms: N_8  and  C_6 
REMARK    2  A    between atoms: C_17  and  N_8 
REMARK    3  A    between atoms: C_9  and  C_17 
REMARK    4  A    between atoms: O_18  and  C_12 
ROOT
ATOM      1  C   UNL d   1       5.905  -2.994   0.000  0.00  0.00     0.121 A 
ATOM      2  C   UNL d   1       5.905  -3.809   0.000  0.00  0.00     0.305 A 
ATOM      3  O   UNL d   1       5.189  -4.229   0.000  0.00  0.00    -0.271 OA
ATOM      4  C   UNL d   1       5.194  -2.574   0.000  0.00  0.00     0.012 A 
ATOM      5  C   UNL d   1       4.478  -3.809   0.000  0.00  0.00     0.125 A 
ATOM      6  C   UNL d   1       4.478  -2.994   0.000  0.00  0.00     0.025 A 
ATOM      7  O   UNL d   1       6.624  -4.229   0.000  0.00  0.00    -0.259 OA
ATOM      8  C   UNL d   1       3.772  -4.221   0.000  0.00  0.00     0.117 A 
ATOM      9  C   UNL d   1       3.772  -2.574   0.000  0.00  0.00     0.002 A 
ATOM     10  C   UNL d   1       3.048  -2.982   0.000  0.00  0.00     0.002 A 
ATOM     11  C   UNL d   1       3.048  -3.809   0.000  0.00  0.00     0.026 A 
ENDROOT
BRANCH   1  12
ATOM     12  C   UNL d   1       6.624  -2.595   0.000  0.00  0.00     0.284 C 
ATOM     13  N   UNL d   1       7.423  -2.799   0.000  0.00  0.00    -0.204 NA
ATOM     14  O   UNL d   1       6.637  -1.763   0.000  0.00  0.00    -0.265 OA
BRANCH  13  15
ATOM     15  C   UNL d   1       7.635  -3.597   0.000  0.00  0.00     0.127 C 
BRANCH  15  16
ATOM     16  C   UNL d   1       8.433  -3.821   0.000  0.00  0.00     0.119 A 
ATOM     17  O   UNL d   1       8.720  -4.591   0.000  0.00  0.00    -0.304 OA
ATOM     18  C   UNL d   1       9.535  -4.545   0.000  0.00  0.00     0.123 A 
ATOM     19  C   UNL d   1       9.747  -3.742   0.000  0.00  0.00     0.029 A 
ATOM     20  C   UNL d   1       9.069  -3.297   0.000  0.00  0.00     0.028 A 
ENDBRANCH  15  16
ENDBRANCH  13  15
ENDBRANCH   1  12
BRANCH   8  21
ATOM     21  O   UNL d   1       3.772  -5.040   0.000  0.00  0.00    -0.326 OA
ATOM     22  C   UNL d   1       4.478  -5.456   0.000  0.00  0.00     0.181 C 
ENDBRANCH   8  21
TORSDOF 4
