REMARK  4 active torsions:
REMARK  status: ('A' for Active; 'I' for Inactive)
REMARK    1  A    between atoms: C_6  and  N_1 
REMARK    2  A    between atoms: N_8  and  C_4 
REMARK    3  A    between atoms: N_7  and  C_10 
REMARK    4  A    between atoms: C_16  and  N_8 
ROOT
ATOM      1  N   UNL d   1      -1.781  -1.068   0.000  0.00  0.00    -0.238 N 
ATOM      2  C   UNL d   1      -1.546  -0.255   0.000  0.00  0.00     0.269 A 
ATOM      3  C   UNL d   1      -1.110  -1.533   0.000  0.00  0.00     0.285 A 
ATOM      4  C   UNL d   1      -0.436  -1.020   0.000  0.00  0.00     0.142 A 
ATOM      5  C   UNL d   1      -0.733  -0.255   0.000  0.00  0.00     0.085 A 
ATOM      6  O   UNL d   1      -2.014   0.413   0.000  0.00  0.00    -0.267 OA
ATOM      7  O   UNL d   1      -1.110  -2.362   0.000  0.00  0.00    -0.265 OA
ENDROOT
BRANCH   4   8
ATOM      8  N   UNL d   1       0.352  -1.229   0.000  0.00  0.00    -0.241 NA
BRANCH   8   9
ATOM      9  C   UNL d   1       0.929  -0.649   0.000  0.00  0.00     0.082 A 
ATOM     10  C   UNL d   1       0.710   0.152   0.000  0.00  0.00     0.021 A 
ATOM     11  C   UNL d   1       1.278   0.752   0.000  0.00  0.00     0.019 A 
ATOM     12  C   UNL d   1       2.091   0.539   0.000  0.00  0.00     0.064 A 
ATOM     13  C   UNL d   1       2.323  -0.261   0.000  0.00  0.00     0.019 A 
ATOM     14  C   UNL d   1       1.733  -0.852   0.000  0.00  0.00     0.021 A 
BRANCH  12  15
ATOM     15  N   UNL d   1       2.672   1.120   0.000  0.00  0.00    -0.300 N 
ATOM     16  C   UNL d   1       2.452   1.907   0.000  0.00  0.00     0.107 A 
ATOM     17  C   UNL d   1       3.023   2.494   0.000  0.00  0.00     0.142 A 
ATOM     18  O   UNL d   1       3.824   2.281   0.000  0.00  0.00    -0.300 OA
ATOM     19  C   UNL d   1       4.056   1.481   0.000  0.00  0.00     0.142 A 
ATOM     20  C   UNL d   1       3.469   0.907   0.000  0.00  0.00     0.107 A 
ENDBRANCH  12  15
ENDBRANCH   8   9
ENDBRANCH   4   8
BRANCH   1  21
ATOM     21  C   UNL d   1      -2.543  -1.355   0.000  0.00  0.00     0.097 A 
ATOM     22  C   UNL d   1      -3.175  -0.836   0.000  0.00  0.00     0.156 A 
ATOM     23  F   UNL d   1      -3.056  -0.023   0.000  0.00  0.00    -0.203 F 
ATOM     24  C   UNL d   1      -3.950  -1.126   0.000  0.00  0.00     0.031 A 
ATOM     25  C   UNL d   1      -4.082  -1.936   0.000  0.00  0.00     0.002 A 
ATOM     26  C   UNL d   1      -3.443  -2.452   0.000  0.00  0.00     0.002 A 
ATOM     27  C   UNL d   1      -2.672  -2.159   0.000  0.00  0.00     0.020 A 
ENDBRANCH   1  21
TORSDOF 4
