REMARK  5 active torsions:
REMARK  status: ('A' for Active; 'I' for Inactive)
REMARK    1  A    between atoms: C_6  and  N_1 
REMARK    2  A    between atoms: C_7  and  C_2 
REMARK    3  A    between atoms: C_14  and  C_5 
REMARK    4  A    between atoms: C_11  and  C_7 
REMARK    5  A    between atoms: O_26  and  C_23 
ROOT
ATOM      1  N   UNL d   1       0.781  -0.691   0.000  0.00  0.00    -0.250 N 
ATOM      2  C   UNL d   1       1.190   0.571   0.000  0.00  0.00     0.099 A 
ATOM      3  C   UNL d   1       1.618  -0.674   0.000  0.00  0.00     0.305 A 
ATOM      4  C   UNL d   1       1.867   0.065   0.000  0.00  0.00     0.256 A 
ATOM      5  C   UNL d   1       0.519   0.078   0.000  0.00  0.00     0.075 A 
ATOM      6  O   UNL d   1       2.124  -1.336   0.000  0.00  0.00    -0.263 OA
ATOM      7  O   UNL d   1       2.675   0.298   0.000  0.00  0.00    -0.281 OA
ENDROOT
BRANCH   5   8
ATOM      8  C   UNL d   1      -0.259   0.321   0.000  0.00  0.00     0.017 A 
ATOM      9  C   UNL d   1      -0.856  -0.246   0.000  0.00  0.00     0.004 A 
ATOM     10  C   UNL d   1      -1.660   0.010   0.000  0.00  0.00     0.024 A 
ATOM     11  C   UNL d   1      -1.845   0.814   0.000  0.00  0.00     0.094 A 
ATOM     12  C   UNL d   1      -1.232   1.371   0.000  0.00  0.00     0.024 A 
ATOM     13  C   UNL d   1      -0.438   1.125   0.000  0.00  0.00     0.004 A 
BRANCH  11  14
ATOM     14  O   UNL d   1      -2.623   1.060   0.000  0.00  0.00    -0.328 OA
ATOM     15  C   UNL d   1      -3.226   0.502   0.000  0.00  0.00     0.181 C 
ENDBRANCH  11  14
ENDBRANCH   5   8
BRANCH   2  16
ATOM     16  C   UNL d   1       1.190   1.397   0.000  0.00  0.00     0.206 C 
ATOM     17  O   UNL d   1       0.451   1.806   0.000  0.00  0.00    -0.286 OA
BRANCH  16  18
ATOM     18  C   UNL d   1       1.897   1.799   0.000  0.00  0.00     0.069 A 
ATOM     19  S   UNL d   1       2.675   1.465   0.000  0.00  0.00    -0.083 SA
ATOM     20  C   UNL d   1       3.203   2.062   0.000  0.00  0.00     0.035 A 
ATOM     21  C   UNL d   1       2.804   2.779   0.000  0.00  0.00     0.008 A 
ATOM     22  C   UNL d   1       1.974   2.613   0.000  0.00  0.00     0.010 A 
ENDBRANCH  16  18
ENDBRANCH   2  16
BRANCH   1  23
ATOM     23  C   UNL d   1       0.334  -1.391   0.000  0.00  0.00     0.204 A 
ATOM     24  S   UNL d   1      -0.502  -1.391   0.000  0.00  0.00    -0.025 SA
ATOM     25  C   UNL d   1      -0.749  -2.179   0.000  0.00  0.00     0.161 A 
ATOM     26  N   UNL d   1      -0.078  -2.649   0.000  0.00  0.00    -0.137 NA
ATOM     27  N   UNL d   1       0.597  -2.163   0.000  0.00  0.00    -0.122 NA
ENDBRANCH   1  23
TORSDOF 5
