REMARK  5 active torsions:
REMARK  status: ('A' for Active; 'I' for Inactive)
REMARK    1  A    between atoms: N_9  and  C_1 
REMARK    2  A    between atoms: C_12  and  C_2 
REMARK       I    between atoms: C_13  and  N_9 
REMARK    3  A    between atoms: C_11  and  C_14 
REMARK    4  A    between atoms: O_19  and  C_12 
REMARK    5  A    between atoms: C_14  and  C_13 
ROOT
ATOM      1  C   UNL d   1      -1.151  -0.469   0.000  0.00  0.00     0.119 A 
ATOM      2  C   UNL d   1      -1.275   0.363   0.000  0.00  0.00     0.087 A 
ATOM      3  S   UNL d   1      -1.879  -0.858   0.000  0.00  0.00    -0.068 SA
ATOM      4  C   UNL d   1      -2.081   0.474   0.000  0.00  0.00     0.013 A 
ATOM      5  C   UNL d   1      -2.465  -0.272   0.000  0.00  0.00     0.031 A 
ATOM      6  C   UNL d   1      -2.439   1.210   0.000  0.00  0.00     0.001 C 
ATOM      7  C   UNL d   1      -3.279  -0.404   0.000  0.00  0.00     0.007 C 
ENDROOT
BRANCH   1   8
ATOM      8  N   UNL d   1      -0.448  -0.912   0.000  0.00  0.00    -0.201 NA
ATOM      9  C   UNL d   1       0.282  -0.531   0.000  0.00  0.00     0.280 C 
ATOM     10  O   UNL d   1       0.329   0.308   0.000  0.00  0.00    -0.265 OA
BRANCH   9  11
ATOM     11  C   UNL d   1       0.998  -0.982   0.000  0.00  0.00     0.074 C 
BRANCH  11  12
ATOM     12  C   UNL d   1       1.744  -0.609   0.000  0.00  0.00     0.095 A 
ATOM     13  C   UNL d   1       2.457  -0.982   0.000  0.00  0.00     0.287 A 
ATOM     14  N   UNL d   1       3.048  -0.404   0.000  0.00  0.00    -0.181 NA
ATOM     15  O   UNL d   1       2.592  -1.806   0.000  0.00  0.00    -0.265 OA
ATOM     16  C   UNL d   1       2.662   0.332   0.000  0.00  0.00     0.217 A 
ATOM     17  S   UNL d   1       1.845   0.194   0.000  0.00  0.00    -0.042 SA
ATOM     18  N   UNL d   1       3.048   1.078   0.000  0.00  0.00    -0.119 N 
ENDBRANCH  11  12
ENDBRANCH   9  11
ENDBRANCH   1   8
BRANCH   2  19
ATOM     19  C   UNL d   1      -0.723   0.954   0.000  0.00  0.00     0.298 C 
ATOM     20  O   UNL d   1       0.062   0.759   0.000  0.00  0.00    -0.259 OA
BRANCH  19  21
ATOM     21  O   UNL d   1      -0.962   1.731   0.000  0.00  0.00    -0.296 OA
ATOM     22  C   UNL d   1      -1.755   1.918   0.000  0.00  0.00     0.185 C 
ENDBRANCH  19  21
ENDBRANCH   2  19
TORSDOF 5
