REMARK  3 active torsions:
REMARK  status: ('A' for Active; 'I' for Inactive)
REMARK    1  A    between atoms: C_2  and  N_1 
REMARK    2  A    between atoms: C_4  and  N_1 
REMARK    3  A    between atoms: C_3  and  C_2 
ROOT
ATOM      1  N   UNL d   1       0.393  -0.016   0.000  0.00  0.00    -0.182 N 
ATOM      2  O   UNL d   1       0.807   0.700   0.000  0.00  0.00    -0.080 OA
ENDROOT
BRANCH   1   3
ATOM      3  C   UNL d   1       0.807  -0.730   0.000  0.00  0.00     0.133 C 
BRANCH   3   4
ATOM      4  C   UNL d   1       1.629  -0.730   0.000  0.00  0.00     0.120 A 
ATOM      5  O   UNL d   1       2.184  -1.348   0.000  0.00  0.00    -0.304 OA
ATOM      6  C   UNL d   1       2.942  -1.011   0.000  0.00  0.00     0.123 A 
ATOM      7  C   UNL d   1       2.858  -0.185   0.000  0.00  0.00     0.029 A 
ATOM      8  C   UNL d   1       2.050  -0.016   0.000  0.00  0.00     0.028 A 
ENDBRANCH   3   4
ENDBRANCH   1   3
BRANCH   1   9
ATOM      9  C   UNL d   1      -0.447  -0.016   0.000  0.00  0.00     0.090 A 
ATOM     10  C   UNL d   1      -0.843   0.700   0.000  0.00  0.00     0.021 A 
ATOM     11  C   UNL d   1      -1.676   0.700   0.000  0.00  0.00     0.013 A 
ATOM     12  C   UNL d   1      -2.085  -0.016   0.000  0.00  0.00     0.058 A 
ATOM     13  C   UNL d   1      -1.676  -0.730   0.000  0.00  0.00     0.013 A 
ATOM     14 CL   UNL d   1      -2.904  -0.016   0.000  0.00  0.00    -0.082 Cl
ATOM     15  C   UNL d   1      -0.843  -0.730   0.000  0.00  0.00     0.021 A 
ENDBRANCH   1   9
TORSDOF 3
