REMARK  5 active torsions:
REMARK  status: ('A' for Active; 'I' for Inactive)
REMARK    1  A    between atoms: C_10  and  N_1 
REMARK    2  A    between atoms: S_7  and  C_4 
REMARK    3  A    between atoms: C_9  and  C_6 
REMARK    4  A    between atoms: C_8  and  S_7 
REMARK    5  A    between atoms: N_14  and  C_13 
ROOT
ATOM      1  N   UNL d   1      -0.793  -0.618   0.000  0.00  0.00    -0.241 N 
ATOM      2  C   UNL d   1      -1.121  -1.349   0.000  0.00  0.00     0.268 A 
ATOM      3  C   UNL d   1       0.023  -0.664   0.000  0.00  0.00     0.273 A 
ATOM      4  C   UNL d   1       0.212  -1.468   0.000  0.00  0.00     0.091 A 
ATOM      5  C   UNL d   1      -0.502  -1.894   0.000  0.00  0.00     0.072 A 
ATOM      6  O   UNL d   1      -1.930  -1.497   0.000  0.00  0.00    -0.267 OA
ATOM      7  O   UNL d   1       0.555  -0.013   0.000  0.00  0.00    -0.266 OA
ENDROOT
BRANCH   4   8
ATOM      8  S   UNL d   1       0.995  -1.689   0.000  0.00  0.00    -0.082 SA
BRANCH   8   9
ATOM      9  C   UNL d   1       1.610  -1.114   0.000  0.00  0.00     0.035 A 
ATOM     10  C   UNL d   1       2.420  -1.349   0.000  0.00  0.00     0.070 A 
ATOM     11  C   UNL d   1       2.988  -0.754   0.000  0.00  0.00     0.007 A 
ATOM     12  C   UNL d   1       2.760   0.050   0.000  0.00  0.00     0.000 A 
ATOM     13  C   UNL d   1       1.947   0.264   0.000  0.00  0.00     0.001 A 
ATOM     14  C   UNL d   1       1.378  -0.321   0.000  0.00  0.00     0.007 A 
BRANCH  10  15
ATOM     15  C   UNL d   1       2.631  -2.125   0.000  0.00  0.00     0.211 C 
ATOM     16  O   UNL d   1       3.424  -2.330   0.000  0.00  0.00    -0.644 OA
ATOM     17  O   UNL d   1       2.086  -2.737   0.000  0.00  0.00    -0.644 OA
ENDBRANCH  10  15
ENDBRANCH   8   9
ENDBRANCH   4   8
BRANCH   1  18
ATOM     18  C   UNL d   1      -1.296   0.079   0.000  0.00  0.00     0.070 A 
ATOM     19  C   UNL d   1      -2.102   0.000   0.000  0.00  0.00     0.019 A 
ATOM     20  C   UNL d   1      -2.575   0.684   0.000  0.00  0.00     0.019 A 
ATOM     21  C   UNL d   1      -2.221   1.428   0.000  0.00  0.00     0.064 A 
ATOM     22  C   UNL d   1      -1.398   1.504   0.000  0.00  0.00     0.019 A 
ATOM     23  C   UNL d   1      -0.929   0.830   0.000  0.00  0.00     0.019 A 
BRANCH  21  24
ATOM     24  N   UNL d   1      -2.684   2.099   0.000  0.00  0.00    -0.301 N 
ATOM     25  C   UNL d   1      -3.507   2.023   0.000  0.00  0.00     0.100 C 
ATOM     26  C   UNL d   1      -2.327   2.833   0.000  0.00  0.00     0.100 C 
ENDBRANCH  21  24
ENDBRANCH   1  18
TORSDOF 5
