REMARK  3 active torsions:
REMARK  status: ('A' for Active; 'I' for Inactive)
REMARK    1  A    between atoms: C_2  and  N_1 
REMARK    2  A    between atoms: C_3  and  N_1 
REMARK    3  A    between atoms: C_7  and  C_3 
ROOT
ATOM      1  N   UNL d   1      -0.275  -0.002   0.000  0.00  0.00    -0.184 N 
ATOM      2  O   UNL d   1       0.134   0.719   0.000  0.00  0.00    -0.080 OA
ENDROOT
BRANCH   1   3
ATOM      3  C   UNL d   1      -1.100  -0.002   0.000  0.00  0.00     0.090 A 
ATOM      4  C   UNL d   1      -1.529   0.711   0.000  0.00  0.00     0.018 A 
ATOM      5  C   UNL d   1      -1.133   1.430   0.000  0.00  0.00     0.002 C 
ATOM      6  C   UNL d   1      -2.354   0.711   0.000  0.00  0.00     0.002 A 
ATOM      7  C   UNL d   1      -2.783  -0.015   0.000  0.00  0.00     0.000 A 
ATOM      8  C   UNL d   1      -2.329  -0.728   0.000  0.00  0.00     0.002 A 
ATOM      9  C   UNL d   1      -1.504  -0.713   0.000  0.00  0.00     0.020 A 
ENDBRANCH   1   3
BRANCH   1  10
ATOM     10  C   UNL d   1       0.141  -0.706   0.000  0.00  0.00     0.108 C 
BRANCH  10  11
ATOM     11  C   UNL d   1       0.970  -0.702   0.000  0.00  0.00     0.023 A 
ATOM     12  C   UNL d   1       1.401  -1.414   0.000  0.00  0.00     0.022 A 
ATOM     13  C   UNL d   1       2.219  -1.419   0.000  0.00  0.00     0.099 A 
ATOM     14  N   UNL d   1       2.629  -0.702   0.000  0.00  0.00    -0.242 NA
ATOM     15  C   UNL d   1       2.193   0.018   0.000  0.00  0.00     0.099 A 
ATOM     16  C   UNL d   1       1.373   0.011   0.000  0.00  0.00     0.022 A 
ENDBRANCH  10  11
ENDBRANCH   1  10
TORSDOF 3
