REMARK  4 active torsions:
REMARK  status: ('A' for Active; 'I' for Inactive)
REMARK    1  A    between atoms: C_6  and  C_4 
REMARK    2  A    between atoms: C_9  and  C_6 
REMARK    3  A    between atoms: O_15  and  C_8 
REMARK    4  A    between atoms: O_16  and  C_12 
ROOT
ATOM      1  C   UNL d   1       4.043  -0.817   0.000  0.00  0.00     0.116 A 
ATOM      2  C   UNL d   1       5.001  -1.875   0.000  0.00  0.00     0.003 A 
ATOM      3  C   UNL d   1       4.218  -1.617   0.000  0.00  0.00     0.026 A 
ATOM      4  C   UNL d   1       4.655  -0.254   0.000  0.00  0.00     0.116 A 
ATOM      5  C   UNL d   1       5.443  -0.517   0.000  0.00  0.00     0.026 A 
ATOM      6  C   UNL d   1       5.618  -1.317   0.000  0.00  0.00     0.002 A 
ENDROOT
BRANCH   2   7
ATOM      7  C   UNL d   1       5.176  -2.680   0.000  0.00  0.00     0.009 C 
BRANCH   7   8
ATOM      8  C   UNL d   1       5.956  -2.930   0.000  0.00  0.00     0.062 A 
ATOM      9  C   UNL d   1       6.214  -3.718   0.000  0.00  0.00     0.145 A 
ATOM     10  N   UNL d   1       7.039  -3.718   0.000  0.00  0.00    -0.191 NA
ATOM     11  S   UNL d   1       5.726  -4.380   0.000  0.00  0.00    -0.057 SA
ATOM     12  C   UNL d   1       7.294  -2.930   0.000  0.00  0.00     0.311 A 
ATOM     13  S   UNL d   1       6.627  -2.451   0.000  0.00  0.00    -0.023 SA
ATOM     14  O   UNL d   1       8.081  -2.680   0.000  0.00  0.00    -0.258 OA
ENDBRANCH   7   8
ENDBRANCH   2   7
BRANCH   1  15
ATOM     15  O   UNL d   1       3.255  -0.567   0.000  0.00  0.00    -0.326 OA
ATOM     16  C   UNL d   1       3.080   0.246   0.000  0.00  0.00     0.181 C 
ENDBRANCH   1  15
BRANCH   4  17
ATOM     17  O   UNL d   1       4.489   0.546   0.000  0.00  0.00    -0.326 OA
ATOM     18  C   UNL d   1       5.101   1.100   0.000  0.00  0.00     0.181 C 
ENDBRANCH   4  17
TORSDOF 4
