REMARK  8 active torsions:
REMARK  status: ('A' for Active; 'I' for Inactive)
REMARK    1  A    between atoms: C_9  and  N_1 
REMARK    2  A    between atoms: C_13  and  C_5 
REMARK    3  A    between atoms: C_8  and  C_6 
REMARK    4  A    between atoms: C_7  and  N_11 
REMARK    5  A    between atoms: C_10  and  C_9 
REMARK       I    between atoms: N_11  and  C_10 
REMARK    6  A    between atoms: C_15  and  C_13 
REMARK    7  A    between atoms: C_18  and  C_15 
REMARK    8  A    between atoms: C_20  and  C_18 
ROOT
ATOM      1  N   UNL d   1       6.745  -7.821   0.000  0.00  0.00    -0.230 N 
ATOM      2  C   UNL d   1       7.004  -7.033   0.000  0.00  0.00     0.299 A 
ATOM      3  C   UNL d   1       5.920  -7.821   0.000  0.00  0.00     0.274 A 
ATOM      4  S   UNL d   1       6.332  -6.545   0.000  0.00  0.00    -0.022 SA
ATOM      5  C   UNL d   1       5.670  -7.033   0.000  0.00  0.00     0.090 A 
ATOM      6  O   UNL d   1       7.792  -6.779   0.000  0.00  0.00    -0.259 OA
ATOM      7  O   UNL d   1       5.432  -8.484   0.000  0.00  0.00    -0.266 OA
ENDROOT
BRANCH   1   8
ATOM      8  C   UNL d   1       7.233  -8.484   0.000  0.00  0.00     0.149 C 
BRANCH   8   9
ATOM      9  C   UNL d   1       6.895  -9.242   0.000  0.00  0.00     0.297 C 
ATOM     10  N   UNL d   1       7.379  -9.909   0.000  0.00  0.00    -0.206 NA
ATOM     11  O   UNL d   1       6.070  -9.322   0.000  0.00  0.00    -0.264 OA
BRANCH  10  12
ATOM     12  C   UNL d   1       8.196  -9.818   0.000  0.00  0.00     0.090 A 
ATOM     13  C   UNL d   1       8.680 -10.480   0.000  0.00  0.00     0.082 A 
ATOM     14  C   UNL d   1       9.497 -10.393   0.000  0.00  0.00     0.008 A 
ATOM     15  C   UNL d   1       9.830  -9.634   0.000  0.00  0.00     0.000 A 
ATOM     16  C   UNL d   1       9.334  -8.971   0.000  0.00  0.00     0.002 A 
ATOM     17  C   UNL d   1       8.521  -9.067   0.000  0.00  0.00     0.019 A 
BRANCH  13  18
ATOM     18  C   UNL d   1       8.346 -11.235   0.000  0.00  0.00     0.212 C 
ATOM     19  O   UNL d   1       8.834 -11.906   0.000  0.00  0.00    -0.644 OA
ATOM     20  O   UNL d   1       7.529 -11.323   0.000  0.00  0.00    -0.644 OA
ENDBRANCH  13  18
ENDBRANCH  10  12
ENDBRANCH   8   9
ENDBRANCH   1   8
BRANCH   5  21
ATOM     21  C   UNL d   1       4.882  -6.779   0.000  0.00  0.00     0.011 C 
BRANCH  21  22
ATOM     22  C   UNL d   1       4.707  -5.970   0.000  0.00  0.00     0.001 C 
BRANCH  22  23
ATOM     23  C   UNL d   1       3.927  -5.715   0.000  0.00  0.00     0.000 C 
BRANCH  23  24
ATOM     24  C   UNL d   1       3.756  -4.907   0.000  0.00  0.00     0.000 A 
ATOM     25  C   UNL d   1       2.977  -4.657   0.000  0.00  0.00     0.000 A 
ATOM     26  C   UNL d   1       2.801  -3.852   0.000  0.00  0.00     0.000 A 
ATOM     27  C   UNL d   1       3.414  -3.293   0.000  0.00  0.00     0.000 A 
ATOM     28  C   UNL d   1       4.202  -3.552   0.000  0.00  0.00     0.000 A 
ATOM     29  C   UNL d   1       4.369  -4.356   0.000  0.00  0.00     0.000 A 
ENDBRANCH  23  24
ENDBRANCH  22  23
ENDBRANCH  21  22
ENDBRANCH   5  21
TORSDOF 8
