REMARK  4 active torsions:
REMARK  status: ('A' for Active; 'I' for Inactive)
REMARK    1  A    between atoms: C_5  and  C_2 
REMARK    2  A    between atoms: C_7  and  C_5 
REMARK       I    between atoms: N_9  and  C_7 
REMARK    3  A    between atoms: C_8  and  C_10 
REMARK    4  A    between atoms: C_17  and  N_9 
ROOT
ATOM      1  C   UNL d   1       3.459  -0.453   0.000  0.00  0.00     0.280 C 
ATOM      2  N   UNL d   1       2.748  -0.042   0.000  0.00  0.00    -0.208 NA
ATOM      3  O   UNL d   1       3.459  -1.276   0.000  0.00  0.00    -0.265 OA
ENDROOT
BRANCH   1   4
ATOM      4  C   UNL d   1       4.178  -0.042   0.000  0.00  0.00     0.074 C 
BRANCH   4   5
ATOM      5  C   UNL d   1       4.956  -0.299   0.000  0.00  0.00     0.097 A 
ATOM      6  C   UNL d   1       5.625   0.183   0.000  0.00  0.00     0.288 A 
ATOM      7  N   UNL d   1       6.291  -0.299   0.000  0.00  0.00    -0.163 NA
ATOM      8  O   UNL d   1       5.617   1.006   0.000  0.00  0.00    -0.265 OA
ATOM      9  C   UNL d   1       6.037  -1.085   0.000  0.00  0.00     0.313 A 
ATOM     10  S   UNL d   1       5.214  -1.085   0.000  0.00  0.00    -0.021 SA
ATOM     11  O   UNL d   1       6.515  -1.750   0.000  0.00  0.00    -0.258 OA
ENDBRANCH   4   5
ENDBRANCH   1   4
BRANCH   2  12
ATOM     12  C   UNL d   1       2.162  -0.624   0.000  0.00  0.00     0.085 A 
ATOM     13  C   UNL d   1       2.370  -1.414   0.000  0.00  0.00     0.019 A 
ATOM     14  C   UNL d   1       1.788  -2.000   0.000  0.00  0.00     0.008 A 
ATOM     15  C   UNL d   1       0.985  -1.784   0.000  0.00  0.00     0.065 A 
ATOM     16  C   UNL d   1       0.777  -0.977   0.000  0.00  0.00     0.008 A 
ATOM     17  C   UNL d   1       1.364  -0.403   0.000  0.00  0.00     0.019 A 
BRANCH  15  18
ATOM     18  C   UNL d   1       0.403  -2.362   0.000  0.00  0.00     0.211 C 
ATOM     19  O   UNL d   1       0.615  -3.160   0.000  0.00  0.00    -0.644 OA
ATOM     20  O   UNL d   1      -0.395  -2.150   0.000  0.00  0.00    -0.644 OA
ENDBRANCH  15  18
ENDBRANCH   2  12
TORSDOF 4
