REMARK  3 active torsions:
REMARK  status: ('A' for Active; 'I' for Inactive)
REMARK    1  A    between atoms: C_6  and  C_2 
REMARK    2  A    between atoms: O_7  and  C_6 
REMARK    3  A    between atoms: C_8  and  O_7 
ROOT
ATOM      1  N   UNL d   1       2.168   1.515   0.000  0.00  0.00    -0.224 NA
ATOM      2  C   UNL d   1       2.662   0.855   0.000  0.00  0.00     0.188 A 
ATOM      3  N   UNL d   1       2.168   0.167   0.000  0.00  0.00    -0.224 NA
ATOM      4  C   UNL d   1       1.373   1.238   0.000  0.00  0.00     0.101 A 
ATOM      5  C   UNL d   1       1.373   0.412   0.000  0.00  0.00     0.101 A 
ATOM      6  C   UNL d   1       0.658   1.650   0.000  0.00  0.00     0.021 A 
ATOM      7  C   UNL d   1       0.658   0.000   0.000  0.00  0.00     0.021 A 
ATOM      8  C   UNL d   1       0.000   1.238   0.000  0.00  0.00     0.002 A 
ATOM      9  C   UNL d   1       0.000   0.412   0.000  0.00  0.00     0.002 A 
ENDROOT
BRANCH   2  10
ATOM     10  C   UNL d   1       3.352   1.264   0.000  0.00  0.00     0.161 C 
BRANCH  10  11
ATOM     11  O   UNL d   1       4.066   0.855   0.000  0.00  0.00    -0.302 OA
BRANCH  11  12
ATOM     12  C   UNL d   1       4.891   0.855   0.000  0.00  0.00     0.100 A 
ATOM     13  C   UNL d   1       5.304   1.569   0.000  0.00  0.00     0.026 A 
ATOM     14  C   UNL d   1       6.124   1.569   0.000  0.00  0.00     0.013 A 
ATOM     15  C   UNL d   1       6.541   0.855   0.000  0.00  0.00     0.058 A 
ATOM     16  C   UNL d   1       6.124   0.138   0.000  0.00  0.00     0.013 A 
ATOM     17 CL   UNL d   1       7.361   0.855   0.000  0.00  0.00    -0.082 Cl
ATOM     18  C   UNL d   1       5.304   0.138   0.000  0.00  0.00     0.026 A 
ENDBRANCH  11  12
ENDBRANCH  10  11
ENDBRANCH   2  10
TORSDOF 3
