REMARK  4 active torsions:
REMARK  status: ('A' for Active; 'I' for Inactive)
REMARK    1  A    between atoms: C_7  and  C_1 
REMARK    2  A    between atoms: C_8  and  C_3 
REMARK    3  A    between atoms: C_10  and  C_6 
REMARK    4  A    between atoms: C_9  and  C_8 
ROOT
ATOM      1  C   UNL d   1      -1.468  -1.961   0.000  0.00  0.00     0.293 A 
ATOM      2  N   UNL d   1      -2.299  -1.961   0.000  0.00  0.00    -0.223 N 
ATOM      3  C   UNL d   1      -1.052  -1.234   0.000  0.00  0.00     0.113 A 
ATOM      4  C   UNL d   1      -2.714  -1.234   0.000  0.00  0.00     0.356 A 
ATOM      5  N   UNL d   1      -2.299  -0.506   0.000  0.00  0.00    -0.192 NA
ATOM      6  C   UNL d   1      -1.468  -0.506   0.000  0.00  0.00     0.094 A 
ATOM      7  O   UNL d   1      -3.545  -1.251   0.000  0.00  0.00    -0.244 OA
ATOM      8  O   UNL d   1      -0.658  -2.169   0.000  0.00  0.00    -0.267 OA
ATOM      9  C   UNL d   1      -2.714  -2.667   0.000  0.00  0.00     0.106 C 
ENDROOT
BRANCH   3  10
ATOM     10  C   UNL d   1      -0.221  -1.234   0.000  0.00  0.00     0.207 C 
ATOM     11  O   UNL d   1       0.195  -0.524   0.000  0.00  0.00    -0.286 OA
BRANCH  10  12
ATOM     12  C   UNL d   1       0.195  -1.961   0.000  0.00  0.00     0.069 A 
ATOM     13  S   UNL d   1      -0.052  -2.753   0.000  0.00  0.00    -0.083 SA
ATOM     14  C   UNL d   1       0.628  -3.225   0.000  0.00  0.00     0.035 A 
ATOM     15  C   UNL d   1       1.299  -2.771   0.000  0.00  0.00     0.008 A 
ATOM     16  C   UNL d   1       1.043  -1.978   0.000  0.00  0.00     0.010 A 
ENDBRANCH  10  12
ENDBRANCH   3  10
BRANCH   1  17
ATOM     17  C   UNL d   1      -1.675  -2.753   0.000  0.00  0.00     0.469 C 
ATOM     18  F   UNL d   1      -1.156  -3.186   0.000  0.00  0.00    -0.162 F 
ATOM     19  F   UNL d   1      -1.905  -3.563   0.000  0.00  0.00    -0.162 F 
ATOM     20  F   UNL d   1      -2.385  -2.961   0.000  0.00  0.00    -0.162 F 
ENDBRANCH   1  17
BRANCH   6  21
ATOM     21  C   UNL d   1      -1.060   0.203   0.000  0.00  0.00     0.021 A 
ATOM     22  C   UNL d   1      -0.242   0.208   0.000  0.00  0.00     0.043 A 
ATOM     23  C   UNL d   1       0.173   0.931   0.000  0.00  0.00     0.196 A 
ATOM     24  O   UNL d   1       0.987   0.931   0.000  0.00  0.00    -0.287 OA
ATOM     25  C   UNL d   1      -0.242   1.632   0.000  0.00  0.00     0.042 A 
ATOM     26  C   UNL d   1      -1.060   1.632   0.000  0.00  0.00     0.003 A 
ATOM     27  C   UNL d   1      -1.468   0.918   0.000  0.00  0.00     0.002 A 
ENDBRANCH   6  21
TORSDOF 4
