REMARK  3 active torsions:
REMARK  status: ('A' for Active; 'I' for Inactive)
REMARK    1  A    between atoms: C_6  and  C_5 
REMARK    2  A    between atoms: C_7  and  C_6 
REMARK    3  A    between atoms: O_11  and  C_7 
ROOT
ATOM      1  N   UNL d   1       3.649  -4.148   0.000  0.00  0.00    -0.163 NA
ATOM      2  C   UNL d   1       3.907  -3.362   0.000  0.00  0.00     0.313 A 
ATOM      3  C   UNL d   1       2.825  -4.148   0.000  0.00  0.00     0.288 A 
ATOM      4  S   UNL d   1       3.237  -2.883   0.000  0.00  0.00    -0.021 SA
ATOM      5  C   UNL d   1       2.575  -3.362   0.000  0.00  0.00     0.097 A 
ATOM      6  O   UNL d   1       4.693  -3.112   0.000  0.00  0.00    -0.258 OA
ATOM      7  O   UNL d   1       2.338  -4.818   0.000  0.00  0.00    -0.265 OA
ENDROOT
BRANCH   5   8
ATOM      8  C   UNL d   1       1.789  -3.112   0.000  0.00  0.00     0.080 C 
BRANCH   8   9
ATOM      9  C   UNL d   1       1.614  -2.309   0.000  0.00  0.00     0.297 C 
ATOM     10  O   UNL d   1       2.226  -1.752   0.000  0.00  0.00    -0.259 OA
BRANCH   9  11
ATOM     11  O   UNL d   1       0.836  -2.051   0.000  0.00  0.00    -0.296 OA
ATOM     12  C   UNL d   1       0.666  -1.248   0.000  0.00  0.00     0.185 C 
ENDBRANCH   9  11
ENDBRANCH   8   9
ENDBRANCH   5   8
TORSDOF 3
