REMARK  7 active torsions:
REMARK  status: ('A' for Active; 'I' for Inactive)
REMARK    1  A    between atoms: C_7  and  N_1 
REMARK    2  A    between atoms: C_6  and  C_4 
REMARK    3  A    between atoms: C_9  and  C_6 
REMARK    4  A    between atoms: C_8  and  C_7 
REMARK       I    between atoms: N_12  and  C_8 
REMARK    5  A    between atoms: C_10  and  C_9 
REMARK    6  A    between atoms: C_16  and  C_10 
REMARK    7  A    between atoms: C_15  and  N_12 
ROOT
ATOM      1  N   UNL d   1       8.452  -7.719   0.000  0.00  0.00    -0.230 N 
ATOM      2  C   UNL d   1       8.706  -6.931   0.000  0.00  0.00     0.299 A 
ATOM      3  C   UNL d   1       7.627  -7.719   0.000  0.00  0.00     0.274 A 
ATOM      4  C   UNL d   1       7.369  -6.931   0.000  0.00  0.00     0.090 A 
ATOM      5  S   UNL d   1       8.040  -6.452   0.000  0.00  0.00    -0.022 SA
ATOM      6  O   UNL d   1       9.494  -6.681   0.000  0.00  0.00    -0.259 OA
ATOM      7  O   UNL d   1       7.139  -8.390   0.000  0.00  0.00    -0.266 OA
ENDROOT
BRANCH   1   8
ATOM      8  C   UNL d   1       8.931  -8.390   0.000  0.00  0.00     0.149 C 
BRANCH   8   9
ATOM      9  C   UNL d   1       8.594  -9.144   0.000  0.00  0.00     0.297 C 
ATOM     10  N   UNL d   1       9.082  -9.807   0.000  0.00  0.00    -0.207 NA
ATOM     11  O   UNL d   1       7.777  -9.227   0.000  0.00  0.00    -0.264 OA
BRANCH  10  12
ATOM     12  C   UNL d   1       8.744 -10.565   0.000  0.00  0.00     0.085 A 
ATOM     13  C   UNL d   1       7.919 -10.644   0.000  0.00  0.00     0.022 A 
ATOM     14  C   UNL d   1       7.589 -11.395   0.000  0.00  0.00     0.044 A 
ATOM     15  C   UNL d   1       8.069 -12.070   0.000  0.00  0.00     0.196 A 
ATOM     16  C   UNL d   1       8.894 -11.982   0.000  0.00  0.00     0.044 A 
ATOM     17  O   UNL d   1       7.731 -12.820   0.000  0.00  0.00    -0.287 OA
ATOM     18  C   UNL d   1       9.232 -11.228   0.000  0.00  0.00     0.022 A 
ENDBRANCH  10  12
ENDBRANCH   8   9
ENDBRANCH   1   8
BRANCH   4  19
ATOM     19  C   UNL d   1       6.589  -6.681   0.000  0.00  0.00     0.011 C 
BRANCH  19  20
ATOM     20  C   UNL d   1       6.414  -5.877   0.000  0.00  0.00     0.001 C 
ATOM     21  C   UNL d   1       7.027  -5.318   0.000  0.00  0.00     0.000 C 
BRANCH  20  22
ATOM     22  C   UNL d   1       5.631  -5.618   0.000  0.00  0.00     0.000 C 
BRANCH  22  23
ATOM     23  C   UNL d   1       5.456  -4.814   0.000  0.00  0.00     0.000 A 
ATOM     24  C   UNL d   1       6.077  -4.255   0.000  0.00  0.00     0.000 A 
ATOM     25  C   UNL d   1       5.906  -3.455   0.000  0.00  0.00     0.000 A 
ATOM     26  C   UNL d   1       5.118  -3.205   0.000  0.00  0.00     0.000 A 
ATOM     27  C   UNL d   1       4.505  -3.755   0.000  0.00  0.00     0.000 A 
ATOM     28  C   UNL d   1       4.680  -4.555   0.000  0.00  0.00     0.000 A 
ENDBRANCH  22  23
ENDBRANCH  20  22
ENDBRANCH  19  20
ENDBRANCH   4  19
TORSDOF 7
