REMARK  7 active torsions:
REMARK  status: ('A' for Active; 'I' for Inactive)
REMARK    1  A    between atoms: C_6  and  N_1 
REMARK    2  A    between atoms: C_9  and  C_5 
REMARK    3  A    between atoms: C_7  and  C_6 
REMARK       I    between atoms: N_10  and  C_7 
REMARK    4  A    between atoms: C_12  and  C_9 
REMARK    5  A    between atoms: C_15  and  N_10 
REMARK    6  A    between atoms: C_14  and  C_12 
REMARK    7  A    between atoms: C_17  and  C_14 
ROOT
ATOM      1  N   UNL d   1       8.279  -2.537   0.000  0.00  0.00    -0.230 N 
ATOM      2  C   UNL d   1       8.530  -1.760   0.000  0.00  0.00     0.299 A 
ATOM      3  C   UNL d   1       7.452  -2.537   0.000  0.00  0.00     0.274 A 
ATOM      4  S   UNL d   1       7.865  -1.283   0.000  0.00  0.00    -0.022 SA
ATOM      5  C   UNL d   1       7.201  -1.760   0.000  0.00  0.00     0.090 A 
ATOM      6  O   UNL d   1       9.320  -1.509   0.000  0.00  0.00    -0.259 OA
ATOM      7  O   UNL d   1       6.971  -3.197   0.000  0.00  0.00    -0.266 OA
ENDROOT
BRANCH   1   8
ATOM      8  C   UNL d   1       8.768  -3.201   0.000  0.00  0.00     0.149 C 
BRANCH   8   9
ATOM      9  C   UNL d   1       8.429  -3.962   0.000  0.00  0.00     0.297 C 
ATOM     10  N   UNL d   1       8.914  -4.630   0.000  0.00  0.00    -0.207 NA
ATOM     11  O   UNL d   1       7.602  -4.041   0.000  0.00  0.00    -0.264 OA
BRANCH  10  12
ATOM     12  C   UNL d   1       8.576  -5.383   0.000  0.00  0.00     0.085 A 
ATOM     13  C   UNL d   1       7.752  -5.471   0.000  0.00  0.00     0.022 A 
ATOM     14  C   UNL d   1       7.414  -6.223   0.000  0.00  0.00     0.044 A 
ATOM     15  C   UNL d   1       7.903  -6.896   0.000  0.00  0.00     0.196 A 
ATOM     16  C   UNL d   1       8.730  -6.808   0.000  0.00  0.00     0.044 A 
ATOM     17  O   UNL d   1       7.564  -7.652   0.000  0.00  0.00    -0.287 OA
ATOM     18  C   UNL d   1       9.065  -6.047   0.000  0.00  0.00     0.022 A 
ENDBRANCH  10  12
ENDBRANCH   8   9
ENDBRANCH   1   8
BRANCH   5  19
ATOM     19  C   UNL d   1       6.407  -1.973   0.000  0.00  0.00     0.011 C 
BRANCH  19  20
ATOM     20  C   UNL d   1       5.822  -1.383   0.000  0.00  0.00     0.001 C 
BRANCH  20  21
ATOM     21  C   UNL d   1       5.027  -1.597   0.000  0.00  0.00     0.000 C 
BRANCH  21  22
ATOM     22  C   UNL d   1       4.442  -1.016   0.000  0.00  0.00     0.000 A 
ATOM     23  C   UNL d   1       4.664  -0.217   0.000  0.00  0.00     0.000 A 
ATOM     24  C   UNL d   1       4.079   0.372   0.000  0.00  0.00     0.000 A 
ATOM     25  C   UNL d   1       3.285   0.159   0.000  0.00  0.00     0.000 A 
ATOM     26  C   UNL d   1       3.072  -0.644   0.000  0.00  0.00     0.000 A 
ATOM     27  C   UNL d   1       3.653  -1.220   0.000  0.00  0.00     0.000 A 
ENDBRANCH  21  22
ENDBRANCH  20  21
ENDBRANCH  19  20
ENDBRANCH   5  19
TORSDOF 7
