REMARK  5 active torsions:
REMARK  status: ('A' for Active; 'I' for Inactive)
REMARK    1  A    between atoms: C_6  and  C_1 
REMARK    2  A    between atoms: C_9  and  N_2 
REMARK    3  A    between atoms: O_13  and  C_8 
REMARK    4  A    between atoms: O_15  and  C_9 
REMARK    5  A    between atoms: O_14  and  C_10 
ROOT
ATOM      1  C   UNL d   1       2.647   2.785   0.000  0.00  0.00     0.149 A 
ATOM      2  N   UNL d   1       2.150   2.125   0.000  0.00  0.00    -0.269 N 
ATOM      3  N   UNL d   1       2.150   3.445   0.000  0.00  0.00    -0.227 NA
ATOM      4  C   UNL d   1       1.377   2.371   0.000  0.00  0.00     0.085 A 
ATOM      5  C   UNL d   1       1.377   3.224   0.000  0.00  0.00     0.099 A 
ATOM      6  C   UNL d   1       0.690   1.963   0.000  0.00  0.00     0.019 A 
ATOM      7  C   UNL d   1       0.630   3.586   0.000  0.00  0.00     0.021 A 
ATOM      8  C   UNL d   1       0.000   2.371   0.000  0.00  0.00     0.002 A 
ATOM      9  C   UNL d   1       0.000   3.172   0.000  0.00  0.00     0.002 A 
ENDROOT
BRANCH   1  10
ATOM     10  C   UNL d   1       3.334   3.194   0.000  0.00  0.00     0.037 A 
ATOM     11  C   UNL d   1       4.051   2.785   0.000  0.00  0.00     0.029 A 
ATOM     12  C   UNL d   1       4.768   3.194   0.000  0.00  0.00     0.116 A 
ATOM     13  C   UNL d   1       4.768   4.026   0.000  0.00  0.00     0.116 A 
ATOM     14  C   UNL d   1       4.051   4.440   0.000  0.00  0.00     0.026 A 
ATOM     15  C   UNL d   1       3.334   4.026   0.000  0.00  0.00     0.005 A 
BRANCH  12  16
ATOM     16  O   UNL d   1       5.484   2.785   0.000  0.00  0.00    -0.326 OA
ATOM     17  C   UNL d   1       6.206   3.194   0.000  0.00  0.00     0.181 C 
ENDBRANCH  12  16
BRANCH  13  18
ATOM     18  O   UNL d   1       5.484   4.440   0.000  0.00  0.00    -0.326 OA
ATOM     19  C   UNL d   1       6.206   4.026   0.000  0.00  0.00     0.181 C 
ENDBRANCH  13  18
ENDBRANCH   1  10
BRANCH   2  20
ATOM     20  C   UNL d   1       2.536   1.438   0.000  0.00  0.00     0.205 C 
BRANCH  20  21
ATOM     21  O   UNL d   1       2.150   0.722   0.000  0.00  0.00    -0.310 OA
ATOM     22  C   UNL d   1       2.536   0.000   0.000  0.00  0.00     0.183 C 
ENDBRANCH  20  21
ENDBRANCH   2  20
TORSDOF 5
