REMARK  6 active torsions:
REMARK  status: ('A' for Active; 'I' for Inactive)
REMARK    1  A    between atoms: C_6  and  N_2 
REMARK    2  A    between atoms: C_7  and  C_3 
REMARK    3  A    between atoms: C_8  and  C_6 
REMARK    4  A    between atoms: C_14  and  C_8 
REMARK    5  A    between atoms: C_9  and  O_12 
REMARK    6  A    between atoms: O_12  and  C_14 
ROOT
ATOM      1  N   UNL d   1       2.170   6.380   0.000  0.00  0.00    -0.224 NA
ATOM      2  N   UNL d   1       2.170   5.042   0.000  0.00  0.00    -0.286 N 
ATOM      3  C   UNL d   1       2.674   5.711   0.000  0.00  0.00     0.191 A 
ATOM      4  C   UNL d   1       1.391   5.292   0.000  0.00  0.00     0.083 A 
ATOM      5  C   UNL d   1       1.391   6.157   0.000  0.00  0.00     0.099 A 
ATOM      6  C   UNL d   1       0.693   4.873   0.000  0.00  0.00     0.019 A 
ATOM      7  C   UNL d   1       0.639   6.519   0.000  0.00  0.00     0.021 A 
ATOM      8  C   UNL d   1       0.000   5.292   0.000  0.00  0.00     0.002 A 
ATOM      9  C   UNL d   1       0.000   6.100   0.000  0.00  0.00     0.002 A 
ENDROOT
BRANCH   2  10
ATOM     10  C   UNL d   1       2.559   4.344   0.000  0.00  0.00     0.084 C 
BRANCH  10  11
ATOM     11  C   UNL d   1       2.170   3.617   0.000  0.00  0.00     0.046 C 
BRANCH  11  12
ATOM     12  C   UNL d   1       2.559   2.897   0.000  0.00  0.00     0.124 C 
BRANCH  12  13
ATOM     13  O   UNL d   1       2.170   2.179   0.000  0.00  0.00    -0.305 OA
BRANCH  13  14
ATOM     14  C   UNL d   1       2.559   1.452   0.000  0.00  0.00     0.100 A 
ATOM     15  C   UNL d   1       2.170   0.725   0.000  0.00  0.00     0.025 A 
ATOM     16  C   UNL d   1       2.559   0.000   0.000  0.00  0.00     0.002 A 
ATOM     17  C   UNL d   1       3.397   0.000   0.000  0.00  0.00     0.000 A 
ATOM     18  C   UNL d   1       3.815   0.725   0.000  0.00  0.00     0.002 A 
ATOM     19  C   UNL d   1       3.397   1.452   0.000  0.00  0.00     0.025 A 
ENDBRANCH  13  14
ENDBRANCH  12  13
ENDBRANCH  11  12
ENDBRANCH  10  11
ENDBRANCH   2  10
BRANCH   3  20
ATOM     20  C   UNL d   1       3.367   5.292   0.000  0.00  0.00     0.271 C 
ATOM     21  O   UNL d   1       4.095   5.711   0.000  0.00  0.00    -0.280 OA
ENDBRANCH   3  20
TORSDOF 6
