REMARK  6 active torsions:
REMARK  status: ('A' for Active; 'I' for Inactive)
REMARK    1  A    between atoms: C_6  and  N_2 
REMARK    2  A    between atoms: C_7  and  C_3 
REMARK    3  A    between atoms: C_10  and  C_6 
REMARK    4  A    between atoms: C_15  and  C_7 
REMARK    5  A    between atoms: O_8  and  C_10 
REMARK    6  A    between atoms: C_9  and  O_8 
ROOT
ATOM      1  N   UNL d   1       2.170   5.652   0.000  0.00  0.00    -0.227 NA
ATOM      2  N   UNL d   1       2.170   4.315   0.000  0.00  0.00    -0.287 N 
ATOM      3  C   UNL d   1       2.674   4.984   0.000  0.00  0.00     0.148 A 
ATOM      4  C   UNL d   1       1.391   4.570   0.000  0.00  0.00     0.083 A 
ATOM      5  C   UNL d   1       1.391   5.432   0.000  0.00  0.00     0.099 A 
ATOM      6  C   UNL d   1       0.693   4.151   0.000  0.00  0.00     0.019 A 
ATOM      7  C   UNL d   1       0.639   5.792   0.000  0.00  0.00     0.021 A 
ATOM      8  C   UNL d   1       0.000   4.570   0.000  0.00  0.00     0.002 A 
ATOM      9  C   UNL d   1       0.000   5.378   0.000  0.00  0.00     0.002 A 
ENDROOT
BRANCH   2  10
ATOM     10  C   UNL d   1       2.559   3.617   0.000  0.00  0.00     0.108 C 
BRANCH  10  11
ATOM     11  C   UNL d   1       2.170   2.897   0.000  0.00  0.00     0.142 C 
BRANCH  11  12
ATOM     12  O   UNL d   1       2.559   2.179   0.000  0.00  0.00    -0.304 OA
BRANCH  12  13
ATOM     13  C   UNL d   1       2.170   1.452   0.000  0.00  0.00     0.100 A 
ATOM     14  C   UNL d   1       2.559   0.725   0.000  0.00  0.00     0.025 A 
ATOM     15  C   UNL d   1       2.170   0.000   0.000  0.00  0.00     0.002 A 
ATOM     16  C   UNL d   1       1.337   0.000   0.000  0.00  0.00     0.000 A 
ATOM     17  C   UNL d   1       0.918   0.725   0.000  0.00  0.00     0.002 A 
ATOM     18  C   UNL d   1       1.337   1.452   0.000  0.00  0.00     0.025 A 
ENDBRANCH  12  13
ENDBRANCH  11  12
ENDBRANCH  10  11
ENDBRANCH   2  10
BRANCH   3  19
ATOM     19  C   UNL d   1       3.367   4.570   0.000  0.00  0.00     0.037 C 
BRANCH  19  20
ATOM     20  C   UNL d   1       4.095   4.984   0.000  0.00  0.00     0.003 C 
ATOM     21  C   UNL d   1       4.819   4.570   0.000  0.00  0.00     0.000 C 
ENDBRANCH  19  20
ENDBRANCH   3  19
TORSDOF 6
