REMARK  3 active torsions:
REMARK  status: ('A' for Active; 'I' for Inactive)
REMARK    1  A    between atoms: C_6  and  N_1 
REMARK    2  A    between atoms: C_3  and  C_2 
REMARK       I    between atoms: N_4  and  C_3 
REMARK    3  A    between atoms: C_9  and  N_4 
ROOT
ATOM      1  C   UNL d   1       2.542  -0.742   0.000  0.00  0.00     0.069 A 
ATOM      2  C   UNL d   1       1.825  -1.154   0.000  0.00  0.00     0.064 A 
ATOM      3  C   UNL d   1       1.113   0.087   0.000  0.00  0.00     0.128 A 
ATOM      4  C   UNL d   1       1.113  -0.742   0.000  0.00  0.00     0.035 A 
ATOM      5  C   UNL d   1       2.542   0.087   0.000  0.00  0.00     0.007 A 
ATOM      6  C   UNL d   1       1.825   0.500   0.000  0.00  0.00     0.024 A 
ATOM      7 CL   UNL d   1       1.817  -1.979   0.000  0.00  0.00    -0.082 Cl
ENDROOT
BRANCH   1   8
ATOM      8  C   UNL d   1       3.255  -1.154   0.000  0.00  0.00     0.281 C 
ATOM      9  N   UNL d   1       3.255  -1.979   0.000  0.00  0.00    -0.189 NA
ATOM     10  O   UNL d   1       3.967  -0.738   0.000  0.00  0.00    -0.265 OA
BRANCH   9  11
ATOM     11  C   UNL d   1       3.842  -2.563   0.000  0.00  0.00     0.166 A 
ATOM     12  N   UNL d   1       4.638  -2.342   0.000  0.00  0.00    -0.225 NA
ATOM     13  C   UNL d   1       5.205  -2.929   0.000  0.00  0.00     0.101 A 
ATOM     14  C   UNL d   1       4.992  -3.725   0.000  0.00  0.00     0.021 A 
ATOM     15  C   UNL d   1       4.200  -3.938   0.000  0.00  0.00     0.005 A 
ATOM     16  C   UNL d   1       3.617  -3.355   0.000  0.00  0.00     0.039 A 
ENDBRANCH   9  11
ENDBRANCH   1   8
BRANCH   3  17
ATOM     17  N   UNL d   1       0.392   0.496   0.000  0.00  0.00    -0.114 N 
ATOM     18  O   UNL d   1       0.392   1.321   0.000  0.00  0.00    -0.532 OA
ATOM     19  O   UNL d   1      -0.321   0.083   0.000  0.00  0.00    -0.532 OA
ENDBRANCH   3  17
TORSDOF 3
