REMARK  6 active torsions:
REMARK  status: ('A' for Active; 'I' for Inactive)
REMARK    1  A    between atoms: C_6  and  N_1 
REMARK    2  A    between atoms: C_13  and  C_6 
REMARK    3  A    between atoms: C_8  and  C_9 
REMARK    4  A    between atoms: C_16  and  C_13 
REMARK    5  A    between atoms: O_14  and  C_16 
REMARK    6  A    between atoms: C_15  and  O_14 
ROOT
ATOM      1  C   UNL d   1       2.379  -1.567   0.000  0.00  0.00     0.237 C 
ATOM      2  O   UNL d   1       2.379  -2.400   0.000  0.00  0.00    -0.283 OA
ENDROOT
BRANCH   1   3
ATOM      3  C   UNL d   1       3.100  -1.154   0.000  0.00  0.00     0.117 C 
BRANCH   3   4
ATOM      4  N   UNL d   1       3.817  -1.567   0.000  0.00  0.00    -0.344 N 
ATOM      5  C   UNL d   1       3.817  -2.400   0.000  0.00  0.00     0.086 A 
ATOM      6  C   UNL d   1       4.529  -2.812   0.000  0.00  0.00     0.035 A 
ATOM      7  C   UNL d   1       3.812  -3.225   0.000  0.00  0.00     0.027 C 
ATOM      8  C   UNL d   1       3.100  -1.988   0.000  0.00  0.00     0.027 C 
ATOM      9  C   UNL d   1       5.250  -2.400   0.000  0.00  0.00     0.191 A 
ATOM     10  C   UNL d   1       5.250  -1.567   0.000  0.00  0.00     0.035 A 
ATOM     11  O   UNL d   1       5.963  -2.812   0.000  0.00  0.00    -0.287 OA
ATOM     12  C   UNL d   1       4.529  -1.154   0.000  0.00  0.00     0.086 A 
ATOM     13  C   UNL d   1       3.817  -0.742   0.000  0.00  0.00     0.027 C 
ATOM     14  C   UNL d   1       5.242  -0.742   0.000  0.00  0.00     0.027 C 
ENDBRANCH   3   4
ENDBRANCH   1   3
BRANCH   1  15
ATOM     15  C   UNL d   1       1.675  -1.150   0.000  0.00  0.00     0.166 C 
BRANCH  15  16
ATOM     16  O   UNL d   1       0.950  -1.554   0.000  0.00  0.00    -0.302 OA
BRANCH  16  17
ATOM     17  C   UNL d   1       0.229  -1.129   0.000  0.00  0.00     0.100 A 
ATOM     18  C   UNL d   1       0.229  -0.304   0.000  0.00  0.00     0.025 A 
ATOM     19  C   UNL d   1      -0.483   0.108   0.000  0.00  0.00     0.005 A 
ATOM     20  C   UNL d   1      -1.200  -0.300   0.000  0.00  0.00     0.039 A 
ATOM     21  C   UNL d   1      -1.200  -1.129   0.000  0.00  0.00     0.005 A 
ATOM     22  C   UNL d   1      -0.483  -1.542   0.000  0.00  0.00     0.025 A 
BRANCH  20  23
ATOM     23  C   UNL d   1      -1.908   0.121   0.000  0.00  0.00     0.196 C 
ATOM     24  O   UNL d   1      -1.908   0.946   0.000  0.00  0.00    -0.287 OA
ATOM     25  C   UNL d   1      -2.625  -0.292   0.000  0.00  0.00     0.045 C 
ENDBRANCH  20  23
ENDBRANCH  16  17
ENDBRANCH  15  16
ENDBRANCH   1  15
TORSDOF 6
