REMARK  3 active torsions:
REMARK  status: ('A' for Active; 'I' for Inactive)
REMARK    1  A    between atoms: C_8  and  C_1 
REMARK    2  A    between atoms: C_9  and  C_8 
REMARK    3  A    between atoms: O_16  and  C_13 
ROOT
ATOM      1  C   UNL d   1       0.950   0.871   0.000  0.00  0.00     0.013 A 
ATOM      2  C   UNL d   1       1.141  -0.554   0.000  0.00  0.00     0.105 A 
ATOM      3  O   UNL d   1       1.950  -0.442   0.000  0.00  0.00    -0.273 OA
ATOM      4  C   UNL d   1       0.629   0.108   0.000  0.00  0.00     0.023 A 
ATOM      5  C   UNL d   1       2.266   0.321   0.000  0.00  0.00     0.300 A 
ATOM      6  C   UNL d   1       1.766   0.975   0.000  0.00  0.00     0.069 A 
ATOM      7  C   UNL d   1       0.825  -1.304   0.000  0.00  0.00     0.049 A 
ATOM      8  C   UNL d   1      -0.183   0.000   0.000  0.00  0.00     0.004 A 
ATOM      9  O   UNL d   1       3.099   0.425   0.000  0.00  0.00    -0.259 OA
ATOM     10  C   UNL d   1       0.000  -1.416   0.000  0.00  0.00     0.096 A 
ATOM     11  C   UNL d   1      -0.500  -0.767   0.000  0.00  0.00     0.024 A 
ENDROOT
BRANCH   1  12
ATOM     12  C   UNL d   1       0.442   1.520   0.000  0.00  0.00     0.070 C 
BRANCH  12  13
ATOM     13  C   UNL d   1       0.762   2.283   0.000  0.00  0.00     0.211 C 
ATOM     14  O   UNL d   1       0.254   2.945   0.000  0.00  0.00    -0.644 OA
ATOM     15  O   UNL d   1       1.579   2.395   0.000  0.00  0.00    -0.644 OA
ENDBRANCH  12  13
ENDBRANCH   1  12
BRANCH  10  16
ATOM     16  O   UNL d   1      -0.312  -2.179   0.000  0.00  0.00    -0.328 OA
ATOM     17  C   UNL d   1      -1.133  -2.291   0.000  0.00  0.00     0.181 C 
ENDBRANCH  10  16
TORSDOF 3
