REMARK  3 active torsions:
REMARK  status: ('A' for Active; 'I' for Inactive)
REMARK    1  A    between atoms: C_2  and  S_1 
REMARK    2  A    between atoms: N_6  and  S_1 
REMARK    3  A    between atoms: N_3  and  C_5 
ROOT
ATOM      1  C   UNL d   1       2.259  -2.697   0.000  0.00  0.00     0.106 A 
ATOM      2  C   UNL d   1       1.545  -3.111   0.000  0.00  0.00     0.036 A 
ATOM      3  C   UNL d   1       0.831  -2.697   0.000  0.00  0.00     0.127 A 
ATOM      4  C   UNL d   1       2.259  -1.871   0.000  0.00  0.00     0.012 A 
ATOM      5  C   UNL d   1       0.831  -1.871   0.000  0.00  0.00     0.024 A 
ATOM      6  C   UNL d   1       1.545  -1.457   0.000  0.00  0.00     0.002 A 
ATOM      7  C   UNL d   1       2.981  -1.453   0.000  0.00  0.00     0.001 C 
ENDROOT
BRANCH   1   8
ATOM      8  S   UNL d   1       2.985  -3.111   0.000  0.00  0.00     0.272 S 
ATOM      9  O   UNL d   1       2.985  -3.937   0.000  0.00  0.00    -0.200 OA
ATOM     10  O   UNL d   1       3.699  -2.697   0.000  0.00  0.00    -0.200 OA
BRANCH   8  11
ATOM     11  N   UNL d   1       3.783  -3.324   0.000  0.00  0.00    -0.226 N 
ATOM     12  C   UNL d   1       4.000  -4.125   0.000  0.00  0.00     0.111 C 
ATOM     13  C   UNL d   1       4.363  -2.735   0.000  0.00  0.00     0.111 C 
ENDBRANCH   8  11
ENDBRANCH   1   8
BRANCH   3  14
ATOM     14  N   UNL d   1       0.117  -3.111   0.000  0.00  0.00    -0.114 N 
ATOM     15  O   UNL d   1      -0.597  -2.697   0.000  0.00  0.00    -0.532 OA
ATOM     16  O   UNL d   1       0.117  -3.937   0.000  0.00  0.00    -0.532 OA
ENDBRANCH   3  14
TORSDOF 3
