REMARK  6 active torsions:
REMARK  status: ('A' for Active; 'I' for Inactive)
REMARK    1  A    between atoms: C_10  and  C_2 
REMARK    2  A    between atoms: C_11  and  C_4 
REMARK    3  A    between atoms: N_12  and  C_10 
REMARK    4  A    between atoms: O_17  and  C_11 
REMARK    5  A    between atoms: C_14  and  N_12 
REMARK    6  A    between atoms: C_23  and  O_17 
ROOT
ATOM      1  C   UNL d   1      -0.167  -0.990   0.000  0.00  0.00     0.035 A 
ATOM      2  C   UNL d   1      -0.167  -0.152   0.000  0.00  0.00     0.060 A 
ATOM      3  C   UNL d   1      -0.876  -1.411   0.000  0.00  0.00     0.100 A 
ATOM      4  C   UNL d   1       0.455  -1.552   0.000  0.00  0.00     0.088 A 
ATOM      5  O   UNL d   1      -0.713  -2.212   0.000  0.00  0.00    -0.307 OA
ATOM      6  C   UNL d   1       0.106  -2.303   0.000  0.00  0.00     0.105 A 
ATOM      7  C   UNL d   1      -0.876   0.247   0.000  0.00  0.00     0.197 A 
ATOM      8  C   UNL d   1      -1.589  -0.990   0.000  0.00  0.00     0.026 A 
ATOM      9  C   UNL d   1      -1.589  -0.152   0.000  0.00  0.00     0.041 A 
ATOM     10  O   UNL d   1      -0.876   1.089   0.000  0.00  0.00    -0.286 OA
ATOM     11  C   UNL d   1       0.527  -3.031   0.000  0.00  0.00     0.027 C 
ATOM     12  C   UNL d   1      -2.295  -1.411   0.000  0.00  0.00     0.002 A 
ATOM     13  C   UNL d   1      -2.295   0.247   0.000  0.00  0.00     0.003 A 
ATOM     14  C   UNL d   1      -3.005  -0.990   0.000  0.00  0.00     0.000 A 
ATOM     15  C   UNL d   1      -3.005  -0.152   0.000  0.00  0.00     0.000 A 
ENDROOT
BRANCH   2  16
ATOM     16  C   UNL d   1       0.561   0.269   0.000  0.00  0.00     0.104 C 
BRANCH  16  17
ATOM     17  N   UNL d   1       0.561   1.104   0.000  0.00  0.00    -0.225 NA
BRANCH  17  18
ATOM     18  C   UNL d   1       1.275   1.521   0.000  0.00  0.00     0.163 A 
ATOM     19  N   UNL d   1       1.984   1.104   0.000  0.00  0.00    -0.225 NA
ATOM     20  C   UNL d   1       2.690   1.521   0.000  0.00  0.00     0.101 A 
ATOM     21  C   UNL d   1       2.690   2.341   0.000  0.00  0.00     0.021 A 
ATOM     22  C   UNL d   1       1.984   2.762   0.000  0.00  0.00     0.005 A 
ATOM     23  C   UNL d   1       1.275   2.341   0.000  0.00  0.00     0.039 A 
ENDBRANCH  17  18
ENDBRANCH  16  17
ENDBRANCH   2  16
BRANCH   4  24
ATOM     24  C   UNL d   1       1.275  -1.392   0.000  0.00  0.00     0.302 C 
ATOM     25  O   UNL d   1       1.563  -0.626   0.000  0.00  0.00    -0.259 OA
BRANCH  24  26
ATOM     26  O   UNL d   1       1.802  -2.030   0.000  0.00  0.00    -0.271 OA
BRANCH  26  27
ATOM     27  C   UNL d   1       1.506  -2.792   0.000  0.00  0.00     0.126 C 
ATOM     28  C   UNL d   1       2.052  -3.429   0.000  0.00  0.00     0.029 C 
ENDBRANCH  26  27
ENDBRANCH  24  26
ENDBRANCH   4  24
TORSDOF 6
