REMARK  5 active torsions:
REMARK  status: ('A' for Active; 'I' for Inactive)
REMARK    1  A    between atoms: C_10  and  N_4 
REMARK    2  A    between atoms: C_12  and  C_10 
REMARK    3  A    between atoms: N_13  and  C_12 
REMARK    4  A    between atoms: C_19  and  N_13 
REMARK    5  A    between atoms: C_20  and  N_13 
ROOT
ATOM      1  C   UNL d   1      -1.728  -0.736   0.000  0.00  0.00     0.102 A 
ATOM      2  N   UNL d   1      -0.929  -0.559   0.000  0.00  0.00    -0.163 NA
ATOM      3  C   UNL d   1      -1.989  -1.518   0.000  0.00  0.00     0.024 A 
ATOM      4  N   UNL d   1      -0.328  -1.518   0.000  0.00  0.00    -0.192 N 
ATOM      5  C   UNL d   1      -0.740  -2.224   0.000  0.00  0.00     0.280 A 
ATOM      6  C   UNL d   1      -1.572  -2.224   0.000  0.00  0.00     0.059 A 
ATOM      7  C   UNL d   1      -2.808  -1.518   0.000  0.00  0.00     0.002 A 
ATOM      8  C   UNL d   1      -2.397  -0.252   0.000  0.00  0.00     0.019 A 
ATOM      9  C   UNL d   1      -3.065  -0.736   0.000  0.00  0.00     0.002 A 
ATOM     10  O   UNL d   1      -0.324  -2.943   0.000  0.00  0.00    -0.265 OA
ATOM     11  C   UNL d   1      -1.989  -2.943   0.000  0.00  0.00     0.005 A 
ATOM     12  C   UNL d   1      -3.225  -2.224   0.000  0.00  0.00     0.000 A 
ATOM     13  C   UNL d   1      -2.485   0.568   0.000  0.00  0.00     0.002 A 
ATOM     14  C   UNL d   1      -3.818  -0.395   0.000  0.00  0.00     0.000 A 
ATOM     15  C   UNL d   1      -2.808  -2.943   0.000  0.00  0.00     0.000 A 
ATOM     16  C   UNL d   1      -3.237   0.908   0.000  0.00  0.00     0.000 A 
ATOM     17  C   UNL d   1      -3.906   0.425   0.000  0.00  0.00     0.000 A 
ENDROOT
BRANCH   4  18
ATOM     18  C   UNL d   1       0.479  -1.707   0.000  0.00  0.00     0.123 C 
BRANCH  18  19
ATOM     19  C   UNL d   1       0.719  -2.502   0.000  0.00  0.00     0.101 C 
BRANCH  19  20
ATOM     20  N   UNL d   1       1.526  -2.691   0.000  0.00  0.00    -0.301 N 
BRANCH  20  21
ATOM     21  C   UNL d   1       1.770  -3.473   0.000  0.00  0.00     0.080 C 
ATOM     22  C   UNL d   1       2.573  -3.662   0.000  0.00  0.00     0.021 C 
ENDBRANCH  20  21
BRANCH  20  23
ATOM     23  C   UNL d   1       2.085  -2.081   0.000  0.00  0.00     0.080 C 
ATOM     24  C   UNL d   1       2.888  -2.262   0.000  0.00  0.00     0.021 C 
ENDBRANCH  20  23
ENDBRANCH  19  20
ENDBRANCH  18  19
ENDBRANCH   4  18
TORSDOF 5
