REMARK  5 active torsions:
REMARK  status: ('A' for Active; 'I' for Inactive)
REMARK    1  A    between atoms: N_12  and  C_5 
REMARK    2  A    between atoms: C_17  and  N_12 
REMARK    3  A    between atoms: C_19  and  C_17 
REMARK    4  A    between atoms: C_18  and  C_20 
REMARK    5  A    between atoms: C_20  and  C_19 
ROOT
ATOM      1  C   UNL d   1       6.701  -3.978   0.000  0.00  0.00     0.159 A 
ATOM      2  N   UNL d   1       6.701  -3.153   0.000  0.00  0.00    -0.275 N 
ATOM      3  C   UNL d   1       7.425  -4.391   0.000  0.00  0.00     0.103 A 
ATOM      4  N   UNL d   1       5.986  -4.391   0.000  0.00  0.00    -0.226 NA
ATOM      5  C   UNL d   1       7.425  -2.736   0.000  0.00  0.00     0.149 A 
ATOM      6  C   UNL d   1       8.140  -3.978   0.000  0.00  0.00     0.016 A 
ATOM      7  C   UNL d   1       8.140  -3.153   0.000  0.00  0.00     0.038 A 
ATOM      8  C   UNL d   1       5.266  -3.153   0.000  0.00  0.00     0.084 A 
ATOM      9  C   UNL d   1       5.266  -3.978   0.000  0.00  0.00     0.099 A 
ATOM     10  C   UNL d   1       7.425  -5.216   0.000  0.00  0.00     0.104 C 
ATOM     11  N   UNL d   1       7.425  -6.041   0.000  0.00  0.00    -0.191 NA
ATOM     12  C   UNL d   1       8.855  -4.391   0.000  0.00  0.00     0.001 C 
ATOM     13  C   UNL d   1       4.542  -2.736   0.000  0.00  0.00     0.019 A 
ATOM     14  C   UNL d   1       4.542  -4.391   0.000  0.00  0.00     0.021 A 
ATOM     15  C   UNL d   1       3.836  -3.153   0.000  0.00  0.00     0.002 A 
ATOM     16  C   UNL d   1       3.836  -3.978   0.000  0.00  0.00     0.002 A 
ENDROOT
BRANCH   5  17
ATOM     17  N   UNL d   1       7.425  -1.911   0.000  0.00  0.00    -0.227 NA
BRANCH  17  18
ATOM     18  C   UNL d   1       6.710  -1.499   0.000  0.00  0.00     0.101 C 
BRANCH  18  19
ATOM     19  C   UNL d   1       6.710  -0.674   0.000  0.00  0.00     0.024 C 
BRANCH  19  20
ATOM     20  C   UNL d   1       5.995  -0.261   0.000  0.00  0.00     0.047 C 
BRANCH  20  21
ATOM     21  C   UNL d   1       5.995   0.564   0.000  0.00  0.00     0.234 C 
ATOM     22  O   UNL d   1       5.280   0.976   0.000  0.00  0.00    -0.283 OA
ENDBRANCH  20  21
ENDBRANCH  19  20
ENDBRANCH  18  19
ENDBRANCH  17  18
ENDBRANCH   5  17
TORSDOF 5
