REMARK  2 active torsions:
REMARK  status: ('A' for Active; 'I' for Inactive)
REMARK    1  A    between atoms: C_10  and  N_1 
REMARK    2  A    between atoms: N_11  and  C_10 
ROOT
ATOM      1  N   UNL d   1       0.951  -0.774   0.000  0.00  0.00    -0.175 N 
ATOM      2  N   UNL d   1       0.353   0.185   0.000  0.00  0.00    -0.161 NA
ATOM      3  C   UNL d   1      -0.450   0.008   0.000  0.00  0.00     0.102 A 
ATOM      4  C   UNL d   1      -0.703  -0.774   0.000  0.00  0.00     0.024 A 
ATOM      5  C   UNL d   1       0.534  -1.481   0.000  0.00  0.00     0.282 A 
ATOM      6  C   UNL d   1      -0.290  -1.481   0.000  0.00  0.00     0.059 A 
ATOM      7  C   UNL d   1      -1.536  -0.774   0.000  0.00  0.00     0.002 A 
ATOM      8  C   UNL d   1      -1.119   0.488   0.000  0.00  0.00     0.019 A 
ATOM      9  C   UNL d   1      -1.788   0.008   0.000  0.00  0.00     0.002 A 
ATOM     10  O   UNL d   1       0.959  -2.201   0.000  0.00  0.00    -0.265 OA
ATOM     11  C   UNL d   1      -0.703  -2.201   0.000  0.00  0.00     0.005 A 
ATOM     12  C   UNL d   1      -1.944  -1.481   0.000  0.00  0.00     0.000 A 
ATOM     13  C   UNL d   1      -1.208   1.309   0.000  0.00  0.00     0.002 A 
ATOM     14  C   UNL d   1      -2.537   0.349   0.000  0.00  0.00     0.000 A 
ATOM     15  C   UNL d   1      -1.536  -2.201   0.000  0.00  0.00     0.000 A 
ATOM     16  C   UNL d   1      -1.965   1.649   0.000  0.00  0.00     0.000 A 
ATOM     17  C   UNL d   1      -2.626   1.170   0.000  0.00  0.00     0.000 A 
ENDROOT
BRANCH   1  18
ATOM     18  C   UNL d   1       1.759  -0.964   0.000  0.00  0.00     0.188 C 
BRANCH  18  19
ATOM     19  N   UNL d   1       1.994  -1.759   0.000  0.00  0.00    -0.283 N 
ATOM     20  C   UNL d   1       1.426  -2.352   0.000  0.00  0.00     0.108 A 
ATOM     21  C   UNL d   1       1.658  -3.147   0.000  0.00  0.00     0.142 A 
ATOM     22  O   UNL d   1       2.466  -3.337   0.000  0.00  0.00    -0.300 OA
ATOM     23  C   UNL d   1       3.034  -2.739   0.000  0.00  0.00     0.142 A 
ATOM     24  C   UNL d   1       2.794  -1.936   0.000  0.00  0.00     0.108 A 
ENDBRANCH  18  19
ENDBRANCH   1  18
TORSDOF 2
