REMARK  7 active torsions:
REMARK  status: ('A' for Active; 'I' for Inactive)
REMARK    1  A    between atoms: C_11  and  C_3 
REMARK    2  A    between atoms: C_10  and  C_4 
REMARK    3  A    between atoms: O_16  and  C_10 
REMARK    4  A    between atoms: N_15  and  C_11 
REMARK    5  A    between atoms: C_21  and  N_15 
REMARK    6  A    between atoms: C_23  and  O_16 
REMARK    7  A    between atoms: C_18  and  C_21 
ROOT
ATOM      1  C   UNL d   1      -1.295  -2.489   0.000  0.00  0.00     0.035 A 
ATOM      2  C   UNL d   1      -2.005  -2.908   0.000  0.00  0.00     0.100 A 
ATOM      3  C   UNL d   1      -1.295  -1.664   0.000  0.00  0.00     0.060 A 
ATOM      4  C   UNL d   1      -0.677  -3.042   0.000  0.00  0.00     0.088 A 
ATOM      5  O   UNL d   1      -1.825  -3.706   0.000  0.00  0.00    -0.307 OA
ATOM      6  C   UNL d   1      -1.032  -3.766   0.000  0.00  0.00     0.105 A 
ATOM      7  C   UNL d   1      -2.005  -1.249   0.000  0.00  0.00     0.197 A 
ATOM      8  C   UNL d   1      -2.710  -2.489   0.000  0.00  0.00     0.026 A 
ATOM      9  C   UNL d   1      -2.710  -1.664   0.000  0.00  0.00     0.041 A 
ATOM     10  O   UNL d   1      -2.005  -0.429   0.000  0.00  0.00    -0.286 OA
ATOM     11  C   UNL d   1      -0.608  -4.499   0.000  0.00  0.00     0.027 C 
ATOM     12  C   UNL d   1      -3.425  -2.908   0.000  0.00  0.00     0.002 A 
ATOM     13  C   UNL d   1      -3.425  -1.249   0.000  0.00  0.00     0.003 A 
ATOM     14  C   UNL d   1      -4.130  -1.664   0.000  0.00  0.00     0.000 A 
ATOM     15  C   UNL d   1      -4.130  -2.489   0.000  0.00  0.00     0.000 A 
ENDROOT
BRANCH   3  16
ATOM     16  C   UNL d   1      -0.567  -1.222   0.000  0.00  0.00     0.102 C 
BRANCH  16  17
ATOM     17  N   UNL d   1      -0.567  -0.387   0.000  0.00  0.00    -0.241 NA
BRANCH  17  18
ATOM     18  C   UNL d   1       0.143   0.014   0.000  0.00  0.00     0.118 C 
BRANCH  18  19
ATOM     19  C   UNL d   1       0.143   0.853   0.000  0.00  0.00     0.101 A 
ATOM     20  N   UNL d   1       0.848   1.272   0.000  0.00  0.00    -0.242 NA
ATOM     21  C   UNL d   1       0.848   2.097   0.000  0.00  0.00     0.099 A 
ATOM     22  C   UNL d   1       0.143   2.512   0.000  0.00  0.00     0.021 A 
ATOM     23  C   UNL d   1      -0.567   2.097   0.000  0.00  0.00     0.003 A 
ATOM     24  C   UNL d   1      -0.567   1.272   0.000  0.00  0.00     0.021 A 
ENDBRANCH  18  19
ENDBRANCH  17  18
ENDBRANCH  16  17
ENDBRANCH   3  16
BRANCH   4  25
ATOM     25  C   UNL d   1       0.166  -2.908   0.000  0.00  0.00     0.302 C 
ATOM     26  O   UNL d   1       0.447  -2.134   0.000  0.00  0.00    -0.259 OA
BRANCH  25  27
ATOM     27  O   UNL d   1       0.668  -3.526   0.000  0.00  0.00    -0.271 OA
BRANCH  27  28
ATOM     28  C   UNL d   1       0.387  -4.300   0.000  0.00  0.00     0.126 C 
ATOM     29  C   UNL d   1       0.917  -4.941   0.000  0.00  0.00     0.029 C 
ENDBRANCH  27  28
ENDBRANCH  25  27
ENDBRANCH   4  25
TORSDOF 7
