REMARK  5 active torsions:
REMARK  status: ('A' for Active; 'I' for Inactive)
REMARK    1  A    between atoms: C_10  and  C_3 
REMARK    2  A    between atoms: N_13  and  C_4 
REMARK    3  A    between atoms: N_12  and  C_17 
REMARK    4  A    between atoms: C_16  and  N_13 
REMARK    5  A    between atoms: C_17  and  C_16 
ROOT
ATOM      1  C   UNL d   1       4.636  -3.729   0.000  0.00  0.00     0.150 A 
ATOM      2  N   UNL d   1       4.636  -2.900   0.000  0.00  0.00    -0.275 N 
ATOM      3  C   UNL d   1       5.350  -4.141   0.000  0.00  0.00     0.056 A 
ATOM      4  C   UNL d   1       5.350  -2.478   0.000  0.00  0.00     0.149 A 
ATOM      5  N   UNL d   1       3.917  -4.141   0.000  0.00  0.00    -0.227 NA
ATOM      6  C   UNL d   1       6.065  -3.729   0.000  0.00  0.00     0.007 A 
ATOM      7  C   UNL d   1       6.065  -2.900   0.000  0.00  0.00     0.038 A 
ATOM      8  C   UNL d   1       3.193  -2.900   0.000  0.00  0.00     0.084 A 
ATOM      9  C   UNL d   1       3.193  -3.729   0.000  0.00  0.00     0.099 A 
ATOM     10  C   UNL d   1       6.789  -4.141   0.000  0.00  0.00     0.000 C 
ATOM     11  C   UNL d   1       2.478  -2.478   0.000  0.00  0.00     0.019 A 
ATOM     12  C   UNL d   1       2.478  -4.141   0.000  0.00  0.00     0.021 A 
ATOM     13  C   UNL d   1       1.764  -2.900   0.000  0.00  0.00     0.002 A 
ATOM     14  C   UNL d   1       1.764  -3.729   0.000  0.00  0.00     0.002 A 
ENDROOT
BRANCH   4  15
ATOM     15  N   UNL d   1       5.350  -1.654   0.000  0.00  0.00    -0.225 NA
BRANCH  15  16
ATOM     16  C   UNL d   1       4.636  -1.241   0.000  0.00  0.00     0.120 C 
BRANCH  16  17
ATOM     17  C   UNL d   1       4.636  -0.426   0.000  0.00  0.00     0.101 C 
BRANCH  17  18
ATOM     18  N   UNL d   1       3.930  -0.014   0.000  0.00  0.00    -0.298 N 
ATOM     19  C   UNL d   1       3.216  -0.426   0.000  0.00  0.00     0.107 A 
ATOM     20  C   UNL d   1       2.501  -0.014   0.000  0.00  0.00     0.142 A 
ATOM     21  O   UNL d   1       2.492   0.811   0.000  0.00  0.00    -0.300 OA
ATOM     22  C   UNL d   1       3.216   1.223   0.000  0.00  0.00     0.142 A 
ATOM     23  C   UNL d   1       3.930   0.811   0.000  0.00  0.00     0.107 A 
ENDBRANCH  17  18
ENDBRANCH  16  17
ENDBRANCH  15  16
ENDBRANCH   4  15
BRANCH   3  24
ATOM     24  C   UNL d   1       5.350  -4.966   0.000  0.00  0.00     0.125 C 
ATOM     25  N   UNL d   1       6.024  -5.364   0.000  0.00  0.00    -0.146 N 
ENDBRANCH   3  24
TORSDOF 5
