REMARK  5 active torsions:
REMARK  status: ('A' for Active; 'I' for Inactive)
REMARK    1  A    between atoms: C_6  and  C_1 
REMARK    2  A    between atoms: C_7  and  C_5 
REMARK       I    between atoms: N_13  and  C_6 
REMARK    3  A    between atoms: C_8  and  C_12 
REMARK    4  A    between atoms: N_9  and  N_13 
REMARK    5  A    between atoms: C_12  and  N_9 
ROOT
ATOM      1  C   UNL d   1       7.163  -5.116   0.000  0.00  0.00     0.164 A 
ATOM      2  C   UNL d   1       7.178  -4.288   0.000  0.00  0.00     0.047 A 
ATOM      3  N   UNL d   1       5.740  -5.087   0.000  0.00  0.00    -0.148 NA
ATOM      4  N   UNL d   1       6.447  -5.518   0.000  0.00  0.00    -0.143 NA
ATOM      5  C   UNL d   1       5.755  -4.259   0.000  0.00  0.00     0.105 A 
ENDROOT
BRANCH   1   6
ATOM      6  C   UNL d   1       7.875  -5.537   0.000  0.00  0.00     0.316 C 
ATOM      7  N   UNL d   1       8.760  -5.125   0.000  0.00  0.00    -0.104 NA
ATOM      8  O   UNL d   1       7.855  -6.365   0.000  0.00  0.00    -0.262 OA
BRANCH   7   9
ATOM      9  N   UNL d   1       9.690  -5.522   0.000  0.00  0.00    -0.143 NA
BRANCH   9  10
ATOM     10  C   UNL d   1      10.387  -5.009   0.000  0.00  0.00     0.129 C 
BRANCH  10  11
ATOM     11  C   UNL d   1      11.185  -5.358   0.000  0.00  0.00     0.050 A 
ATOM     12  S   UNL d   1      11.795  -4.908   0.000  0.00  0.00    -0.085 SA
ATOM     13  C   UNL d   1      12.492  -5.213   0.000  0.00  0.00     0.035 A 
ATOM     14  C   UNL d   1      12.579  -5.968   0.000  0.00  0.00     0.007 A 
ATOM     15  C   UNL d   1      11.272  -6.113   0.000  0.00  0.00     0.009 A 
ENDBRANCH  10  11
ENDBRANCH   9  10
ENDBRANCH   7   9
ENDBRANCH   1   6
BRANCH   5  16
ATOM     16  C   UNL d   1       5.184  -3.664   0.000  0.00  0.00     0.019 A 
ATOM     17  C   UNL d   1       4.385  -3.867   0.000  0.00  0.00     0.002 A 
ATOM     18  C   UNL d   1       3.809  -3.272   0.000  0.00  0.00     0.000 A 
ATOM     19  C   UNL d   1       3.010  -3.470   0.000  0.00  0.00     0.000 A 
ATOM     20  C   UNL d   1       4.041  -2.473   0.000  0.00  0.00     0.000 A 
ATOM     21  C   UNL d   1       2.439  -2.880   0.000  0.00  0.00     0.000 A 
ATOM     22  C   UNL d   1       2.662  -2.081   0.000  0.00  0.00     0.000 A 
ATOM     23  C   UNL d   1       3.461  -1.878   0.000  0.00  0.00     0.000 A 
ATOM     24  C   UNL d   1       4.835  -2.284   0.000  0.00  0.00     0.000 A 
ATOM     25  C   UNL d   1       5.406  -2.880   0.000  0.00  0.00     0.002 A 
ENDBRANCH   5  16
TORSDOF 5
