REMARK  5 active torsions:
REMARK  status: ('A' for Active; 'I' for Inactive)
REMARK    1  A    between atoms: C_6  and  C_1 
REMARK    2  A    between atoms: C_9  and  C_5 
REMARK       I    between atoms: N_13  and  C_6 
REMARK    3  A    between atoms: C_7  and  C_15 
REMARK    4  A    between atoms: N_10  and  N_13 
REMARK    5  A    between atoms: C_15  and  N_10 
ROOT
ATOM      1  C   UNL d   1       7.811  -5.492   0.000  0.00  0.00     0.316 C 
ATOM      2  N   UNL d   1       8.690  -5.084   0.000  0.00  0.00    -0.104 NA
ATOM      3  O   UNL d   1       7.792  -6.313   0.000  0.00  0.00    -0.262 OA
ENDROOT
BRANCH   1   4
ATOM      4  C   UNL d   1       7.106  -5.075   0.000  0.00  0.00     0.164 A 
ATOM      5  C   UNL d   1       7.120  -4.254   0.000  0.00  0.00     0.047 A 
ATOM      6  C   UNL d   1       5.708  -4.225   0.000  0.00  0.00     0.105 A 
ATOM      7  N   UNL d   1       5.694  -5.046   0.000  0.00  0.00    -0.148 NA
ATOM      8  N   UNL d   1       6.395  -5.473   0.000  0.00  0.00    -0.143 NA
BRANCH   6   9
ATOM      9  C   UNL d   1       5.142  -3.634   0.000  0.00  0.00     0.019 A 
ATOM     10  C   UNL d   1       4.350  -3.836   0.000  0.00  0.00     0.002 A 
ATOM     11  C   UNL d   1       3.778  -3.245   0.000  0.00  0.00     0.000 A 
ATOM     12  C   UNL d   1       2.986  -3.442   0.000  0.00  0.00     0.000 A 
ATOM     13  C   UNL d   1       4.009  -2.453   0.000  0.00  0.00     0.000 A 
ATOM     14  C   UNL d   1       2.420  -2.857   0.000  0.00  0.00     0.000 A 
ATOM     15  C   UNL d   1       2.641  -2.064   0.000  0.00  0.00     0.000 A 
ATOM     16  C   UNL d   1       3.433  -1.863   0.000  0.00  0.00     0.000 A 
ATOM     17  C   UNL d   1       4.796  -2.266   0.000  0.00  0.00     0.000 A 
ATOM     18  C   UNL d   1       5.363  -2.857   0.000  0.00  0.00     0.002 A 
ENDBRANCH   6   9
ENDBRANCH   1   4
BRANCH   2  19
ATOM     19  N   UNL d   1       9.612  -5.478   0.000  0.00  0.00    -0.143 NA
BRANCH  19  20
ATOM     20  C   UNL d   1      10.303  -4.969   0.000  0.00  0.00     0.126 C 
BRANCH  20  21
ATOM     21  C   UNL d   1      11.095  -5.315   0.000  0.00  0.00     0.060 A 
ATOM     22  C   UNL d   1      11.196  -6.169   0.000  0.00  0.00     0.005 A 
ATOM     23  C   UNL d   1      11.988  -6.515   0.000  0.00  0.00     0.000 A 
ATOM     24  C   UNL d   1      10.500  -6.688   0.000  0.00  0.00     0.000 A 
ATOM     25  C   UNL d   1      12.089  -7.379   0.000  0.00  0.00     0.000 A 
ATOM     26  C   UNL d   1      12.689  -6.006   0.000  0.00  0.00     0.003 A 
ATOM     27  C   UNL d   1      11.393  -7.893   0.000  0.00  0.00     0.000 A 
ATOM     28  C   UNL d   1      10.601  -7.552   0.000  0.00  0.00     0.000 A 
ATOM     29  C   UNL d   1      12.579  -5.147   0.000  0.00  0.00     0.042 A 
ATOM     30  C   UNL d   1      11.786  -4.801   0.000  0.00  0.00     0.197 A 
ATOM     31  O   UNL d   1      11.686  -3.951   0.000  0.00  0.00    -0.286 OA
ENDBRANCH  20  21
ENDBRANCH  19  20
ENDBRANCH   2  19
TORSDOF 5
