REMARK  7 active torsions:
REMARK  status: ('A' for Active; 'I' for Inactive)
REMARK    1  A    between atoms: C_3  and  C_1 
REMARK    2  A    between atoms: O_13  and  C_1 
REMARK       I    between atoms: C_2  and  N_7 
REMARK    3  A    between atoms: C_4  and  C_2 
REMARK    4  A    between atoms: C_6  and  C_4 
REMARK    5  A    between atoms: C_5  and  C_6 
REMARK    6  A    between atoms: O_14  and  C_5 
REMARK    7  A    between atoms: N_7  and  C_9 
ROOT
ATOM      1  C   UNL d   1      11.125  -1.157   0.000  0.00  0.00     0.063 A 
ATOM      2  C   UNL d   1      11.847  -1.564   0.000  0.00  0.00     0.023 A 
ATOM      3  C   UNL d   1      12.551  -1.140   0.000  0.00  0.00     0.059 A 
ATOM      4  C   UNL d   1      11.108  -0.332   0.000  0.00  0.00     0.006 A 
ATOM      5  C   UNL d   1      11.812   0.086   0.000  0.00  0.00     0.002 A 
ATOM      6  C   UNL d   1      12.534  -0.315   0.000  0.00  0.00     0.017 A 
ENDROOT
BRANCH   3   7
ATOM      7  N   UNL d   1      13.273  -1.535   0.000  0.00  0.00    -0.321 N 
ATOM      8  C   UNL d   1      13.972  -1.117   0.000  0.00  0.00     0.258 C 
ATOM      9  O   UNL d   1      13.944  -0.298   0.000  0.00  0.00    -0.267 OA
ATOM     10  H   UNL d   1      13.290  -2.354   0.000  0.00  0.00     0.169 HD
BRANCH   8  11
ATOM     11  C   UNL d   1      14.682  -1.512   0.000  0.00  0.00     0.067 C 
BRANCH  11  12
ATOM     12  C   UNL d   1      15.381  -1.089   0.000  0.00  0.00     0.072 C 
BRANCH  12  13
ATOM     13  C   UNL d   1      15.370  -0.264   0.000  0.00  0.00     0.178 C 
ATOM     14  O   UNL d   1      14.648   0.132   0.000  0.00  0.00    -0.646 OA
BRANCH  13  15
ATOM     15  O   UNL d   1      16.075   0.166   0.000  0.00  0.00    -0.773 OA
ATOM     16  H   UNL d   1      16.796  -0.241   0.000  0.00  0.00     0.167 HD
ENDBRANCH  13  15
ENDBRANCH  12  13
ENDBRANCH  11  12
ENDBRANCH   8  11
ENDBRANCH   3   7
BRANCH   1  17
ATOM     17  C   UNL d   1      10.420  -1.587   0.000  0.00  0.00     0.178 C 
ATOM     18  O   UNL d   1      10.432  -2.412   0.000  0.00  0.00    -0.646 OA
BRANCH  17  19
ATOM     19  O   UNL d   1       9.699  -1.186   0.000  0.00  0.00    -0.773 OA
ATOM     20  H   UNL d   1       9.681  -0.361   0.000  0.00  0.00     0.167 HD
ENDBRANCH  17  19
ENDBRANCH   1  17
TORSDOF 7
