REMARK  6 active torsions:
REMARK  status: ('A' for Active; 'I' for Inactive)
REMARK    1  A    between atoms: C_5  and  C_1 
REMARK       I    between atoms: N_10  and  C_5 
REMARK    2  A    between atoms: C_9  and  C_6 
REMARK    3  A    between atoms: C_17  and  N_7 
REMARK    4  A    between atoms: O_23  and  C_8 
REMARK    5  A    between atoms: O_25  and  C_12 
REMARK    6  A    between atoms: C_18  and  C_17 
ROOT
ATOM      1  C   UNL d   1       7.653  -5.326   0.000  0.00  0.00     0.316 C 
ATOM      2  N   UNL d   1       9.727  -5.062   0.000  0.00  0.00    -0.143 NA
ATOM      3  N   UNL d   1       8.598  -4.610   0.000  0.00  0.00    -0.104 NA
ATOM      4  O   UNL d   1       7.758  -6.137   0.000  0.00  0.00    -0.262 OA
ENDROOT
BRANCH   1   5
ATOM      5  C   UNL d   1       6.897  -5.003   0.000  0.00  0.00     0.164 A 
ATOM      6  C   UNL d   1       6.793  -4.197   0.000  0.00  0.00     0.047 A 
ATOM      7  C   UNL d   1       5.386  -4.376   0.000  0.00  0.00     0.105 A 
ATOM      8  N   UNL d   1       5.495  -5.192   0.000  0.00  0.00    -0.148 NA
ATOM      9  N   UNL d   1       6.241  -5.505   0.000  0.00  0.00    -0.143 NA
BRANCH   7  10
ATOM     10  C   UNL d   1       4.734  -3.879   0.000  0.00  0.00     0.019 A 
ATOM     11  C   UNL d   1       3.983  -4.182   0.000  0.00  0.00     0.002 A 
ATOM     12  C   UNL d   1       3.332  -3.690   0.000  0.00  0.00     0.011 A 
ATOM     13  C   UNL d   1       3.446  -2.879   0.000  0.00  0.00     0.058 A 
ATOM     14  C   UNL d   1       4.197  -2.566   0.000  0.00  0.00     0.011 A 
ATOM     15 CL   UNL d   1       2.795  -2.377   0.000  0.00  0.00    -0.082 Cl
ATOM     16  C   UNL d   1       4.849  -3.063   0.000  0.00  0.00     0.002 A 
ENDBRANCH   7  10
ENDBRANCH   1   5
BRANCH   2  17
ATOM     17  C   UNL d   1      10.398  -4.550   0.000  0.00  0.00     0.122 C 
BRANCH  17  18
ATOM     18  C   UNL d   1      11.224  -4.883   0.000  0.00  0.00     0.023 A 
ATOM     19  C   UNL d   1      11.343  -5.774   0.000  0.00  0.00     0.028 A 
ATOM     20  C   UNL d   1      12.179  -6.107   0.000  0.00  0.00     0.116 A 
ATOM     21  C   UNL d   1      12.890  -5.555   0.000  0.00  0.00     0.116 A 
ATOM     22  C   UNL d   1      12.761  -4.675   0.000  0.00  0.00     0.026 A 
ATOM     23  C   UNL d   1      11.925  -4.331   0.000  0.00  0.00     0.004 A 
BRANCH  20  24
ATOM     24  O   UNL d   1      12.298  -6.997   0.000  0.00  0.00    -0.326 OA
ATOM     25  C   UNL d   1      11.592  -7.539   0.000  0.00  0.00     0.181 C 
ENDBRANCH  20  24
BRANCH  21  26
ATOM     26  O   UNL d   1      13.715  -5.898   0.000  0.00  0.00    -0.326 OA
ATOM     27  C   UNL d   1      14.416  -5.346   0.000  0.00  0.00     0.181 C 
ENDBRANCH  21  26
ENDBRANCH  17  18
ENDBRANCH   2  17
TORSDOF 6
