REMARK  6 active torsions:
REMARK  status: ('A' for Active; 'I' for Inactive)
REMARK    1  A    between atoms: C_6  and  C_1 
REMARK    2  A    between atoms: N_7  and  C_2 
REMARK    3  A    between atoms: C_8  and  N_5 
REMARK    4  A    between atoms: O_13  and  C_6 
REMARK    5  A    between atoms: C_18  and  O_13 
REMARK    6  A    between atoms: O_17  and  C_14 
ROOT
ATOM      1  C   UNL d   1       4.280  -0.542   0.000  0.00  0.00     0.112 A 
ATOM      2  C   UNL d   1       3.855  -1.817   0.000  0.00  0.00     0.172 A 
ATOM      3  C   UNL d   1       3.455  -0.542   0.000  0.00  0.00     0.077 A 
ATOM      4  S   UNL d   1       4.530  -1.330   0.000  0.00  0.00    -0.044 SA
ATOM      5  N   UNL d   1       3.193  -1.330   0.000  0.00  0.00    -0.287 N 
ATOM      6  C   UNL d   1       2.976   0.138   0.000  0.00  0.00     0.020 C 
ENDROOT
BRANCH   5   7
ATOM      7  C   UNL d   1       2.417  -1.613   0.000  0.00  0.00     0.066 A 
ATOM      8  C   UNL d   1       2.280  -2.426   0.000  0.00  0.00     0.020 A 
ATOM      9  C   UNL d   1       1.505  -2.705   0.000  0.00  0.00     0.026 A 
ATOM     10  C   UNL d   1       0.875  -2.180   0.000  0.00  0.00     0.094 A 
ATOM     11  C   UNL d   1       1.017  -1.367   0.000  0.00  0.00     0.026 A 
ATOM     12  C   UNL d   1       1.792  -1.088   0.000  0.00  0.00     0.020 A 
BRANCH  10  13
ATOM     13  O   UNL d   1       0.092  -2.463   0.000  0.00  0.00    -0.328 OA
ATOM     14  C   UNL d   1      -0.050  -3.276   0.000  0.00  0.00     0.181 C 
ENDBRANCH  10  13
ENDBRANCH   5   7
BRANCH   2  15
ATOM     15  N   UNL d   1       3.855  -2.643   0.000  0.00  0.00    -0.277 NA
ATOM     16  H   UNL d   1       4.568  -3.055   0.000  0.00  0.00     0.189 HD
ENDBRANCH   2  15
BRANCH   1  17
ATOM     17  C   UNL d   1       4.768   0.125   0.000  0.00  0.00     0.308 C 
ATOM     18  O   UNL d   1       4.439   0.875   0.000  0.00  0.00    -0.258 OA
BRANCH  17  19
ATOM     19  O   UNL d   1       5.593   0.033   0.000  0.00  0.00    -0.271 OA
BRANCH  19  20
ATOM     20  C   UNL d   1       5.931  -0.717   0.000  0.00  0.00     0.126 C 
ATOM     21  C   UNL d   1       6.752  -0.804   0.000  0.00  0.00     0.029 C 
ENDBRANCH  19  20
ENDBRANCH  17  19
ENDBRANCH   1  17
TORSDOF 6
