REMARK  7 active torsions:
REMARK  status: ('A' for Active; 'I' for Inactive)
REMARK    1  A    between atoms: C_11  and  C_3 
REMARK    2  A    between atoms: C_10  and  C_4 
REMARK    3  A    between atoms: O_15  and  C_10 
REMARK    4  A    between atoms: N_14  and  C_11 
REMARK    5  A    between atoms: C_20  and  N_14 
REMARK    6  A    between atoms: C_22  and  O_15 
REMARK    7  A    between atoms: C_21  and  C_20 
ROOT
ATOM      1  C   UNL d   1      -2.468  -1.513   0.000  0.00  0.00     0.035 A 
ATOM      2  C   UNL d   1      -3.184  -1.923   0.000  0.00  0.00     0.100 A 
ATOM      3  C   UNL d   1      -2.468  -0.689   0.000  0.00  0.00     0.060 A 
ATOM      4  C   UNL d   1      -1.837  -2.054   0.000  0.00  0.00     0.088 A 
ATOM      5  O   UNL d   1      -2.986  -2.742   0.000  0.00  0.00    -0.307 OA
ATOM      6  C   UNL d   1      -2.162  -2.810   0.000  0.00  0.00     0.105 A 
ATOM      7  C   UNL d   1      -3.184  -0.275   0.000  0.00  0.00     0.197 A 
ATOM      8  C   UNL d   1      -3.891  -1.513   0.000  0.00  0.00     0.026 A 
ATOM      9  C   UNL d   1      -3.891  -0.689   0.000  0.00  0.00     0.041 A 
ATOM     10  O   UNL d   1      -3.184   0.563   0.000  0.00  0.00    -0.286 OA
ATOM     11  C   UNL d   1      -1.711  -3.544   0.000  0.00  0.00     0.027 C 
ATOM     12  C   UNL d   1      -4.616  -1.923   0.000  0.00  0.00     0.002 A 
ATOM     13  C   UNL d   1      -4.616  -0.275   0.000  0.00  0.00     0.003 A 
ATOM     14  C   UNL d   1      -5.318  -0.689   0.000  0.00  0.00     0.000 A 
ATOM     15  C   UNL d   1      -5.318  -1.513   0.000  0.00  0.00     0.000 A 
ENDROOT
BRANCH   3  16
ATOM     16  C   UNL d   1      -1.729  -0.302   0.000  0.00  0.00     0.102 C 
BRANCH  16  17
ATOM     17  N   UNL d   1      -1.711   0.540   0.000  0.00  0.00    -0.239 NA
BRANCH  17  18
ATOM     18  C   UNL d   1      -0.973   0.932   0.000  0.00  0.00     0.144 C 
BRANCH  18  19
ATOM     19  C   UNL d   1      -0.955   1.752   0.000  0.00  0.00     0.255 C 
ATOM     20  O   UNL d   1      -0.239   2.162   0.000  0.00  0.00    -0.281 OA
ENDBRANCH  18  19
ENDBRANCH  17  18
ENDBRANCH  16  17
ENDBRANCH   3  16
BRANCH   4  21
ATOM     21  C   UNL d   1      -0.995  -1.896   0.000  0.00  0.00     0.302 C 
ATOM     22  O   UNL d   1      -0.716  -1.121   0.000  0.00  0.00    -0.259 OA
BRANCH  21  23
ATOM     23  O   UNL d   1      -0.482  -2.526   0.000  0.00  0.00    -0.271 OA
BRANCH  23  24
ATOM     24  C   UNL d   1      -0.756  -3.301   0.000  0.00  0.00     0.126 C 
ATOM     25  C   UNL d   1      -0.216  -3.931   0.000  0.00  0.00     0.029 C 
ENDBRANCH  23  24
ENDBRANCH  21  23
ENDBRANCH   4  21
TORSDOF 7
