REMARK  7 active torsions:
REMARK  status: ('A' for Active; 'I' for Inactive)
REMARK    1  A    between atoms: C_11  and  C_3 
REMARK    2  A    between atoms: C_10  and  C_4 
REMARK    3  A    between atoms: O_16  and  C_10 
REMARK    4  A    between atoms: N_14  and  C_11 
REMARK    5  A    between atoms: C_21  and  N_14 
REMARK    6  A    between atoms: C_23  and  O_16 
REMARK    7  A    between atoms: C_20  and  C_21 
ROOT
ATOM      1  C   UNL d   1      -2.951  -1.485   0.000  0.00  0.00     0.035 A 
ATOM      2  C   UNL d   1      -3.679  -1.889   0.000  0.00  0.00     0.100 A 
ATOM      3  C   UNL d   1      -2.951  -0.662   0.000  0.00  0.00     0.060 A 
ATOM      4  C   UNL d   1      -2.337  -2.032   0.000  0.00  0.00     0.088 A 
ATOM      5  O   UNL d   1      -3.498  -2.718   0.000  0.00  0.00    -0.307 OA
ATOM      6  C   UNL d   1      -2.699  -2.784   0.000  0.00  0.00     0.105 A 
ATOM      7  C   UNL d   1      -3.679  -0.247   0.000  0.00  0.00     0.197 A 
ATOM      8  C   UNL d   1      -4.412  -1.485   0.000  0.00  0.00     0.026 A 
ATOM      9  C   UNL d   1      -4.412  -0.662   0.000  0.00  0.00     0.041 A 
ATOM     10  O   UNL d   1      -3.679   0.595   0.000  0.00  0.00    -0.286 OA
ATOM     11  C   UNL d   1      -2.284  -3.517   0.000  0.00  0.00     0.027 C 
ATOM     12  C   UNL d   1      -5.121  -1.889   0.000  0.00  0.00     0.002 A 
ATOM     13  C   UNL d   1      -5.121  -0.247   0.000  0.00  0.00     0.003 A 
ATOM     14  C   UNL d   1      -5.849  -0.662   0.000  0.00  0.00     0.000 A 
ATOM     15  C   UNL d   1      -5.849  -1.485   0.000  0.00  0.00     0.000 A 
ENDROOT
BRANCH   3  16
ATOM     16  C   UNL d   1      -2.194  -0.271   0.000  0.00  0.00     0.102 C 
BRANCH  16  17
ATOM     17  N   UNL d   1      -2.180   0.595   0.000  0.00  0.00    -0.240 NA
BRANCH  17  18
ATOM     18  C   UNL d   1      -1.442   0.985   0.000  0.00  0.00     0.124 C 
BRANCH  18  19
ATOM     19  C   UNL d   1      -1.423   1.808   0.000  0.00  0.00     0.119 A 
ATOM     20  O   UNL d   1      -0.685   2.223   0.000  0.00  0.00    -0.304 OA
ATOM     21  C   UNL d   1      -0.852   3.022   0.000  0.00  0.00     0.123 A 
ATOM     22  C   UNL d   1      -1.651   3.108   0.000  0.00  0.00     0.029 A 
ATOM     23  C   UNL d   1      -2.013   2.380   0.000  0.00  0.00     0.028 A 
ENDBRANCH  18  19
ENDBRANCH  17  18
ENDBRANCH  16  17
ENDBRANCH   3  16
BRANCH   4  24
ATOM     24  C   UNL d   1      -1.509  -1.889   0.000  0.00  0.00     0.302 C 
ATOM     25  O   UNL d   1      -1.214  -1.090   0.000  0.00  0.00    -0.259 OA
BRANCH  24  26
ATOM     26  O   UNL d   1      -0.966  -2.513   0.000  0.00  0.00    -0.271 OA
BRANCH  26  27
ATOM     27  C   UNL d   1      -1.237  -3.289   0.000  0.00  0.00     0.126 C 
ATOM     28  C   UNL d   1      -0.709  -3.903   0.000  0.00  0.00     0.029 C 
ENDBRANCH  26  27
ENDBRANCH  24  26
ENDBRANCH   4  24
TORSDOF 7
