REMARK  6 active torsions:
REMARK  status: ('A' for Active; 'I' for Inactive)
REMARK    1  A    between atoms: C_7  and  S_1 
REMARK    2  A    between atoms: N_9  and  S_1 
REMARK    3  A    between atoms: C_20  and  N_2 
REMARK    4  A    between atoms: C_10  and  N_9 
REMARK    5  A    between atoms: O_24  and  C_13 
REMARK    6  A    between atoms: O_25  and  C_19 
ROOT
ATOM      1  N   UNL d   1       1.731   0.693   0.000  0.00  0.00    -0.273 N 
ATOM      2  C   UNL d   1       2.281   1.618   0.000  0.00  0.00     0.265 A 
ATOM      3  C   UNL d   1       0.960   0.942   0.000  0.00  0.00     0.067 A 
ATOM      4  C   UNL d   1       0.960   1.762   0.000  0.00  0.00     0.021 A 
ATOM      5  C   UNL d   1       1.675   2.180   0.000  0.00  0.00     0.058 A 
ATOM      6  C   UNL d   1      -0.484   1.762   0.000  0.00  0.00     0.105 A 
ATOM      7  C   UNL d   1       0.249   2.180   0.000  0.00  0.00     0.014 A 
ATOM      8  C   UNL d   1       0.249   0.523   0.000  0.00  0.00     0.018 A 
ATOM      9  C   UNL d   1      -0.484   0.942   0.000  0.00  0.00     0.014 A 
ATOM     10  O   UNL d   1       3.075   1.867   0.000  0.00  0.00    -0.267 OA
ATOM     11  C   UNL d   1       1.675   2.996   0.000  0.00  0.00     0.005 A 
ATOM     12  C   UNL d   1       0.249   2.996   0.000  0.00  0.00     0.001 A 
ATOM     13  C   UNL d   1       0.960   3.423   0.000  0.00  0.00     0.000 A 
ENDROOT
BRANCH   6  14
ATOM     14  S   UNL d   1      -1.199   2.180   0.000  0.00  0.00     0.285 S 
ATOM     15  O   UNL d   1      -1.618   1.465   0.000  0.00  0.00    -0.198 OA
ATOM     16  O   UNL d   1      -0.781   2.900   0.000  0.00  0.00    -0.198 OA
BRANCH  14  17
ATOM     17  N   UNL d   1      -1.906   2.599   0.000  0.00  0.00    -0.156 NA
BRANCH  17  18
ATOM     18  C   UNL d   1      -2.617   2.198   0.000  0.00  0.00     0.116 A 
ATOM     19  C   UNL d   1      -3.310   2.617   0.000  0.00  0.00     0.114 A 
ATOM     20  C   UNL d   1      -4.025   2.220   0.000  0.00  0.00     0.050 A 
ATOM     21  C   UNL d   1      -4.064   1.409   0.000  0.00  0.00     0.096 A 
ATOM     22  C   UNL d   1      -3.332   0.990   0.000  0.00  0.00     0.026 A 
ATOM     23  C   UNL d   1      -2.617   1.382   0.000  0.00  0.00     0.024 A 
BRANCH  19  24
ATOM     24  O   UNL d   1      -3.292   3.454   0.000  0.00  0.00    -0.327 OA
ATOM     25  C   UNL d   1      -2.560   3.855   0.000  0.00  0.00     0.181 C 
ENDBRANCH  19  24
BRANCH  21  26
ATOM     26  O   UNL d   1      -4.797   0.990   0.000  0.00  0.00    -0.328 OA
ATOM     27  C   UNL d   1      -5.517   1.426   0.000  0.00  0.00     0.181 C 
ENDBRANCH  21  26
ENDBRANCH  17  18
ENDBRANCH  14  17
ENDBRANCH   6  14
BRANCH   1  28
ATOM     28  C   UNL d   1       1.901  -0.122   0.000  0.00  0.00     0.083 C 
ATOM     29  C   UNL d   1       1.295  -0.667   0.000  0.00  0.00     0.021 C 
ENDBRANCH   1  28
TORSDOF 6
