REMARK  8 active torsions:
REMARK  status: ('A' for Active; 'I' for Inactive)
REMARK    1  A    between atoms: C_11  and  C_3 
REMARK    2  A    between atoms: C_10  and  C_4 
REMARK    3  A    between atoms: O_18  and  C_10 
REMARK    4  A    between atoms: N_17  and  C_11 
REMARK    5  A    between atoms: C_12  and  C_15 
REMARK    6  A    between atoms: C_15  and  C_23 
REMARK    7  A    between atoms: C_23  and  N_17 
REMARK    8  A    between atoms: C_24  and  O_18 
ROOT
ATOM      1  C   UNL d   1      -1.607  -2.457   0.000  0.00  0.00     0.035 A 
ATOM      2  C   UNL d   1      -2.325  -2.872   0.000  0.00  0.00     0.100 A 
ATOM      3  C   UNL d   1      -1.607  -1.630   0.000  0.00  0.00     0.060 A 
ATOM      4  C   UNL d   1      -0.998  -2.998   0.000  0.00  0.00     0.088 A 
ATOM      5  O   UNL d   1      -2.149  -3.648   0.000  0.00  0.00    -0.307 OA
ATOM      6  C   UNL d   1      -1.350  -3.739   0.000  0.00  0.00     0.105 A 
ATOM      7  C   UNL d   1      -2.325  -1.224   0.000  0.00  0.00     0.197 A 
ATOM      8  C   UNL d   1      -3.016  -2.457   0.000  0.00  0.00     0.026 A 
ATOM      9  C   UNL d   1      -3.016  -1.630   0.000  0.00  0.00     0.041 A 
ATOM     10  O   UNL d   1      -2.325  -0.379   0.000  0.00  0.00    -0.286 OA
ATOM     11  C   UNL d   1      -0.935  -4.448   0.000  0.00  0.00     0.027 C 
ATOM     12  C   UNL d   1      -3.734  -2.872   0.000  0.00  0.00     0.002 A 
ATOM     13  C   UNL d   1      -3.734  -1.224   0.000  0.00  0.00     0.003 A 
ATOM     14  C   UNL d   1      -4.443  -1.630   0.000  0.00  0.00     0.000 A 
ATOM     15  C   UNL d   1      -4.443  -2.457   0.000  0.00  0.00     0.000 A 
ENDROOT
BRANCH   3  16
ATOM     16  C   UNL d   1      -0.867  -1.197   0.000  0.00  0.00     0.102 C 
BRANCH  16  17
ATOM     17  N   UNL d   1      -0.867  -0.357   0.000  0.00  0.00    -0.242 NA
BRANCH  17  18
ATOM     18  C   UNL d   1      -0.176   0.054   0.000  0.00  0.00     0.105 C 
BRANCH  18  19
ATOM     19  C   UNL d   1      -0.176   0.880   0.000  0.00  0.00     0.091 C 
BRANCH  19  20
ATOM     20  C   UNL d   1       0.542   1.296   0.000  0.00  0.00     0.213 C 
ATOM     21  O   UNL d   1       0.542   2.122   0.000  0.00  0.00    -0.644 OA
ATOM     22  O   UNL d   1       1.251   0.880   0.000  0.00  0.00    -0.644 OA
ENDBRANCH  19  20
ENDBRANCH  18  19
ENDBRANCH  17  18
ENDBRANCH  16  17
ENDBRANCH   3  16
BRANCH   4  23
ATOM     23  C   UNL d   1      -0.176  -2.872   0.000  0.00  0.00     0.302 C 
ATOM     24  O   UNL d   1       0.127  -2.091   0.000  0.00  0.00    -0.259 OA
BRANCH  23  25
ATOM     25  O   UNL d   1       0.343  -3.499   0.000  0.00  0.00    -0.271 OA
BRANCH  25  26
ATOM     26  C   UNL d   1       0.059  -4.258   0.000  0.00  0.00     0.126 C 
ATOM     27  C   UNL d   1       0.601  -4.863   0.000  0.00  0.00     0.029 C 
ENDBRANCH  25  26
ENDBRANCH  23  25
ENDBRANCH   4  23
TORSDOF 8
