REMARK  2 active torsions:
REMARK  status: ('A' for Active; 'I' for Inactive)
REMARK    1  A    between atoms: C_9  and  C_4 
REMARK    2  A    between atoms: N_6  and  C_8 
ROOT
ATOM      1  N   UNL d   1       1.595  -0.589   0.000  0.00  0.00    -0.211 NA
ATOM      2  C   UNL d   1       0.781  -0.455   0.000  0.00  0.00     0.140 A 
ATOM      3  C   UNL d   1       0.267  -1.094   0.000  0.00  0.00     0.051 A 
ATOM      4  C   UNL d   1       1.891  -1.357   0.000  0.00  0.00     0.183 A 
ATOM      5  C   UNL d   1       0.555  -1.870   0.000  0.00  0.00     0.104 A 
ATOM      6  O   UNL d   1       1.378  -2.004   0.000  0.00  0.00    -0.289 OA
ATOM      7  S   UNL d   1       0.488   0.313   0.000  0.00  0.00    -0.057 SA
ATOM      8  C   UNL d   1      -0.547  -0.964   0.000  0.00  0.00     0.004 A 
ATOM      9  C   UNL d   1       0.042  -2.509   0.000  0.00  0.00     0.025 A 
ATOM     10  C   UNL d   1      -1.073  -1.603   0.000  0.00  0.00     0.000 A 
ATOM     11  C   UNL d   1      -0.776  -2.371   0.000  0.00  0.00     0.002 A 
ENDROOT
BRANCH   4  12
ATOM     12  C   UNL d   1       2.710  -1.482   0.000  0.00  0.00     0.041 A 
ATOM     13  C   UNL d   1       2.998  -2.259   0.000  0.00  0.00     0.005 A 
ATOM     14  C   UNL d   1       3.812  -2.384   0.000  0.00  0.00     0.024 A 
ATOM     15  C   UNL d   1       4.338  -1.745   0.000  0.00  0.00     0.127 A 
ATOM     16  C   UNL d   1       4.037  -0.969   0.000  0.00  0.00     0.024 A 
ATOM     17  C   UNL d   1       3.223  -0.843   0.000  0.00  0.00     0.005 A 
BRANCH  15  18
ATOM     18  N   UNL d   1       5.152  -1.879   0.000  0.00  0.00    -0.114 N 
ATOM     19  O   UNL d   1       5.448  -2.647   0.000  0.00  0.00    -0.532 OA
ATOM     20  O   UNL d   1       5.678  -1.240   0.000  0.00  0.00    -0.532 OA
ENDBRANCH  15  18
ENDBRANCH   4  12
TORSDOF 2
