REMARK  11 active torsions:
REMARK  status: ('A' for Active; 'I' for Inactive)
REMARK    1  A    between atoms: C_7  and  C_1 
REMARK    2  A    between atoms: C_8  and  C_2 
REMARK    3  A    between atoms: S_9  and  C_3 
REMARK    4  A    between atoms: C_11  and  C_4 
REMARK    5  A    between atoms: O_20  and  C_7 
REMARK    6  A    between atoms: C_15  and  S_9 
REMARK    7  A    between atoms: C_12  and  C_15 
REMARK    8  A    between atoms: O_24  and  C_12 
REMARK    9  A    between atoms: C_18  and  C_26 
REMARK   10  A    between atoms: C_26  and  O_20 
REMARK   11  A    between atoms: C_27  and  O_24 
ROOT
ATOM      1  C   UNL d   1      -2.397  -2.375   0.000  0.00  0.00     0.081 A 
ATOM      2  C   UNL d   1      -0.962  -2.358   0.000  0.00  0.00     0.045 A 
ATOM      3  C   UNL d   1      -0.962  -3.209   0.000  0.00  0.00     0.112 A 
ATOM      4  C   UNL d   1      -1.685  -1.958   0.000  0.00  0.00     0.010 A 
ATOM      5  C   UNL d   1      -2.397  -3.203   0.000  0.00  0.00     0.087 A 
ATOM      6  N   UNL d   1      -1.685  -3.609   0.000  0.00  0.00    -0.239 NA
ATOM      7  C   UNL d   1      -3.098  -3.643   0.000  0.00  0.00     0.021 C 
ENDROOT
BRANCH   3   8
ATOM      8  S   UNL d   1      -0.245  -3.670   0.000  0.00  0.00    -0.062 SA
BRANCH   8   9
ATOM      9  C   UNL d   1       0.473  -3.276   0.000  0.00  0.00     0.105 C 
BRANCH   9  10
ATOM     10  C   UNL d   1       1.173  -3.720   0.000  0.00  0.00     0.307 C 
ATOM     11  O   UNL d   1       1.140  -4.538   0.000  0.00  0.00    -0.258 OA
BRANCH  10  12
ATOM     12  O   UNL d   1       1.891  -3.337   0.000  0.00  0.00    -0.271 OA
BRANCH  12  13
ATOM     13  C   UNL d   1       2.586  -3.776   0.000  0.00  0.00     0.126 C 
ATOM     14  C   UNL d   1       3.309  -3.387   0.000  0.00  0.00     0.029 C 
ENDBRANCH  12  13
ENDBRANCH  10  12
ENDBRANCH   9  10
ENDBRANCH   8   9
ENDBRANCH   3   8
BRANCH   2  15
ATOM     15  C   UNL d   1      -0.245  -1.908   0.000  0.00  0.00     0.124 C 
ATOM     16  N   UNL d   1       0.473  -2.291   0.000  0.00  0.00    -0.146 N 
ENDBRANCH   2  15
BRANCH   4  17
ATOM     17  C   UNL d   1      -1.685  -1.135   0.000  0.00  0.00     0.000 A 
ATOM     18  C   UNL d   1      -0.962  -0.734   0.000  0.00  0.00     0.000 A 
ATOM     19  C   UNL d   1      -0.934   0.083   0.000  0.00  0.00     0.000 A 
ATOM     20  C   UNL d   1      -1.685   0.528   0.000  0.00  0.00     0.000 A 
ATOM     21  C   UNL d   1      -2.397   0.111   0.000  0.00  0.00     0.000 A 
ATOM     22  C   UNL d   1      -1.696   1.351   0.000  0.00  0.00     0.000 C 
ATOM     23  C   UNL d   1      -2.397  -0.717   0.000  0.00  0.00     0.000 A 
ENDBRANCH   4  17
BRANCH   1  24
ATOM     24  C   UNL d   1      -3.131  -1.941   0.000  0.00  0.00     0.302 C 
ATOM     25  O   UNL d   1      -3.131  -1.118   0.000  0.00  0.00    -0.259 OA
BRANCH  24  26
ATOM     26  O   UNL d   1      -3.832  -2.358   0.000  0.00  0.00    -0.271 OA
BRANCH  26  27
ATOM     27  C   UNL d   1      -3.832  -3.187   0.000  0.00  0.00     0.126 C 
BRANCH  27  28
ATOM     28  C   UNL d   1      -4.538  -3.604   0.000  0.00  0.00     0.027 C 
ATOM     29  C   UNL d   1      -4.538  -4.427   0.000  0.00  0.00     0.002 C 
ENDBRANCH  27  28
ENDBRANCH  26  27
ENDBRANCH  24  26
ENDBRANCH   1  24
TORSDOF 11
