REMARK  8 active torsions:
REMARK  status: ('A' for Active; 'I' for Inactive)
REMARK    1  A    between atoms: C_2  and  P_1 
REMARK    2  A    between atoms: O_4  and  P_1 
REMARK    3  A    between atoms: C_5  and  P_1 
REMARK    4  A    between atoms: C_3  and  C_2 
REMARK    5  A    between atoms: C_20  and  O_4 
REMARK    6  A    between atoms: O_19  and  C_8 
REMARK    7  A    between atoms: N_11  and  C_9 
REMARK    8  A    between atoms: O_21  and  C_10 
ROOT
ATOM      1  P   UNL d   1       8.648  -0.876   0.000  0.00  0.00     0.307 P 
ATOM      2  O   UNL d   1       7.825  -0.888   0.000  0.00  0.00    -0.277 OA
ENDROOT
BRANCH   1   3
ATOM      3  C   UNL d   1       9.470  -0.864   0.000  0.00  0.00     0.253 C 
ATOM      4  O   UNL d   1       9.905  -1.573   0.000  0.00  0.00    -0.281 OA
BRANCH   3   5
ATOM      5  C   UNL d   1       9.880  -0.141   0.000  0.00  0.00     0.046 A 
ATOM      6  C   UNL d   1      10.703  -0.129   0.000  0.00  0.00     0.030 A 
ATOM      7  C   UNL d   1      11.101   0.585   0.000  0.00  0.00     0.116 A 
ATOM      8  C   UNL d   1      10.690   1.308   0.000  0.00  0.00     0.116 A 
ATOM      9  C   UNL d   1       9.856   1.295   0.000  0.00  0.00     0.026 A 
ATOM     10  C   UNL d   1       9.453   0.569   0.000  0.00  0.00     0.005 A 
BRANCH   7  11
ATOM     11  O   UNL d   1      11.923   0.594   0.000  0.00  0.00    -0.326 OA
ATOM     12  C   UNL d   1      12.342  -0.116   0.000  0.00  0.00     0.181 C 
ENDBRANCH   7  11
BRANCH   8  13
ATOM     13  O   UNL d   1      11.088   2.026   0.000  0.00  0.00    -0.326 OA
ATOM     14  C   UNL d   1      11.911   2.026   0.000  0.00  0.00     0.181 C 
ENDBRANCH   8  13
ENDBRANCH   3   5
ENDBRANCH   1   3
BRANCH   1  15
ATOM     15  O   UNL d   1       8.635  -0.054   0.000  0.00  0.00    -0.281 OA
BRANCH  15  16
ATOM     16  C   UNL d   1       7.921   0.349   0.000  0.00  0.00     0.101 A 
ATOM     17  C   UNL d   1       7.913   1.179   0.000  0.00  0.00     0.025 A 
ATOM     18  C   UNL d   1       7.203   1.582   0.000  0.00  0.00     0.002 A 
ATOM     19  C   UNL d   1       6.493   1.167   0.000  0.00  0.00     0.000 A 
ATOM     20  C   UNL d   1       6.493   0.344   0.000  0.00  0.00     0.002 A 
ATOM     21  C   UNL d   1       7.215  -0.067   0.000  0.00  0.00     0.025 A 
ENDBRANCH  15  16
ENDBRANCH   1  15
BRANCH   1  22
ATOM     22  C   UNL d   1       8.660  -1.706   0.000  0.00  0.00     0.061 A 
ATOM     23  C   UNL d   1       9.382  -2.105   0.000  0.00  0.00     0.007 A 
ATOM     24  C   UNL d   1       9.395  -2.939   0.000  0.00  0.00     0.018 A 
ATOM     25  C   UNL d   1       8.693  -3.363   0.000  0.00  0.00     0.064 A 
ATOM     26  C   UNL d   1       7.971  -2.956   0.000  0.00  0.00     0.018 A 
ATOM     27  C   UNL d   1       7.958  -2.121   0.000  0.00  0.00     0.007 A 
BRANCH  25  28
ATOM     28  N   UNL d   1       8.706  -4.189   0.000  0.00  0.00    -0.301 N 
ATOM     29  C   UNL d   1       8.000  -4.612   0.000  0.00  0.00     0.100 C 
ATOM     30  C   UNL d   1       9.428  -4.587   0.000  0.00  0.00     0.100 C 
ENDBRANCH  25  28
ENDBRANCH   1  22
TORSDOF 8
