REMARK  2 active torsions:
REMARK  status: ('A' for Active; 'I' for Inactive)
REMARK    1  A    between atoms: C_6  and  C_1 
REMARK       I    between atoms: N_10  and  C_6 
REMARK    2  A    between atoms: C_12  and  N_10 
ROOT
ATOM      1  C   UNL d   1      -0.661  -0.419   0.000  0.00  0.00     0.108 A 
ATOM      2  C   UNL d   1      -1.918   0.000   0.000  0.00  0.00     0.044 A 
ATOM      3  C   UNL d   1      -1.918  -0.831   0.000  0.00  0.00     0.112 A 
ATOM      4  S   UNL d   1      -1.132  -1.080   0.000  0.00  0.00    -0.061 SA
ATOM      5  C   UNL d   1      -1.132   0.255   0.000  0.00  0.00     0.116 A 
ATOM      6  N   UNL d   1      -2.644  -1.237   0.000  0.00  0.00    -0.239 NA
ATOM      7  C   UNL d   1      -3.351   0.000   0.000  0.00  0.00     0.056 A 
ATOM      8  C   UNL d   1      -3.351  -0.831   0.000  0.00  0.00     0.081 A 
ATOM      9  C   UNL d   1      -2.644   0.412   0.000  0.00  0.00     0.008 A 
ATOM     10  C   UNL d   1      -4.058   0.412   0.000  0.00  0.00     0.193 A 
ATOM     11  C   UNL d   1      -4.785  -0.831   0.000  0.00  0.00     0.042 A 
ATOM     12  C   UNL d   1      -4.058  -1.237   0.000  0.00  0.00    -0.003 A 
ATOM     13  C   UNL d   1      -4.785   0.000   0.000  0.00  0.00     0.019 A 
ATOM     14  O   UNL d   1      -4.058   1.250   0.000  0.00  0.00    -0.287 OA
ATOM     15  N   UNL d   1      -0.864   1.054   0.000  0.00  0.00    -0.147 N 
ATOM     16  C   UNL d   1      -5.184  -1.538   0.000  0.00  0.00     0.009 C 
ATOM     17  C   UNL d   1      -5.597  -0.969   0.000  0.00  0.00     0.009 C 
ENDROOT
BRANCH   1  18
ATOM     18  C   UNL d   1       0.164  -0.439   0.000  0.00  0.00     0.287 C 
ATOM     19  N   UNL d   1       0.576  -1.159   0.000  0.00  0.00    -0.208 NA
ATOM     20  O   UNL d   1       0.576   0.268   0.000  0.00  0.00    -0.265 OA
BRANCH  19  21
ATOM     21  C   UNL d   1       1.394  -1.178   0.000  0.00  0.00     0.085 A 
ATOM     22  C   UNL d   1       1.807  -1.892   0.000  0.00  0.00     0.018 A 
ATOM     23  C   UNL d   1       2.618  -1.911   0.000  0.00  0.00     0.002 A 
ATOM     24  C   UNL d   1       1.394  -2.618   0.000  0.00  0.00     0.002 C 
ATOM     25  C   UNL d   1       3.031  -1.178   0.000  0.00  0.00     0.000 A 
ATOM     26  C   UNL d   1       2.618  -0.471   0.000  0.00  0.00     0.002 A 
ATOM     27  C   UNL d   1       3.856  -1.146   0.000  0.00  0.00     0.000 C 
ATOM     28  C   UNL d   1       1.807  -0.471   0.000  0.00  0.00     0.018 A 
ATOM     29  C   UNL d   1       1.381   0.255   0.000  0.00  0.00     0.002 C 
ENDBRANCH  19  21
ENDBRANCH   1  18
TORSDOF 2
