REMARK  4 active torsions:
REMARK  status: ('A' for Active; 'I' for Inactive)
REMARK       I    between atoms: C_7  and  N_9 
REMARK    1  A    between atoms: C_15  and  C_7 
REMARK    2  A    between atoms: N_9  and  C_12 
REMARK    3  A    between atoms: C_16  and  C_15 
REMARK    4  A    between atoms: C_17  and  C_16 
ROOT
ATOM      1  N   UNL d   1      -2.720   8.191   0.000  0.00  0.00    -0.169 NA
ATOM      2  C   UNL d   1      -2.309   7.480   0.000  0.00  0.00     0.282 A 
ATOM      3  C   UNL d   1      -3.521   8.022   0.000  0.00  0.00     0.282 A 
ATOM      4  C   UNL d   1      -2.865   6.865   0.000  0.00  0.00     0.064 A 
ATOM      5  C   UNL d   1      -3.608   7.207   0.000  0.00  0.00     0.063 A 
ATOM      6  C   UNL d   1      -4.277   6.724   0.000  0.00  0.00     0.006 A 
ATOM      7  C   UNL d   1      -2.774   6.045   0.000  0.00  0.00     0.024 A 
ATOM      8  O   UNL d   1      -1.490   7.412   0.000  0.00  0.00    -0.265 OA
ATOM      9  O   UNL d   1      -4.136   8.569   0.000  0.00  0.00    -0.265 OA
ATOM     10  C   UNL d   1      -3.439   5.567   0.000  0.00  0.00     0.085 A 
ATOM     11  C   UNL d   1      -4.196   5.904   0.000  0.00  0.00     0.019 A 
ENDROOT
BRANCH  10  12
ATOM     12  N   UNL d   1      -3.348   4.747   0.000  0.00  0.00    -0.208 NA
ATOM     13  C   UNL d   1      -2.596   4.419   0.000  0.00  0.00     0.279 C 
ATOM     14  O   UNL d   1      -2.510   3.603   0.000  0.00  0.00    -0.265 OA
BRANCH  13  15
ATOM     15  C   UNL d   1      -1.936   4.897   0.000  0.00  0.00     0.062 C 
BRANCH  15  16
ATOM     16  C   UNL d   1      -2.032   5.717   0.000  0.00  0.00     0.005 C 
BRANCH  16  17
ATOM     17  C   UNL d   1      -1.367   6.209   0.000  0.00  0.00     0.000 C 
ATOM     18  C   UNL d   1      -1.458   7.029   0.000  0.00  0.00     0.000 C 
ENDBRANCH  16  17
ENDBRANCH  15  16
ENDBRANCH  13  15
ENDBRANCH  10  12
TORSDOF 4
