REMARK  3 active torsions:
REMARK  status: ('A' for Active; 'I' for Inactive)
REMARK    1  A    between atoms: C_2  and  C_1 
REMARK    2  A    between atoms: N_12  and  C_6 
REMARK    3  A    between atoms: C_15  and  N_12 
ROOT
ATOM      1  C   UNL d   1      -0.236   1.526   0.000  0.00  0.00     0.082 A 
ATOM      2  C   UNL d   1      -0.232   0.697   0.000  0.00  0.00     0.302 A 
ATOM      3  C   UNL d   1      -0.958   1.948   0.000  0.00  0.00     0.009 A 
ATOM      4  O   UNL d   1      -0.953   0.282   0.000  0.00  0.00    -0.273 OA
ATOM      5  C   UNL d   1      -1.667   1.517   0.000  0.00  0.00     0.025 A 
ATOM      6  C   UNL d   1      -1.662   0.692   0.000  0.00  0.00     0.103 A 
ATOM      7  O   UNL d   1       0.477   0.286   0.000  0.00  0.00    -0.259 OA
ATOM      8  C   UNL d   1      -2.384   1.928   0.000  0.00  0.00     0.026 A 
ATOM      9  C   UNL d   1      -2.384   0.282   0.000  0.00  0.00     0.027 A 
ATOM     10  C   UNL d   1      -3.093   1.517   0.000  0.00  0.00     0.094 A 
ATOM     11  C   UNL d   1      -3.093   0.692   0.000  0.00  0.00     0.026 A 
ATOM     12  O   UNL d   1      -3.801   1.923   0.000  0.00  0.00    -0.328 OA
ATOM     13  C   UNL d   1      -4.510   2.346   0.000  0.00  0.00     0.181 C 
ENDROOT
BRANCH   1  14
ATOM     14  C   UNL d   1       0.473   1.936   0.000  0.00  0.00     0.095 A 
ATOM     15  N   UNL d   1       1.219   1.604   0.000  0.00  0.00    -0.221 NA
ATOM     16  C   UNL d   1       1.766   2.214   0.000  0.00  0.00     0.194 A 
ATOM     17  S   UNL d   1       1.356   2.931   0.000  0.00  0.00    -0.046 SA
ATOM     18  C   UNL d   1       0.551   2.757   0.000  0.00  0.00     0.058 A 
BRANCH  16  19
ATOM     19  N   UNL d   1       2.579   2.135   0.000  0.00  0.00    -0.221 NA
BRANCH  19  20
ATOM     20  C   UNL d   1       2.914   1.389   0.000  0.00  0.00     0.087 A 
ATOM     21  C   UNL d   1       3.735   1.306   0.000  0.00  0.00     0.061 A 
ATOM     22  C   UNL d   1       4.071   0.560   0.000  0.00  0.00     0.197 A 
ATOM     23  O   UNL d   1       4.888   0.481   0.000  0.00  0.00    -0.286 OA
ATOM     24  C   UNL d   1       3.586  -0.112   0.000  0.00  0.00     0.042 A 
ATOM     25  C   UNL d   1       2.773  -0.029   0.000  0.00  0.00     0.005 A 
ATOM     26  C   UNL d   1       2.429   0.721   0.000  0.00  0.00     0.019 A 
ENDBRANCH  19  20
ENDBRANCH  16  19
ENDBRANCH   1  14
TORSDOF 3
