REMARK  10 active torsions:
REMARK  status: ('A' for Active; 'I' for Inactive)
REMARK    1  A    between atoms: C_9  and  C_1 
REMARK    2  A    between atoms: C_11  and  C_2 
REMARK    3  A    between atoms: S_12  and  C_3 
REMARK    4  A    between atoms: C_16  and  C_4 
REMARK    5  A    between atoms: C_7  and  N_8 
REMARK       I    between atoms: N_8  and  C_15 
REMARK    6  A    between atoms: O_26  and  C_9 
REMARK    7  A    between atoms: C_21  and  S_12 
REMARK    8  A    between atoms: C_15  and  C_21 
REMARK    9  A    between atoms: C_24  and  C_32 
REMARK   10  A    between atoms: C_32  and  O_26 
ROOT
ATOM      1  C   UNL d   1       1.043  -1.318   0.000  0.00  0.00     0.081 A 
ATOM      2  C   UNL d   1       2.479  -1.294   0.000  0.00  0.00     0.045 A 
ATOM      3  C   UNL d   1       2.479  -2.165   0.000  0.00  0.00     0.112 A 
ATOM      4  C   UNL d   1       1.765  -0.902   0.000  0.00  0.00     0.010 A 
ATOM      5  C   UNL d   1       1.043  -2.141   0.000  0.00  0.00     0.087 A 
ATOM      6  N   UNL d   1       1.765  -2.549   0.000  0.00  0.00    -0.239 NA
ATOM      7  C   UNL d   1       0.314  -2.573   0.000  0.00  0.00     0.021 C 
ENDROOT
BRANCH   3   8
ATOM      8  S   UNL d   1       3.200  -2.643   0.000  0.00  0.00    -0.062 SA
BRANCH   8   9
ATOM      9  C   UNL d   1       3.930  -2.267   0.000  0.00  0.00     0.099 C 
BRANCH   9  10
ATOM     10  C   UNL d   1       4.596  -2.706   0.000  0.00  0.00     0.288 C 
ATOM     11  N   UNL d   1       5.326  -2.329   0.000  0.00  0.00    -0.182 NA
ATOM     12  O   UNL d   1       4.573  -3.514   0.000  0.00  0.00    -0.265 OA
BRANCH  11  13
ATOM     13  C   UNL d   1       6.000  -2.761   0.000  0.00  0.00     0.197 A 
ATOM     14  N   UNL d   1       6.714  -2.385   0.000  0.00  0.00    -0.219 NA
ATOM     15  C   UNL d   1       7.302  -2.973   0.000  0.00  0.00     0.108 A 
ATOM     16  C   UNL d   1       6.941  -3.702   0.000  0.00  0.00     0.059 A 
ATOM     17  S   UNL d   1       6.126  -3.577   0.000  0.00  0.00    -0.046 SA
ENDBRANCH  11  13
ENDBRANCH   9  10
ENDBRANCH   8   9
ENDBRANCH   3   8
BRANCH   2  18
ATOM     18  C   UNL d   1       3.200  -0.847   0.000  0.00  0.00     0.124 C 
ATOM     19  N   UNL d   1       3.930  -1.224   0.000  0.00  0.00    -0.146 N 
ENDBRANCH   2  18
BRANCH   4  20
ATOM     20  C   UNL d   1       1.765  -0.094   0.000  0.00  0.00     0.000 A 
ATOM     21  C   UNL d   1       2.479   0.322   0.000  0.00  0.00     0.001 A 
ATOM     22  C   UNL d   1       2.479   1.129   0.000  0.00  0.00     0.011 A 
ATOM     23  C   UNL d   1       1.765   1.545   0.000  0.00  0.00     0.058 A 
ATOM     24  C   UNL d   1       1.043   1.129   0.000  0.00  0.00     0.011 A 
ATOM     25 CL   UNL d   1       1.765   2.377   0.000  0.00  0.00    -0.082 Cl
ATOM     26  C   UNL d   1       1.043   0.306   0.000  0.00  0.00     0.001 A 
ENDBRANCH   4  20
BRANCH   1  27
ATOM     27  C   UNL d   1       0.314  -0.878   0.000  0.00  0.00     0.302 C 
ATOM     28  O   UNL d   1       0.314  -0.055   0.000  0.00  0.00    -0.259 OA
BRANCH  27  29
ATOM     29  O   UNL d   1      -0.400  -1.294   0.000  0.00  0.00    -0.271 OA
BRANCH  29  30
ATOM     30  C   UNL d   1      -0.400  -2.102   0.000  0.00  0.00     0.126 C 
BRANCH  30  31
ATOM     31  C   UNL d   1      -1.122  -2.518   0.000  0.00  0.00     0.027 C 
ATOM     32  C   UNL d   1      -1.122  -3.326   0.000  0.00  0.00     0.002 C 
ENDBRANCH  30  31
ENDBRANCH  29  30
ENDBRANCH  27  29
ENDBRANCH   1  27
TORSDOF 10
