REMARK  3 active torsions:
REMARK  status: ('A' for Active; 'I' for Inactive)
REMARK    1  A    between atoms: C_9  and  C_1 
REMARK       I    between atoms: N_12  and  C_9 
REMARK    2  A    between atoms: C_16  and  N_12 
REMARK    3  A    between atoms: C_17  and  C_16 
ROOT
ATOM      1  C   UNL d   1      -0.364  -0.099   0.000  0.00  0.00     0.108 A 
ATOM      2  C   UNL d   1      -1.624   0.315   0.000  0.00  0.00     0.044 A 
ATOM      3  C   UNL d   1      -1.624  -0.543   0.000  0.00  0.00     0.112 A 
ATOM      4  S   UNL d   1      -0.834  -0.797   0.000  0.00  0.00    -0.061 SA
ATOM      5  C   UNL d   1      -0.834   0.568   0.000  0.00  0.00     0.116 A 
ATOM      6  N   UNL d   1      -2.328  -0.945   0.000  0.00  0.00    -0.239 NA
ATOM      7  C   UNL d   1      -3.038   0.296   0.000  0.00  0.00     0.057 A 
ATOM      8  C   UNL d   1      -2.328   0.716   0.000  0.00  0.00     0.008 A 
ATOM      9  C   UNL d   1      -3.038  -0.525   0.000  0.00  0.00     0.085 A 
ATOM     10  C   UNL d   1      -3.754   0.716   0.000  0.00  0.00     0.197 A 
ATOM     11  N   UNL d   1      -0.549   1.365   0.000  0.00  0.00    -0.147 N 
ATOM     12  O   UNL d   1      -3.754   1.550   0.000  0.00  0.00    -0.286 OA
ATOM     13  C   UNL d   1      -3.754  -0.945   0.000  0.00  0.00     0.019 A 
ATOM     14  C   UNL d   1      -4.465   0.315   0.000  0.00  0.00     0.042 A 
ATOM     15  C   UNL d   1      -4.465  -0.543   0.000  0.00  0.00     0.005 A 
ENDROOT
BRANCH   1  16
ATOM     16  C   UNL d   1       0.469  -0.080   0.000  0.00  0.00     0.287 C 
ATOM     17  N   UNL d   1       0.871  -0.797   0.000  0.00  0.00    -0.206 NA
ATOM     18  O   UNL d   1       0.889   0.624   0.000  0.00  0.00    -0.265 OA
BRANCH  17  19
ATOM     19  C   UNL d   1       1.704  -0.797   0.000  0.00  0.00     0.102 C 
BRANCH  19  20
ATOM     20  C   UNL d   1       2.118  -1.507   0.000  0.00  0.00     0.019 A 
ATOM     21  C   UNL d   1       1.710  -2.223   0.000  0.00  0.00     0.002 A 
ATOM     22  C   UNL d   1       2.130  -2.933   0.000  0.00  0.00     0.000 A 
ATOM     23  C   UNL d   1       2.946  -2.933   0.000  0.00  0.00     0.000 A 
ATOM     24  C   UNL d   1       3.359  -2.223   0.000  0.00  0.00     0.000 A 
ATOM     25  C   UNL d   1       2.946  -1.507   0.000  0.00  0.00     0.002 A 
ENDBRANCH  19  20
ENDBRANCH  17  19
ENDBRANCH   1  16
TORSDOF 3
