REMARK  3 active torsions:
REMARK  status: ('A' for Active; 'I' for Inactive)
REMARK    1  A    between atoms: N_7  and  C_6 
REMARK       I    between atoms: C_8  and  N_7 
REMARK    2  A    between atoms: C_12  and  C_8 
REMARK    3  A    between atoms: C_16  and  C_12 
ROOT
ATOM      1  C   UNL d   1      -1.911   5.738   0.000  0.00  0.00     0.269 A 
ATOM      2  N   UNL d   1      -1.430   6.421   0.000  0.00  0.00    -0.239 N 
ATOM      3  C   UNL d   1      -2.695   6.000   0.000  0.00  0.00     0.079 A 
ATOM      4  C   UNL d   1      -1.911   7.072   0.000  0.00  0.00     0.267 A 
ATOM      5  C   UNL d   1      -2.695   6.825   0.000  0.00  0.00     0.063 A 
ATOM      6  C   UNL d   1      -3.405   5.587   0.000  0.00  0.00     0.089 A 
ATOM      7  O   UNL d   1      -1.659   4.955   0.000  0.00  0.00    -0.267 OA
ATOM      8  O   UNL d   1      -1.650   7.870   0.000  0.00  0.00    -0.267 OA
ATOM      9  C   UNL d   1      -0.605   6.426   0.000  0.00  0.00     0.105 C 
ATOM     10  C   UNL d   1      -3.405   7.237   0.000  0.00  0.00     0.005 A 
ATOM     11  C   UNL d   1      -4.120   6.000   0.000  0.00  0.00     0.019 A 
ATOM     12  C   UNL d   1      -4.120   6.825   0.000  0.00  0.00     0.002 A 
ENDROOT
BRANCH   6  13
ATOM     13  N   UNL d   1      -3.405   4.762   0.000  0.00  0.00    -0.208 NA
ATOM     14  C   UNL d   1      -4.120   4.354   0.000  0.00  0.00     0.279 C 
ATOM     15  O   UNL d   1      -4.835   4.762   0.000  0.00  0.00    -0.265 OA
BRANCH  14  16
ATOM     16  C   UNL d   1      -4.120   3.529   0.000  0.00  0.00     0.062 C 
BRANCH  16  17
ATOM     17  C   UNL d   1      -4.835   3.117   0.000  0.00  0.00     0.005 A 
ATOM     18  C   UNL d   1      -4.835   2.292   0.000  0.00  0.00     0.000 A 
ATOM     19  C   UNL d   1      -5.537   1.879   0.000  0.00  0.00     0.000 A 
ATOM     20  C   UNL d   1      -6.256   2.292   0.000  0.00  0.00     0.000 A 
ATOM     21  C   UNL d   1      -6.256   3.117   0.000  0.00  0.00     0.000 A 
ATOM     22  C   UNL d   1      -5.541   3.529   0.000  0.00  0.00     0.000 A 
ENDBRANCH  16  17
ENDBRANCH  14  16
ENDBRANCH   6  13
TORSDOF 3
