REMARK  12 active torsions:
REMARK  status: ('A' for Active; 'I' for Inactive)
REMARK    1  A    between atoms: C_8  and  C_1 
REMARK    2  A    between atoms: C_9  and  C_2 
REMARK    3  A    between atoms: C_7  and  C_3 
REMARK    4  A    between atoms: S_10  and  C_4 
REMARK    5  A    between atoms: O_23  and  C_8 
REMARK    6  A    between atoms: C_20  and  S_10 
REMARK    7  A    between atoms: O_25  and  C_13 
REMARK    8  A    between atoms: C_14  and  C_20 
REMARK    9  A    between atoms: O_26  and  C_14 
REMARK   10  A    between atoms: C_21  and  C_28 
REMARK   11  A    between atoms: C_28  and  O_23 
REMARK   12  A    between atoms: C_29  and  O_26 
ROOT
ATOM      1  C   UNL d   1      -2.114   0.669   0.000  0.00  0.00     0.081 A 
ATOM      2  C   UNL d   1      -0.681   0.681   0.000  0.00  0.00     0.045 A 
ATOM      3  C   UNL d   1      -1.391   1.084   0.000  0.00  0.00     0.010 A 
ATOM      4  C   UNL d   1      -0.681  -0.133   0.000  0.00  0.00     0.112 A 
ATOM      5  C   UNL d   1      -2.114  -0.127   0.000  0.00  0.00     0.087 A 
ATOM      6  N   UNL d   1      -1.391  -0.548   0.000  0.00  0.00    -0.239 NA
ATOM      7  C   UNL d   1      -2.867  -0.512   0.000  0.00  0.00     0.021 C 
ENDROOT
BRANCH   3   8
ATOM      8  C   UNL d   1      -1.391   1.910   0.000  0.00  0.00     0.003 A 
ATOM      9  C   UNL d   1      -0.669   2.331   0.000  0.00  0.00     0.028 A 
ATOM     10  C   UNL d   1      -0.669   3.156   0.000  0.00  0.00     0.133 A 
ATOM     11  C   UNL d   1      -1.391   3.554   0.000  0.00  0.00     0.218 A 
ATOM     12  C   UNL d   1      -2.096   3.138   0.000  0.00  0.00     0.044 A 
ATOM     13  O   UNL d   1      -1.422   4.367   0.000  0.00  0.00    -0.284 OA
ATOM     14  C   UNL d   1      -2.096   2.313   0.000  0.00  0.00     0.003 A 
BRANCH  10  15
ATOM     15  O   UNL d   1       0.054   3.590   0.000  0.00  0.00    -0.325 OA
ATOM     16  C   UNL d   1       0.777   3.193   0.000  0.00  0.00     0.181 C 
ENDBRANCH  10  15
ENDBRANCH   3   8
BRANCH   2  17
ATOM     17  C   UNL d   1       0.042   1.102   0.000  0.00  0.00     0.124 C 
ATOM     18  N   UNL d   1       0.765   0.681   0.000  0.00  0.00    -0.146 N 
ENDBRANCH   2  17
BRANCH   1  19
ATOM     19  C   UNL d   1      -2.867   1.060   0.000  0.00  0.00     0.302 C 
ATOM     20  O   UNL d   1      -2.910   1.879   0.000  0.00  0.00    -0.259 OA
BRANCH  19  21
ATOM     21  O   UNL d   1      -3.542   0.608   0.000  0.00  0.00    -0.271 OA
BRANCH  21  22
ATOM     22  C   UNL d   1      -3.500  -0.217   0.000  0.00  0.00     0.126 C 
BRANCH  22  23
ATOM     23  C   UNL d   1      -4.193  -0.651   0.000  0.00  0.00     0.027 C 
ATOM     24  C   UNL d   1      -4.187  -1.452   0.000  0.00  0.00     0.002 C 
ENDBRANCH  22  23
ENDBRANCH  21  22
ENDBRANCH  19  21
ENDBRANCH   1  19
BRANCH   4  25
ATOM     25  S   UNL d   1       0.006  -0.578   0.000  0.00  0.00    -0.062 SA
BRANCH  25  26
ATOM     26  C   UNL d   1       0.723  -0.199   0.000  0.00  0.00     0.105 C 
BRANCH  26  27
ATOM     27  C   UNL d   1       1.416  -0.651   0.000  0.00  0.00     0.307 C 
ATOM     28  O   UNL d   1       1.373  -1.470   0.000  0.00  0.00    -0.258 OA
BRANCH  27  29
ATOM     29  O   UNL d   1       2.139  -0.271   0.000  0.00  0.00    -0.271 OA
BRANCH  29  30
ATOM     30  C   UNL d   1       2.819  -0.723   0.000  0.00  0.00     0.126 C 
ATOM     31  C   UNL d   1       3.548  -0.361   0.000  0.00  0.00     0.029 C 
ENDBRANCH  29  30
ENDBRANCH  27  29
ENDBRANCH  26  27
ENDBRANCH  25  26
ENDBRANCH   4  25
TORSDOF 12
