REMARK  6 active torsions:
REMARK  status: ('A' for Active; 'I' for Inactive)
REMARK    1  A    between atoms: C_7  and  C_1 
REMARK    2  A    between atoms: S_9  and  C_2 
REMARK    3  A    between atoms: C_11  and  C_4 
REMARK    4  A    between atoms: C_15  and  S_9 
REMARK    5  A    between atoms: C_12  and  C_15 
REMARK    6  A    between atoms: O_21  and  C_12 
ROOT
ATOM      1  C   UNL d   1      -1.372  -1.253   0.000  0.00  0.00     0.045 A 
ATOM      2  C   UNL d   1      -1.372  -2.072   0.000  0.00  0.00     0.112 A 
ATOM      3  C   UNL d   1      -2.809  -1.253   0.000  0.00  0.00     0.057 A 
ATOM      4  C   UNL d   1      -2.084  -0.837   0.000  0.00  0.00     0.008 A 
ATOM      5  C   UNL d   1      -2.809  -2.072   0.000  0.00  0.00     0.085 A 
ATOM      6  N   UNL d   1      -2.084  -2.494   0.000  0.00  0.00    -0.239 NA
ATOM      7  C   UNL d   1      -3.510  -0.837   0.000  0.00  0.00     0.197 A 
ATOM      8  O   UNL d   1      -3.510  -0.006   0.000  0.00  0.00    -0.286 OA
ATOM      9  C   UNL d   1      -3.510  -2.494   0.000  0.00  0.00     0.019 A 
ATOM     10  C   UNL d   1      -4.222  -1.253   0.000  0.00  0.00     0.042 A 
ATOM     11  C   UNL d   1      -4.222  -2.072   0.000  0.00  0.00     0.005 A 
ENDROOT
BRANCH   4  12
ATOM     12  C   UNL d   1      -2.084  -0.024   0.000  0.00  0.00     0.000 A 
ATOM     13  C   UNL d   1      -1.372   0.386   0.000  0.00  0.00     0.000 A 
ATOM     14  C   UNL d   1      -1.372   1.205   0.000  0.00  0.00     0.000 A 
ATOM     15  C   UNL d   1      -2.084   1.615   0.000  0.00  0.00     0.000 A 
ATOM     16  C   UNL d   1      -2.809   1.205   0.000  0.00  0.00     0.000 A 
ATOM     17  C   UNL d   1      -2.084   2.441   0.000  0.00  0.00     0.000 C 
ATOM     18  C   UNL d   1      -2.809   0.386   0.000  0.00  0.00     0.000 A 
ENDBRANCH   4  12
BRANCH   1  19
ATOM     19  C   UNL d   1      -0.641  -0.837   0.000  0.00  0.00     0.124 C 
ATOM     20  N   UNL d   1       0.071  -1.265   0.000  0.00  0.00    -0.146 N 
ENDBRANCH   1  19
BRANCH   2  21
ATOM     21  S   UNL d   1      -0.641  -2.518   0.000  0.00  0.00    -0.062 SA
BRANCH  21  22
ATOM     22  C   UNL d   1       0.071  -2.120   0.000  0.00  0.00     0.105 C 
BRANCH  22  23
ATOM     23  C   UNL d   1       0.784  -2.547   0.000  0.00  0.00     0.303 C 
ATOM     24  O   UNL d   1       0.784  -3.373   0.000  0.00  0.00    -0.259 OA
BRANCH  23  25
ATOM     25  O   UNL d   1       1.496  -2.144   0.000  0.00  0.00    -0.295 OA
ATOM     26  C   UNL d   1       2.209  -2.571   0.000  0.00  0.00     0.185 C 
ENDBRANCH  23  25
ENDBRANCH  22  23
ENDBRANCH  21  22
ENDBRANCH   2  21
TORSDOF 6
