REMARK  3 active torsions:
REMARK  status: ('A' for Active; 'I' for Inactive)
REMARK       I    between atoms: C_6  and  N_7 
REMARK    1  A    between atoms: C_9  and  C_6 
REMARK    2  A    between atoms: N_7  and  C_13 
REMARK    3  A    between atoms: C_15  and  C_14 
ROOT
ATOM      1  C   UNL d   1      -2.596   4.419   0.000  0.00  0.00     0.279 C 
ATOM      2  N   UNL d   1      -3.348   4.747   0.000  0.00  0.00    -0.208 NA
ATOM      3  O   UNL d   1      -2.510   3.603   0.000  0.00  0.00    -0.265 OA
ENDROOT
BRANCH   2   4
ATOM      4  C   UNL d   1      -3.439   5.567   0.000  0.00  0.00     0.085 A 
ATOM      5  C   UNL d   1      -2.774   6.045   0.000  0.00  0.00     0.024 A 
ATOM      6  C   UNL d   1      -2.865   6.865   0.000  0.00  0.00     0.064 A 
ATOM      7  C   UNL d   1      -2.309   7.480   0.000  0.00  0.00     0.282 A 
ATOM      8  C   UNL d   1      -3.608   7.207   0.000  0.00  0.00     0.063 A 
ATOM      9  N   UNL d   1      -2.720   8.191   0.000  0.00  0.00    -0.169 NA
ATOM     10  O   UNL d   1      -1.490   7.412   0.000  0.00  0.00    -0.265 OA
ATOM     11  C   UNL d   1      -3.521   8.022   0.000  0.00  0.00     0.282 A 
ATOM     12  O   UNL d   1      -4.136   8.569   0.000  0.00  0.00    -0.265 OA
ATOM     13  C   UNL d   1      -4.277   6.724   0.000  0.00  0.00     0.006 A 
ATOM     14  C   UNL d   1      -4.196   5.904   0.000  0.00  0.00     0.019 A 
ENDBRANCH   2   4
BRANCH   1  15
ATOM     15  C   UNL d   1      -1.936   4.897   0.000  0.00  0.00     0.058 A 
ATOM     16  C   UNL d   1      -1.184   4.569   0.000  0.00  0.00     0.005 A 
ATOM     17  C   UNL d   1      -0.519   5.061   0.000  0.00  0.00     0.003 A 
ATOM     18  C   UNL d   1      -0.610   5.881   0.000  0.00  0.00     0.039 A 
ATOM     19  C   UNL d   1      -1.367   6.209   0.000  0.00  0.00     0.003 A 
ATOM     20  C   UNL d   1      -2.032   5.717   0.000  0.00  0.00     0.005 A 
BRANCH  18  21
ATOM     21  C   UNL d   1       0.055   6.373   0.000  0.00  0.00     0.196 C 
ATOM     22  O   UNL d   1       0.811   6.045   0.000  0.00  0.00    -0.287 OA
ATOM     23  C   UNL d   1      -0.041   7.193   0.000  0.00  0.00     0.045 C 
ENDBRANCH  18  21
ENDBRANCH   1  15
TORSDOF 3
