REMARK  2 active torsions:
REMARK  status: ('A' for Active; 'I' for Inactive)
REMARK       I    between atoms: C_6  and  N_7 
REMARK    1  A    between atoms: C_9  and  C_6 
REMARK    2  A    between atoms: N_7  and  C_13 
ROOT
ATOM      1  N   UNL d   1      -2.723   8.200   0.000  0.00  0.00    -0.169 NA
ATOM      2  C   UNL d   1      -2.312   7.489   0.000  0.00  0.00     0.282 A 
ATOM      3  C   UNL d   1      -3.525   8.031   0.000  0.00  0.00     0.282 A 
ATOM      4  C   UNL d   1      -2.869   6.873   0.000  0.00  0.00     0.064 A 
ATOM      5  C   UNL d   1      -3.612   7.215   0.000  0.00  0.00     0.063 A 
ATOM      6  C   UNL d   1      -4.282   6.731   0.000  0.00  0.00     0.006 A 
ATOM      7  C   UNL d   1      -2.777   6.052   0.000  0.00  0.00     0.024 A 
ATOM      8  O   UNL d   1      -1.491   7.420   0.000  0.00  0.00    -0.265 OA
ATOM      9  O   UNL d   1      -4.141   8.579   0.000  0.00  0.00    -0.265 OA
ATOM     10  C   UNL d   1      -3.443   5.573   0.000  0.00  0.00     0.085 A 
ATOM     11  C   UNL d   1      -4.200   5.910   0.000  0.00  0.00     0.019 A 
ENDROOT
BRANCH  10  12
ATOM     12  N   UNL d   1      -3.352   4.752   0.000  0.00  0.00    -0.208 NA
ATOM     13  C   UNL d   1      -2.599   4.424   0.000  0.00  0.00     0.279 C 
ATOM     14  O   UNL d   1      -2.513   3.607   0.000  0.00  0.00    -0.265 OA
BRANCH  13  15
ATOM     15  C   UNL d   1      -1.938   4.903   0.000  0.00  0.00     0.058 A 
ATOM     16  C   UNL d   1      -2.034   5.724   0.000  0.00  0.00     0.005 A 
ATOM     17  C   UNL d   1      -1.377   6.216   0.000  0.00  0.00     0.000 A 
ATOM     18  C   UNL d   1      -0.611   5.888   0.000  0.00  0.00     0.000 A 
ATOM     19  C   UNL d   1      -0.520   5.067   0.000  0.00  0.00     0.000 A 
ATOM     20  C   UNL d   1       0.059   6.380   0.000  0.00  0.00     0.000 C 
ATOM     21  C   UNL d   1      -1.186   4.583   0.000  0.00  0.00     0.005 A 
ENDBRANCH  13  15
ENDBRANCH  10  12
TORSDOF 2
