REMARK  5 active torsions:
REMARK  status: ('A' for Active; 'I' for Inactive)
REMARK    1  A    between atoms: C_5  and  C_1 
REMARK    2  A    between atoms: C_2  and  C_5 
REMARK    3  A    between atoms: C_7  and  C_2 
REMARK    4  A    between atoms: N_4  and  C_11 
REMARK       I    between atoms: N_12  and  C_7 
REMARK    5  A    between atoms: C_17  and  N_12 
ROOT
ATOM      1  C   UNL d   1       2.862  -1.799   0.000  0.00  0.00     0.126 C 
ATOM      2  C   UNL d   1       3.016  -2.603   0.000  0.00  0.00     0.106 C 
ATOM      3  N   UNL d   1       3.174  -3.416   0.000  0.00  0.00    -0.191 NA
ENDROOT
BRANCH   1   4
ATOM      4  C   UNL d   1       2.079  -1.529   0.000  0.00  0.00     0.017 C 
BRANCH   4   5
ATOM      5  C   UNL d   1       1.454  -2.066   0.000  0.00  0.00     0.020 A 
ATOM      6  C   UNL d   1       1.529  -2.891   0.000  0.00  0.00     0.080 A 
ATOM      7  N   UNL d   1       0.762  -3.216   0.000  0.00  0.00    -0.303 N 
ATOM      8  C   UNL d   1       0.575  -4.015   0.000  0.00  0.00     0.100 C 
ATOM      9  C   UNL d   1       0.217  -2.587   0.000  0.00  0.00     0.064 A 
ATOM     10  C   UNL d   1       0.650  -1.874   0.000  0.00  0.00     0.018 A 
ATOM     11  C   UNL d   1      -0.608  -2.566   0.000  0.00  0.00     0.018 A 
ATOM     12  C   UNL d   1       0.250  -1.154   0.000  0.00  0.00     0.002 A 
ATOM     13  C   UNL d   1      -0.571  -1.141   0.000  0.00  0.00     0.000 A 
ATOM     14  C   UNL d   1      -1.000  -1.841   0.000  0.00  0.00     0.002 A 
ENDBRANCH   4   5
ENDBRANCH   1   4
BRANCH   1  15
ATOM     15  C   UNL d   1       3.486  -1.254   0.000  0.00  0.00     0.289 C 
ATOM     16  N   UNL d   1       4.265  -1.529   0.000  0.00  0.00    -0.207 NA
ATOM     17  O   UNL d   1       3.328  -0.450   0.000  0.00  0.00    -0.264 OA
BRANCH  16  18
ATOM     18  C   UNL d   1       4.978  -1.112   0.000  0.00  0.00     0.086 A 
ATOM     19  C   UNL d   1       5.690  -1.516   0.000  0.00  0.00     0.043 A 
ATOM     20  C   UNL d   1       6.402  -1.100   0.000  0.00  0.00     0.128 A 
ATOM     21  C   UNL d   1       6.390  -0.267   0.000  0.00  0.00     0.024 A 
ATOM     22  C   UNL d   1       5.665   0.133   0.000  0.00  0.00     0.003 A 
ATOM     23  C   UNL d   1       4.965  -0.292   0.000  0.00  0.00     0.019 A 
BRANCH  20  24
ATOM     24  N   UNL d   1       7.123  -1.504   0.000  0.00  0.00    -0.114 N 
ATOM     25  O   UNL d   1       7.127  -2.329   0.000  0.00  0.00    -0.532 OA
ATOM     26  O   UNL d   1       7.835  -1.079   0.000  0.00  0.00    -0.532 OA
ENDBRANCH  20  24
ENDBRANCH  16  18
ENDBRANCH   1  15
TORSDOF 5
