REMARK  3 active torsions:
REMARK  status: ('A' for Active; 'I' for Inactive)
REMARK    1  A    between atoms: C_5  and  C_1 
REMARK    2  A    between atoms: N_6  and  C_5 
REMARK    3  A    between atoms: C_8  and  C_5 
ROOT
ATOM      1  C   UNL d   1      -0.206  -0.436   0.000  0.00  0.00     0.083 C 
ENDROOT
BRANCH   1   2
ATOM      2  C   UNL d   1      -0.487  -1.242   0.000  0.00  0.00     0.037 A 
ATOM      3  C   UNL d   1       0.000  -1.916   0.000  0.00  0.00     0.083 A 
ATOM      4  N   UNL d   1      -0.487  -2.570   0.000  0.00  0.00    -0.245 NA
ATOM      5  C   UNL d   1       0.841  -1.916   0.000  0.00  0.00     0.021 C 
ATOM      6  C   UNL d   1      -1.273  -2.325   0.000  0.00  0.00     0.081 A 
ATOM      7  C   UNL d   1      -1.273  -1.484   0.000  0.00  0.00     0.021 A 
ATOM      8  C   UNL d   1      -1.982  -2.737   0.000  0.00  0.00     0.019 A 
ATOM      9  C   UNL d   1      -1.982  -1.075   0.000  0.00  0.00     0.002 A 
ATOM     10  C   UNL d   1      -2.710  -1.499   0.000  0.00  0.00     0.000 A 
ATOM     11  C   UNL d   1      -2.710  -2.305   0.000  0.00  0.00     0.002 A 
ENDBRANCH   1   2
BRANCH   1  12
ATOM     12  N   UNL d   1       0.611  -0.269   0.000  0.00  0.00    -0.302 N 
ATOM     13  C   UNL d   1       1.157  -0.888   0.000  0.00  0.00     0.080 A 
ATOM     14  C   UNL d   1       1.962  -0.717   0.000  0.00  0.00     0.019 A 
ATOM     15  C   UNL d   1       2.223   0.066   0.000  0.00  0.00     0.003 A 
ATOM     16  C   UNL d   1       1.682   0.685   0.000  0.00  0.00     0.019 A 
ATOM     17  C   UNL d   1       3.041   0.234   0.000  0.00  0.00     0.000 C 
ATOM     18  C   UNL d   1       0.876   0.514   0.000  0.00  0.00     0.080 A 
ENDBRANCH   1  12
BRANCH   1  19
ATOM     19  C   UNL d   1      -0.767   0.199   0.000  0.00  0.00     0.098 A 
ATOM     20  N   UNL d   1      -0.510   0.981   0.000  0.00  0.00    -0.243 NA
ATOM     21  C   UNL d   1      -1.047   1.600   0.000  0.00  0.00     0.099 A 
ATOM     22  C   UNL d   1      -1.853   1.433   0.000  0.00  0.00     0.021 A 
ATOM     23  C   UNL d   1      -2.114   0.650   0.000  0.00  0.00     0.003 A 
ATOM     24  C   UNL d   1      -1.573   0.012   0.000  0.00  0.00     0.021 A 
ENDBRANCH   1  19
TORSDOF 3
