REMARK  5 active torsions:
REMARK  status: ('A' for Active; 'I' for Inactive)
REMARK    1  A    between atoms: O_4  and  C_1 
REMARK    2  A    between atoms: C_9  and  C_2 
REMARK    3  A    between atoms: C_5  and  O_4 
REMARK    4  A    between atoms: C_12  and  C_5 
REMARK    5  A    between atoms: N_10  and  C_9 
ROOT
ATOM      1  C   UNL d   1      -0.908   1.900   0.000  0.00  0.00     0.122 A 
ATOM      2  C   UNL d   1      -0.194   2.313   0.000  0.00  0.00     0.043 A 
ATOM      3  C   UNL d   1      -1.622   2.313   0.000  0.00  0.00     0.105 A 
ATOM      4  C   UNL d   1      -1.622   3.137   0.000  0.00  0.00     0.030 A 
ATOM      5  C   UNL d   1      -0.908   3.540   0.000  0.00  0.00     0.059 A 
ATOM      6  C   UNL d   1      -0.194   3.137   0.000  0.00  0.00     0.015 A 
ATOM      7  N   UNL d   1      -2.328   1.900   0.000  0.00  0.00    -0.242 NA
ATOM      8 CL   UNL d   1      -0.933   4.375   0.000  0.00  0.00    -0.082 Cl
ATOM      9  C   UNL d   1      -2.328   3.540   0.000  0.00  0.00     0.004 A 
ATOM     10  C   UNL d   1      -3.042   2.313   0.000  0.00  0.00     0.099 A 
ATOM     11  C   UNL d   1      -3.042   3.137   0.000  0.00  0.00     0.021 A 
ENDROOT
BRANCH   1  12
ATOM     12  O   UNL d   1      -0.919   1.153   0.000  0.00  0.00    -0.271 OA
BRANCH  12  13
ATOM     13  C   UNL d   1      -1.538   0.414   0.000  0.00  0.00     0.300 C 
ATOM     14  O   UNL d   1      -2.504   0.688   0.000  0.00  0.00    -0.259 OA
BRANCH  13  15
ATOM     15  C   UNL d   1      -1.274  -0.366   0.000  0.00  0.00     0.064 A 
ATOM     16  C   UNL d   1      -0.458  -0.527   0.000  0.00  0.00     0.008 A 
ATOM     17  C   UNL d   1      -0.194  -1.318   0.000  0.00  0.00     0.030 A 
ATOM     18  C   UNL d   1      -0.743  -1.948   0.000  0.00  0.00     0.140 A 
ATOM     19  C   UNL d   1      -1.556  -1.783   0.000  0.00  0.00     0.030 A 
ATOM     20  F   UNL d   1      -0.538  -2.518   0.000  0.00  0.00    -0.204 F 
ATOM     21  C   UNL d   1      -1.819  -0.992   0.000  0.00  0.00     0.008 A 
ENDBRANCH  13  15
ENDBRANCH  12  13
ENDBRANCH   1  12
BRANCH   2  22
ATOM     22  C   UNL d   1       0.674   2.039   0.000  0.00  0.00     0.082 C 
BRANCH  22  23
ATOM     23  N   UNL d   1       1.274   2.599   0.000  0.00  0.00    -0.299 N 
ATOM     24  C   UNL d   1       2.054   2.357   0.000  0.00  0.00     0.107 A 
ATOM     25  C   UNL d   1       2.669   2.910   0.000  0.00  0.00     0.142 A 
ATOM     26  O   UNL d   1       2.486   3.705   0.000  0.00  0.00    -0.300 OA
ATOM     27  C   UNL d   1       1.695   3.954   0.000  0.00  0.00     0.142 A 
ATOM     28  C   UNL d   1       1.098   3.393   0.000  0.00  0.00     0.107 A 
ENDBRANCH  22  23
ENDBRANCH   2  22
TORSDOF 5
