REMARK  0 active torsions:
REMARK  status: ('A' for Active; 'I' for Inactive)
ROOT
ATOM      1  C   UNL d   1       1.105   0.880   0.000  0.00  0.00     0.110 A 
ATOM      2  C   UNL d   1       0.280   0.880   0.000  0.00  0.00     0.110 A 
ATOM      3  C   UNL d   1       1.526   0.165   0.000  0.00  0.00     0.207 A 
ATOM      4  C   UNL d   1      -0.124   0.165   0.000  0.00  0.00     0.207 A 
ATOM      5  C   UNL d   1       1.105  -0.536   0.000  0.00  0.00     0.043 A 
ATOM      6  C   UNL d   1       0.280  -0.536   0.000  0.00  0.00     0.043 A 
ATOM      7  O   UNL d   1       2.342   0.165   0.000  0.00  0.00    -0.286 OA
ATOM      8  O   UNL d   1      -0.949   0.160   0.000  0.00  0.00    -0.286 OA
ATOM      9 CL   UNL d   1      -0.124   1.590   0.000  0.00  0.00    -0.078 Cl
ATOM     10 CL   UNL d   1       1.517   1.595   0.000  0.00  0.00    -0.078 Cl
ATOM     11  C   UNL d   1       1.526  -1.251   0.000  0.00  0.00     0.003 A 
ATOM     12  C   UNL d   1      -0.110  -1.265   0.000  0.00  0.00     0.003 A 
ATOM     13  C   UNL d   1       1.118  -1.966   0.000  0.00  0.00     0.000 A 
ATOM     14  C   UNL d   1       0.280  -1.980   0.000  0.00  0.00     0.000 A 
ENDROOT
TORSDOF 0
