REMARK  6 active torsions:
REMARK  status: ('A' for Active; 'I' for Inactive)
REMARK    1  A    between atoms: C_6  and  C_1 
REMARK    2  A    between atoms: C_10  and  N_3 
REMARK    3  A    between atoms: O_7  and  C_6 
REMARK    4  A    between atoms: C_8  and  O_7 
REMARK    5  A    between atoms: O_11  and  C_9 
REMARK    6  A    between atoms: C_17  and  C_10 
ROOT
ATOM      1  C   UNL d   1       2.699   2.805   0.000  0.00  0.00     0.173 A 
ATOM      2  N   UNL d   1       2.197   3.473   0.000  0.00  0.00    -0.225 NA
ATOM      3  N   UNL d   1       2.197   2.148   0.000  0.00  0.00    -0.287 N 
ATOM      4  C   UNL d   1       1.419   2.390   0.000  0.00  0.00     0.083 A 
ATOM      5  C   UNL d   1       1.419   3.228   0.000  0.00  0.00     0.099 A 
ATOM      6  C   UNL d   1       0.692   1.977   0.000  0.00  0.00     0.019 A 
ATOM      7  C   UNL d   1       0.692   3.614   0.000  0.00  0.00     0.021 A 
ATOM      8  C   UNL d   1       0.000   2.390   0.000  0.00  0.00     0.002 A 
ATOM      9  C   UNL d   1       0.000   3.228   0.000  0.00  0.00     0.002 A 
ENDROOT
BRANCH   1  10
ATOM     10  C   UNL d   1       3.478   3.028   0.000  0.00  0.00     0.160 C 
BRANCH  10  11
ATOM     11  O   UNL d   1       4.088   2.450   0.000  0.00  0.00    -0.300 OA
BRANCH  11  12
ATOM     12  C   UNL d   1       4.897   2.672   0.000  0.00  0.00     0.122 A 
ATOM     13  C   UNL d   1       5.482   2.089   0.000  0.00  0.00     0.117 A 
ATOM     14  C   UNL d   1       6.291   2.289   0.000  0.00  0.00     0.026 A 
ATOM     15  C   UNL d   1       6.484   3.087   0.000  0.00  0.00     0.002 A 
ATOM     16  C   UNL d   1       5.898   3.673   0.000  0.00  0.00     0.002 A 
ATOM     17  C   UNL d   1       5.094   3.473   0.000  0.00  0.00     0.027 A 
BRANCH  13  18
ATOM     18  O   UNL d   1       5.260   1.283   0.000  0.00  0.00    -0.326 OA
ATOM     19  C   UNL d   1       5.846   0.672   0.000  0.00  0.00     0.181 C 
ENDBRANCH  13  18
ENDBRANCH  11  12
ENDBRANCH  10  11
ENDBRANCH   1  10
BRANCH   3  20
ATOM     20  C   UNL d   1       2.588   1.451   0.000  0.00  0.00     0.082 C 
BRANCH  20  21
ATOM     21  C   UNL d   1       2.197   0.724   0.000  0.00  0.00     0.019 C 
ATOM     22  C   UNL d   1       2.588   0.000   0.000  0.00  0.00     0.002 C 
ENDBRANCH  20  21
ENDBRANCH   3  20
TORSDOF 6
