REMARK  3 active torsions:
REMARK  status: ('A' for Active; 'I' for Inactive)
REMARK    1  A    between atoms: C_6  and  C_1 
REMARK    2  A    between atoms: C_7  and  N_3 
REMARK    3  A    between atoms: C_10  and  C_7 
ROOT
ATOM      1  C   UNL d   1       2.674   2.810   0.000  0.00  0.00     0.148 A 
ATOM      2  N   UNL d   1       2.174   3.475   0.000  0.00  0.00    -0.227 NA
ATOM      3  N   UNL d   1       2.174   2.155   0.000  0.00  0.00    -0.289 N 
ATOM      4  C   UNL d   1       1.406   2.396   0.000  0.00  0.00     0.083 A 
ATOM      5  C   UNL d   1       1.406   3.224   0.000  0.00  0.00     0.099 A 
ATOM      6  C   UNL d   1       0.690   1.987   0.000  0.00  0.00     0.019 A 
ATOM      7  C   UNL d   1       0.690   3.608   0.000  0.00  0.00     0.021 A 
ATOM      8  C   UNL d   1       0.000   2.396   0.000  0.00  0.00     0.002 A 
ATOM      9  C   UNL d   1       0.000   3.224   0.000  0.00  0.00     0.002 A 
ENDROOT
BRANCH   1  10
ATOM     10  C   UNL d   1       3.502   2.810   0.000  0.00  0.00     0.035 A 
ATOM     11  C   UNL d   1       3.915   2.098   0.000  0.00  0.00     0.005 A 
ATOM     12  C   UNL d   1       4.743   2.098   0.000  0.00  0.00     0.021 A 
ATOM     13  C   UNL d   1       5.157   2.810   0.000  0.00  0.00     0.103 A 
ATOM     14  C   UNL d   1       4.743   3.526   0.000  0.00  0.00     0.021 A 
ATOM     15  N   UNL d   1       5.984   2.810   0.000  0.00  0.00    -0.148 N 
ATOM     16  C   UNL d   1       3.915   3.526   0.000  0.00  0.00     0.005 A 
ENDBRANCH   1  10
BRANCH   3  17
ATOM     17  C   UNL d   1       2.563   1.438   0.000  0.00  0.00     0.082 C 
BRANCH  17  18
ATOM     18  C   UNL d   1       2.174   0.722   0.000  0.00  0.00     0.019 C 
ATOM     19  C   UNL d   1       2.563   0.000   0.000  0.00  0.00     0.002 C 
ENDBRANCH  17  18
ENDBRANCH   3  17
TORSDOF 3
