REMARK  4 active torsions:
REMARK  status: ('A' for Active; 'I' for Inactive)
REMARK    1  A    between atoms: C_2  and  S_1 
REMARK    2  A    between atoms: N_9  and  S_1 
REMARK    3  A    between atoms: C_18  and  N_9 
REMARK    4  A    between atoms: C_19  and  N_9 
ROOT
ATOM      1  C   UNL d   1      -4.992   0.819   0.000  0.00  0.00     0.104 A 
ATOM      2  C   UNL d   1      -2.238   0.925   0.000  0.00  0.00     0.225 A 
ATOM      3  S   UNL d   1      -2.789   1.864   0.000  0.00  0.00    -0.046 SA
ATOM      4  C   UNL d   1      -3.558   0.784   0.000  0.00  0.00     0.010 A 
ATOM      5  C   UNL d   1      -3.558   1.631   0.000  0.00  0.00     0.033 A 
ATOM      6  C   UNL d   1      -4.272   0.374   0.000  0.00  0.00     0.013 A 
ATOM      7  C   UNL d   1      -2.852   0.374   0.000  0.00  0.00     0.046 A 
ATOM      8  C   UNL d   1      -4.992   1.631   0.000  0.00  0.00     0.013 A 
ATOM      9  C   UNL d   1      -4.272   2.033   0.000  0.00  0.00     0.007 A 
ATOM     10  O   UNL d   1      -1.462   0.614   0.000  0.00  0.00    -0.279 OA
ATOM     11  C   UNL d   1      -4.272  -0.473   0.000  0.00  0.00     0.001 A 
ATOM     12  C   UNL d   1      -2.852  -0.473   0.000  0.00  0.00     0.004 A 
ATOM     13  C   UNL d   1      -3.558  -0.876   0.000  0.00  0.00     0.000 A 
ENDROOT
BRANCH   1  14
ATOM     14  S   UNL d   1      -5.733   0.416   0.000  0.00  0.00     0.271 S 
ATOM     15  O   UNL d   1      -6.100   1.158   0.000  0.00  0.00    -0.200 OA
ATOM     16  O   UNL d   1      -5.331  -0.339   0.000  0.00  0.00    -0.200 OA
BRANCH  14  17
ATOM     17  N   UNL d   1      -6.474   0.000   0.000  0.00  0.00    -0.229 N 
BRANCH  17  18
ATOM     18  C   UNL d   1      -7.152   0.480   0.000  0.00  0.00     0.092 C 
ATOM     19  C   UNL d   1      -7.131   1.292   0.000  0.00  0.00     0.021 C 
ENDBRANCH  17  18
BRANCH  17  20
ATOM     20  C   UNL d   1      -6.517  -0.812   0.000  0.00  0.00     0.092 C 
ATOM     21  C   UNL d   1      -7.258  -1.186   0.000  0.00  0.00     0.021 C 
ENDBRANCH  17  20
ENDBRANCH  14  17
ENDBRANCH   1  14
TORSDOF 4
