REMARK  5 active torsions:
REMARK  status: ('A' for Active; 'I' for Inactive)
REMARK    1  A    between atoms: O_4  and  C_1 
REMARK    2  A    between atoms: C_10  and  C_2 
REMARK    3  A    between atoms: C_5  and  O_4 
REMARK    4  A    between atoms: C_7  and  C_5 
REMARK    5  A    between atoms: N_12  and  C_10 
ROOT
ATOM      1  C   UNL d   1      -0.910   1.904   0.000  0.00  0.00     0.122 A 
ATOM      2  C   UNL d   1      -0.194   2.319   0.000  0.00  0.00     0.043 A 
ATOM      3  C   UNL d   1      -1.625   2.319   0.000  0.00  0.00     0.105 A 
ATOM      4  C   UNL d   1      -1.625   3.144   0.000  0.00  0.00     0.030 A 
ATOM      5  C   UNL d   1      -0.910   3.548   0.000  0.00  0.00     0.059 A 
ATOM      6  C   UNL d   1      -0.194   3.144   0.000  0.00  0.00     0.015 A 
ATOM      7  N   UNL d   1      -2.334   1.904   0.000  0.00  0.00    -0.242 NA
ATOM      8 CL   UNL d   1      -0.936   4.385   0.000  0.00  0.00    -0.082 Cl
ATOM      9  C   UNL d   1      -2.334   3.548   0.000  0.00  0.00     0.004 A 
ATOM     10  C   UNL d   1      -3.049   2.319   0.000  0.00  0.00     0.099 A 
ATOM     11  C   UNL d   1      -3.049   3.144   0.000  0.00  0.00     0.021 A 
ENDROOT
BRANCH   1  12
ATOM     12  O   UNL d   1      -0.921   1.156   0.000  0.00  0.00    -0.271 OA
BRANCH  12  13
ATOM     13  C   UNL d   1      -1.541   0.415   0.000  0.00  0.00     0.306 C 
ATOM     14  O   UNL d   1      -2.510   0.690   0.000  0.00  0.00    -0.258 OA
BRANCH  13  15
ATOM     15  C   UNL d   1      -1.277  -0.367   0.000  0.00  0.00     0.093 A 
ATOM     16  S   UNL d   1      -0.495  -0.605   0.000  0.00  0.00    -0.081 SA
ATOM     17  C   UNL d   1      -0.495  -1.457   0.000  0.00  0.00     0.036 A 
ATOM     18  C   UNL d   1      -1.277  -1.706   0.000  0.00  0.00     0.008 A 
ATOM     19  C   UNL d   1      -1.761  -1.013   0.000  0.00  0.00     0.012 A 
ENDBRANCH  13  15
ENDBRANCH  12  13
ENDBRANCH   1  12
BRANCH   2  20
ATOM     20  C   UNL d   1       0.675   2.044   0.000  0.00  0.00     0.082 C 
BRANCH  20  21
ATOM     21  N   UNL d   1       1.277   2.605   0.000  0.00  0.00    -0.299 N 
ATOM     22  C   UNL d   1       1.101   3.401   0.000  0.00  0.00     0.107 A 
ATOM     23  C   UNL d   1       1.699   3.963   0.000  0.00  0.00     0.142 A 
ATOM     24  O   UNL d   1       2.491   3.713   0.000  0.00  0.00    -0.300 OA
ATOM     25  C   UNL d   1       2.675   2.917   0.000  0.00  0.00     0.142 A 
ATOM     26  C   UNL d   1       2.058   2.363   0.000  0.00  0.00     0.107 A 
ENDBRANCH  20  21
ENDBRANCH   2  20
TORSDOF 5
