REMARK  5 active torsions:
REMARK  status: ('A' for Active; 'I' for Inactive)
REMARK    1  A    between atoms: O_4  and  C_1 
REMARK    2  A    between atoms: C_9  and  C_2 
REMARK    3  A    between atoms: C_5  and  O_4 
REMARK    4  A    between atoms: C_13  and  C_5 
REMARK    5  A    between atoms: N_10  and  C_9 
ROOT
ATOM      1  C   UNL d   1      -0.903   0.510   0.000  0.00  0.00     0.122 A 
ATOM      2  C   UNL d   1      -0.193   0.918   0.000  0.00  0.00     0.043 A 
ATOM      3  C   UNL d   1      -1.613   0.918   0.000  0.00  0.00     0.105 A 
ATOM      4  C   UNL d   1      -1.613   1.744   0.000  0.00  0.00     0.030 A 
ATOM      5  C   UNL d   1      -0.903   2.152   0.000  0.00  0.00     0.059 A 
ATOM      6  C   UNL d   1      -0.193   1.744   0.000  0.00  0.00     0.015 A 
ATOM      7  N   UNL d   1      -2.316   0.510   0.000  0.00  0.00    -0.242 NA
ATOM      8 CL   UNL d   1      -0.929   2.971   0.000  0.00  0.00    -0.082 Cl
ATOM      9  C   UNL d   1      -2.316   2.152   0.000  0.00  0.00     0.004 A 
ATOM     10  C   UNL d   1      -3.026   0.918   0.000  0.00  0.00     0.099 A 
ATOM     11  C   UNL d   1      -3.026   1.744   0.000  0.00  0.00     0.021 A 
ENDROOT
BRANCH   1  12
ATOM     12  O   UNL d   1      -0.914  -0.233   0.000  0.00  0.00    -0.271 OA
BRANCH  12  13
ATOM     13  C   UNL d   1      -1.530  -0.965   0.000  0.00  0.00     0.300 C 
ATOM     14  O   UNL d   1      -2.491  -0.699   0.000  0.00  0.00    -0.259 OA
BRANCH  13  15
ATOM     15  C   UNL d   1      -1.267  -1.748   0.000  0.00  0.00     0.064 A 
ATOM     16  C   UNL d   1      -0.455  -1.905   0.000  0.00  0.00     0.005 A 
ATOM     17  C   UNL d   1      -0.193  -2.691   0.000  0.00  0.00     0.000 A 
ATOM     18  C   UNL d   1      -0.739  -3.321   0.000  0.00  0.00     0.000 A 
ATOM     19  C   UNL d   1      -1.548  -3.150   0.000  0.00  0.00     0.000 A 
ATOM     20  C   UNL d   1      -1.810  -2.363   0.000  0.00  0.00     0.005 A 
ENDBRANCH  13  15
ENDBRANCH  12  13
ENDBRANCH   1  12
BRANCH   2  21
ATOM     21  C   UNL d   1       0.670   0.652   0.000  0.00  0.00     0.082 C 
BRANCH  21  22
ATOM     22  N   UNL d   1       1.267   1.198   0.000  0.00  0.00    -0.299 N 
ATOM     23  C   UNL d   1       2.043   0.961   0.000  0.00  0.00     0.107 A 
ATOM     24  C   UNL d   1       2.655   1.515   0.000  0.00  0.00     0.142 A 
ATOM     25  O   UNL d   1       2.473   2.312   0.000  0.00  0.00    -0.300 OA
ATOM     26  C   UNL d   1       1.686   2.553   0.000  0.00  0.00     0.142 A 
ATOM     27  C   UNL d   1       1.093   1.996   0.000  0.00  0.00     0.107 A 
ENDBRANCH  21  22
ENDBRANCH   2  21
TORSDOF 5
