REMARK  3 active torsions:
REMARK  status: ('A' for Active; 'I' for Inactive)
REMARK    1  A    between atoms: C_6  and  C_2 
REMARK    2  A    between atoms: O_7  and  C_6 
REMARK    3  A    between atoms: C_8  and  O_7 
ROOT
ATOM      1  N   UNL d   1       2.182   1.494   0.000  0.00  0.00    -0.224 NA
ATOM      2  C   UNL d   1       2.680   0.830   0.000  0.00  0.00     0.188 A 
ATOM      3  N   UNL d   1       2.182   0.167   0.000  0.00  0.00    -0.224 NA
ATOM      4  C   UNL d   1       1.409   1.244   0.000  0.00  0.00     0.101 A 
ATOM      5  C   UNL d   1       1.409   0.417   0.000  0.00  0.00     0.101 A 
ATOM      6  C   UNL d   1       0.687   1.632   0.000  0.00  0.00     0.021 A 
ATOM      7  C   UNL d   1       0.687   0.000   0.000  0.00  0.00     0.021 A 
ATOM      8  C   UNL d   1       0.000   0.417   0.000  0.00  0.00     0.002 A 
ATOM      9  C   UNL d   1       0.000   1.244   0.000  0.00  0.00     0.002 A 
ENDROOT
BRANCH   2  10
ATOM     10  C   UNL d   1       3.453   1.050   0.000  0.00  0.00     0.161 C 
BRANCH  10  11
ATOM     11  O   UNL d   1       4.059   0.471   0.000  0.00  0.00    -0.302 OA
BRANCH  11  12
ATOM     12  C   UNL d   1       4.862   0.692   0.000  0.00  0.00     0.100 A 
ATOM     13  C   UNL d   1       5.443   0.115   0.000  0.00  0.00     0.025 A 
ATOM     14  C   UNL d   1       6.246   0.307   0.000  0.00  0.00     0.002 A 
ATOM     15  C   UNL d   1       6.437   1.109   0.000  0.00  0.00     0.000 A 
ATOM     16  C   UNL d   1       5.856   1.691   0.000  0.00  0.00     0.002 A 
ATOM     17  C   UNL d   1       7.240   1.330   0.000  0.00  0.00     0.000 C 
ATOM     18  C   UNL d   1       5.058   1.494   0.000  0.00  0.00     0.025 A 
ENDBRANCH  11  12
ENDBRANCH  10  11
ENDBRANCH   2  10
TORSDOF 3
