REMARK  8 active torsions:
REMARK  status: ('A' for Active; 'I' for Inactive)
REMARK    1  A    between atoms: C_2  and  C_1 
REMARK    2  A    between atoms: C_5  and  C_1 
REMARK    3  A    between atoms: O_11  and  C_2 
REMARK    4  A    between atoms: C_13  and  C_3 
REMARK    5  A    between atoms: C_6  and  C_5 
REMARK    6  A    between atoms: C_23  and  O_11 
REMARK    7  A    between atoms: C_12  and  S_14 
REMARK    8  A    between atoms: S_14  and  C_18 
ROOT
ATOM      1  C   UNL d   1       4.497  -1.889   0.000  0.00  0.00     0.134 C 
ATOM      2  C   UNL d   1       4.460  -1.065   0.000  0.00  0.00     0.106 C 
ATOM      3  N   UNL d   1       4.418  -0.241   0.000  0.00  0.00    -0.191 NA
ENDROOT
BRANCH   1   4
ATOM      4  C   UNL d   1       5.234  -2.263   0.000  0.00  0.00     0.310 C 
ATOM      5  O   UNL d   1       5.280  -3.087   0.000  0.00  0.00    -0.258 OA
BRANCH   4   6
ATOM      6  O   UNL d   1       5.929  -1.814   0.000  0.00  0.00    -0.273 OA
BRANCH   6   7
ATOM      7  C   UNL d   1       6.657  -2.188   0.000  0.00  0.00     0.103 C 
ATOM      8  C   UNL d   1       6.702  -3.012   0.000  0.00  0.00     0.027 C 
ATOM      9  C   UNL d   1       7.351  -1.739   0.000  0.00  0.00     0.027 C 
ENDBRANCH   6   7
ENDBRANCH   4   6
ENDBRANCH   1   4
BRANCH   1  10
ATOM     10  C   UNL d   1       3.811  -2.338   0.000  0.00  0.00     0.040 C 
BRANCH  10  11
ATOM     11  C   UNL d   1       3.083  -1.964   0.000  0.00  0.00     0.101 A 
ATOM     12  O   UNL d   1       2.421  -2.450   0.000  0.00  0.00    -0.307 OA
ATOM     13  C   UNL d   1       1.752  -1.972   0.000  0.00  0.00     0.100 A 
ATOM     14  C   UNL d   1       2.001  -1.186   0.000  0.00  0.00     0.027 A 
ATOM     15  C   UNL d   1       2.812  -1.173   0.000  0.00  0.00     0.027 A 
BRANCH  13  16
ATOM     16  C   UNL d   1       0.974  -2.226   0.000  0.00  0.00     0.023 A 
ATOM     17  C   UNL d   1       0.974  -3.058   0.000  0.00  0.00     0.003 A 
ATOM     18  C   UNL d   1       0.254  -3.470   0.000  0.00  0.00     0.007 A 
ATOM     19  C   UNL d   1      -0.458  -3.058   0.000  0.00  0.00     0.034 A 
ATOM     20  C   UNL d   1      -0.458  -2.234   0.000  0.00  0.00     0.007 A 
ATOM     21  C   UNL d   1       0.254  -1.814   0.000  0.00  0.00     0.003 A 
BRANCH  19  22
ATOM     22  S   UNL d   1      -1.169  -3.470   0.000  0.00  0.00    -0.028 SA
BRANCH  22  23
ATOM     23  C   UNL d   1      -1.881  -3.058   0.000  0.00  0.00     0.309 C 
ATOM     24  F   UNL d   1      -2.596  -3.470   0.000  0.00  0.00    -0.165 F 
ATOM     25  F   UNL d   1      -1.881  -2.234   0.000  0.00  0.00    -0.165 F 
ENDBRANCH  22  23
ENDBRANCH  19  22
ENDBRANCH  13  16
ENDBRANCH  10  11
ENDBRANCH   1  10
TORSDOF 8
