REMARK  6 active torsions:
REMARK  status: ('A' for Active; 'I' for Inactive)
REMARK    1  A    between atoms: C_5  and  C_1 
REMARK    2  A    between atoms: N_6  and  C_5 
REMARK    3  A    between atoms: C_9  and  C_5 
REMARK    4  A    between atoms: C_8  and  C_11 
REMARK    5  A    between atoms: O_18  and  C_8 
REMARK    6  A    between atoms: C_23  and  O_18 
ROOT
ATOM      1  C   UNL d   1      -0.141  -0.438   0.000  0.00  0.00     0.083 C 
ENDROOT
BRANCH   1   2
ATOM      2  C   UNL d   1      -0.422  -1.224   0.000  0.00  0.00     0.037 A 
ATOM      3  C   UNL d   1       0.047  -1.904   0.000  0.00  0.00     0.083 A 
ATOM      4  N   UNL d   1      -0.422  -2.561   0.000  0.00  0.00    -0.245 NA
ATOM      5  C   UNL d   1       0.891  -1.904   0.000  0.00  0.00     0.021 C 
ATOM      6  C   UNL d   1      -1.193  -2.315   0.000  0.00  0.00     0.081 A 
ATOM      7  C   UNL d   1      -1.193  -1.490   0.000  0.00  0.00     0.021 A 
ATOM      8  C   UNL d   1      -1.908  -2.725   0.000  0.00  0.00     0.019 A 
ATOM      9  C   UNL d   1      -1.908  -1.079   0.000  0.00  0.00     0.002 A 
ATOM     10  C   UNL d   1      -2.624  -1.490   0.000  0.00  0.00     0.000 A 
ATOM     11  C   UNL d   1      -2.624  -2.315   0.000  0.00  0.00     0.002 A 
ENDBRANCH   1   2
BRANCH   1  12
ATOM     12  N   UNL d   1       0.684  -0.285   0.000  0.00  0.00    -0.302 N 
ATOM     13  C   UNL d   1       1.208  -0.907   0.000  0.00  0.00     0.080 A 
ATOM     14  C   UNL d   1       2.018  -0.755   0.000  0.00  0.00     0.024 A 
ATOM     15  C   UNL d   1       2.280   0.031   0.000  0.00  0.00     0.067 A 
ATOM     16  C   UNL d   1       1.752   0.653   0.000  0.00  0.00     0.024 A 
ATOM     17  C   UNL d   1       0.942   0.500   0.000  0.00  0.00     0.080 A 
BRANCH  15  18
ATOM     18  C   UNL d   1       3.101   0.199   0.000  0.00  0.00     0.300 C 
ATOM     19  O   UNL d   1       3.367   0.985   0.000  0.00  0.00    -0.259 OA
BRANCH  18  20
ATOM     20  O   UNL d   1       3.629  -0.422   0.000  0.00  0.00    -0.271 OA
BRANCH  20  21
ATOM     21  C   UNL d   1       4.438  -0.270   0.000  0.00  0.00     0.126 C 
ATOM     22  C   UNL d   1       4.962  -0.891   0.000  0.00  0.00     0.029 C 
ENDBRANCH  20  21
ENDBRANCH  18  20
ENDBRANCH  15  18
ENDBRANCH   1  12
BRANCH   1  23
ATOM     23  C   UNL d   1      -0.688   0.199   0.000  0.00  0.00     0.098 A 
ATOM     24  N   UNL d   1      -0.422   0.970   0.000  0.00  0.00    -0.243 NA
ATOM     25  C   UNL d   1      -0.950   1.591   0.000  0.00  0.00     0.099 A 
ATOM     26  C   UNL d   1      -1.756   1.439   0.000  0.00  0.00     0.021 A 
ATOM     27  C   UNL d   1      -2.037   0.669   0.000  0.00  0.00     0.003 A 
ATOM     28  C   UNL d   1      -1.513   0.031   0.000  0.00  0.00     0.021 A 
ENDBRANCH   1  23
TORSDOF 6
