REMARK  5 active torsions:
REMARK  status: ('A' for Active; 'I' for Inactive)
REMARK    1  A    between atoms: C_6  and  C_1 
REMARK    2  A    between atoms: C_11  and  N_3 
REMARK    3  A    between atoms: C_14  and  C_11 
REMARK    4  A    between atoms: O_12  and  C_14 
REMARK    5  A    between atoms: C_13  and  O_12 
ROOT
ATOM      1  C   UNL d   1       2.667   5.004   0.000  0.00  0.00     0.171 A 
ATOM      2  N   UNL d   1       2.168   5.665   0.000  0.00  0.00    -0.225 NA
ATOM      3  N   UNL d   1       2.168   4.341   0.000  0.00  0.00    -0.286 N 
ATOM      4  C   UNL d   1       1.402   4.591   0.000  0.00  0.00     0.083 A 
ATOM      5  C   UNL d   1       1.402   5.417   0.000  0.00  0.00     0.099 A 
ATOM      6  C   UNL d   1       0.688   4.179   0.000  0.00  0.00     0.019 A 
ATOM      7  C   UNL d   1       0.688   5.800   0.000  0.00  0.00     0.021 A 
ATOM      8  C   UNL d   1       0.000   4.591   0.000  0.00  0.00     0.002 A 
ATOM      9  C   UNL d   1       0.000   5.417   0.000  0.00  0.00     0.002 A 
ENDROOT
BRANCH   3  10
ATOM     10  C   UNL d   1       2.556   3.627   0.000  0.00  0.00     0.108 C 
BRANCH  10  11
ATOM     11  C   UNL d   1       2.168   2.912   0.000  0.00  0.00     0.142 C 
BRANCH  11  12
ATOM     12  O   UNL d   1       2.556   2.200   0.000  0.00  0.00    -0.304 OA
BRANCH  12  13
ATOM     13  C   UNL d   1       2.581   1.434   0.000  0.00  0.00     0.100 A 
ATOM     14  C   UNL d   1       3.406   1.434   0.000  0.00  0.00     0.025 A 
ATOM     15  C   UNL d   1       3.818   0.719   0.000  0.00  0.00     0.002 A 
ATOM     16  C   UNL d   1       3.406   0.000   0.000  0.00  0.00     0.000 A 
ATOM     17  C   UNL d   1       2.581   0.000   0.000  0.00  0.00     0.002 A 
ATOM     18  C   UNL d   1       2.168   0.719   0.000  0.00  0.00     0.025 A 
ENDBRANCH  12  13
ENDBRANCH  11  12
ENDBRANCH  10  11
ENDBRANCH   3  10
BRANCH   1  19
ATOM     19  C   UNL d   1       3.491   5.004   0.000  0.00  0.00     0.134 A 
ATOM     20  O   UNL d   1       3.958   5.665   0.000  0.00  0.00    -0.302 OA
ATOM     21  C   UNL d   1       4.754   5.417   0.000  0.00  0.00     0.123 A 
ATOM     22  C   UNL d   1       4.754   4.591   0.000  0.00  0.00     0.029 A 
ATOM     23  C   UNL d   1       3.958   4.341   0.000  0.00  0.00     0.030 A 
ENDBRANCH   1  19
TORSDOF 5
