REMARK  8 active torsions:
REMARK  status: ('A' for Active; 'I' for Inactive)
REMARK    1  A    between atoms: C_6  and  N_1 
REMARK    2  A    between atoms: C_7  and  C_2 
REMARK    3  A    between atoms: C_8  and  C_6 
REMARK    4  A    between atoms: O_14  and  C_8 
REMARK    5  A    between atoms: O_15  and  C_8 
REMARK    6  A    between atoms: O_18  and  C_11 
REMARK    7  A    between atoms: C_20  and  O_14 
REMARK    8  A    between atoms: C_19  and  O_15 
ROOT
ATOM      1  N   UNL d   1       2.581   3.546   0.000  0.00  0.00    -0.286 N 
ATOM      2  C   UNL d   1       3.079   4.206   0.000  0.00  0.00     0.148 A 
ATOM      3  N   UNL d   1       2.581   4.864   0.000  0.00  0.00    -0.227 NA
ATOM      4  C   UNL d   1       1.815   3.793   0.000  0.00  0.00     0.083 A 
ATOM      5  C   UNL d   1       1.815   4.619   0.000  0.00  0.00     0.099 A 
ATOM      6  C   UNL d   1       1.100   3.376   0.000  0.00  0.00     0.019 A 
ATOM      7  C   UNL d   1       1.100   5.004   0.000  0.00  0.00     0.021 A 
ATOM      8  C   UNL d   1       0.412   3.793   0.000  0.00  0.00     0.002 A 
ATOM      9  C   UNL d   1       0.412   4.619   0.000  0.00  0.00     0.002 A 
ENDROOT
BRANCH   1  10
ATOM     10  C   UNL d   1       2.831   2.777   0.000  0.00  0.00     0.133 C 
BRANCH  10  11
ATOM     11  C   UNL d   1       2.254   2.173   0.000  0.00  0.00     0.222 C 
BRANCH  11  12
ATOM     12  O   UNL d   1       2.475   1.375   0.000  0.00  0.00    -0.282 OA
BRANCH  12  13
ATOM     13  C   UNL d   1       3.052   0.800   0.000  0.00  0.00     0.125 C 
ATOM     14  C   UNL d   1       2.831   0.000   0.000  0.00  0.00     0.029 C 
ENDBRANCH  12  13
ENDBRANCH  11  12
BRANCH  11  15
ATOM     15  O   UNL d   1       1.429   2.365   0.000  0.00  0.00    -0.282 OA
BRANCH  15  16
ATOM     16  C   UNL d   1       0.715   1.957   0.000  0.00  0.00     0.125 C 
ATOM     17  C   UNL d   1       0.000   2.365   0.000  0.00  0.00     0.029 C 
ENDBRANCH  15  16
ENDBRANCH  11  15
ENDBRANCH  10  11
ENDBRANCH   1  10
BRANCH   2  18
ATOM     18  C   UNL d   1       3.904   4.206   0.000  0.00  0.00     0.035 A 
ATOM     19  C   UNL d   1       4.316   3.487   0.000  0.00  0.00     0.005 A 
ATOM     20  C   UNL d   1       5.141   3.487   0.000  0.00  0.00     0.024 A 
ATOM     21  C   UNL d   1       5.554   4.206   0.000  0.00  0.00     0.094 A 
ATOM     22  C   UNL d   1       5.141   4.920   0.000  0.00  0.00     0.024 A 
ATOM     23  C   UNL d   1       4.316   4.920   0.000  0.00  0.00     0.005 A 
BRANCH  21  24
ATOM     24  O   UNL d   1       6.379   4.206   0.000  0.00  0.00    -0.328 OA
ATOM     25  C   UNL d   1       6.792   3.487   0.000  0.00  0.00     0.181 C 
ENDBRANCH  21  24
ENDBRANCH   2  18
TORSDOF 8
