REMARK  4 active torsions:
REMARK  status: ('A' for Active; 'I' for Inactive)
REMARK    1  A    between atoms: C_2  and  S_1 
REMARK    2  A    between atoms: N_3  and  S_1 
REMARK    3  A    between atoms: C_4  and  N_3 
REMARK    4  A    between atoms: O_12  and  C_10 
ROOT
ATOM      1  N   UNL d   1       0.311   0.096   0.000  0.00  0.00    -0.156 NA
ENDROOT
BRANCH   1   2
ATOM      2  S   UNL d   1       0.475  -0.746   0.000  0.00  0.00     0.291 S 
ATOM      3  O   UNL d   1       1.288  -0.582   0.000  0.00  0.00    -0.198 OA
ATOM      4  O   UNL d   1      -0.339  -0.904   0.000  0.00  0.00    -0.198 OA
BRANCH   2   5
ATOM      5  C   UNL d   1       0.633  -1.560   0.000  0.00  0.00     0.135 A 
ATOM      6  S   UNL d   1       1.339  -1.967   0.000  0.00  0.00    -0.073 SA
ATOM      7  C   UNL d   1       1.153  -2.752   0.000  0.00  0.00     0.036 A 
ATOM      8  C   UNL d   1       0.362  -2.831   0.000  0.00  0.00     0.008 A 
ATOM      9  C   UNL d   1       0.006  -2.102   0.000  0.00  0.00     0.020 A 
ENDBRANCH   2   5
ENDBRANCH   1   2
BRANCH   1  10
ATOM     10  C   UNL d   1      -0.503   0.367   0.000  0.00  0.00     0.116 A 
ATOM     11  C   UNL d   1      -0.672   1.215   0.000  0.00  0.00     0.112 A 
ATOM     12  C   UNL d   1      -1.401   1.486   0.000  0.00  0.00     0.026 A 
ATOM     13  C   UNL d   1      -2.051   0.966   0.000  0.00  0.00     0.002 A 
ATOM     14  C   UNL d   1      -1.916   0.153   0.000  0.00  0.00     0.002 A 
ATOM     15  C   UNL d   1      -1.130  -0.141   0.000  0.00  0.00     0.022 A 
BRANCH  11  16
ATOM     16  O   UNL d   1      -0.045   1.780   0.000  0.00  0.00    -0.327 OA
ATOM     17  C   UNL d   1      -0.203   2.571   0.000  0.00  0.00     0.181 C 
ENDBRANCH  11  16
ENDBRANCH   1  10
TORSDOF 4
