REMARK  6 active torsions:
REMARK  status: ('A' for Active; 'I' for Inactive)
REMARK    1  A    between atoms: C_5  and  N_1 
REMARK    2  A    between atoms: C_8  and  C_2 
REMARK    3  A    between atoms: C_3  and  O_4 
REMARK    4  A    between atoms: O_4  and  C_9 
REMARK    5  A    between atoms: C_7  and  C_5 
REMARK    6  A    between atoms: C_9  and  C_7 
ROOT
ATOM      1  O   UNL d   1      -0.333   0.258   0.000  0.00  0.00    -0.302 OA
ENDROOT
BRANCH   1   2
ATOM      2  C   UNL d   1      -1.043   0.669   0.000  0.00  0.00     0.100 A 
ATOM      3  C   UNL d   1      -1.758   0.258   0.000  0.00  0.00     0.023 A 
ATOM      4  C   UNL d   1      -2.469   0.669   0.000  0.00  0.00     0.002 A 
ATOM      5  C   UNL d   1      -2.469   1.496   0.000  0.00  0.00     0.000 A 
ATOM      6  C   UNL d   1      -1.758   1.908   0.000  0.00  0.00     0.002 A 
ATOM      7  C   UNL d   1      -1.043   1.496   0.000  0.00  0.00     0.025 A 
BRANCH   3   8
ATOM      8  C   UNL d   1      -1.758  -0.565   0.000  0.00  0.00     0.002 C 
ATOM      9  C   UNL d   1      -1.043  -0.977   0.000  0.00  0.00     0.000 C 
ATOM     10  C   UNL d   1      -2.469  -0.977   0.000  0.00  0.00     0.000 C 
ENDBRANCH   3   8
ENDBRANCH   1   2
BRANCH   1  11
ATOM     11  C   UNL d   1       0.378   0.673   0.000  0.00  0.00     0.166 C 
BRANCH  11  12
ATOM     12  C   UNL d   1       1.097   0.262   0.000  0.00  0.00     0.238 C 
ATOM     13  O   UNL d   1       1.097  -0.561   0.000  0.00  0.00    -0.283 OA
BRANCH  12  14
ATOM     14  C   UNL d   1       1.808   0.673   0.000  0.00  0.00     0.125 C 
BRANCH  14  15
ATOM     15  N   UNL d   1       2.523   0.262   0.000  0.00  0.00    -0.296 N 
ATOM     16  C   UNL d   1       2.519  -0.565   0.000  0.00  0.00     0.107 A 
ATOM     17  C   UNL d   1       3.230  -0.977   0.000  0.00  0.00     0.142 A 
ATOM     18  O   UNL d   1       3.945  -0.565   0.000  0.00  0.00    -0.300 OA
ATOM     19  C   UNL d   1       3.945   0.258   0.000  0.00  0.00     0.142 A 
ATOM     20  C   UNL d   1       3.230   0.673   0.000  0.00  0.00     0.107 A 
ENDBRANCH  14  15
ENDBRANCH  12  14
ENDBRANCH  11  12
ENDBRANCH   1  11
TORSDOF 6
