REMARK  5 active torsions:
REMARK  status: ('A' for Active; 'I' for Inactive)
REMARK    1  A    between atoms: N_5  and  S_1 
REMARK    2  A    between atoms: C_10  and  S_1 
REMARK    3  A    between atoms: C_2  and  N_6 
REMARK    4  A    between atoms: C_20  and  N_5 
REMARK    5  A    between atoms: C_7  and  C_14 
REMARK       I    between atoms: N_8  and  C_7 
ROOT
ATOM      1  C   UNL d   1      -5.321   3.030   0.000  0.00  0.00     0.104 A 
ATOM      2  C   UNL d   1      -3.898   3.827   0.000  0.00  0.00     0.057 A 
ATOM      3  C   UNL d   1      -4.591   2.627   0.000  0.00  0.00     0.013 A 
ATOM      4  C   UNL d   1      -5.325   3.840   0.000  0.00  0.00     0.013 A 
ATOM      5  C   UNL d   1      -3.886   3.042   0.000  0.00  0.00     0.005 A 
ATOM      6  C   UNL d   1      -4.616   4.247   0.000  0.00  0.00     0.005 A 
ENDROOT
BRANCH   2   7
ATOM      7  C   UNL d   1      -3.181   4.234   0.000  0.00  0.00     0.265 C 
ATOM      8  N   UNL d   1      -2.463   3.823   0.000  0.00  0.00    -0.269 N 
ATOM      9  C   UNL d   1      -1.700   4.196   0.000  0.00  0.00     0.102 A 
ATOM     10  C   UNL d   1      -2.463   3.005   0.000  0.00  0.00     0.102 A 
ATOM     11  C   UNL d   1      -1.003   3.802   0.000  0.00  0.00     0.101 A 
ATOM     12  N   UNL d   1      -1.028   2.979   0.000  0.00  0.00    -0.281 N 
ATOM     13  C   UNL d   1      -1.708   2.564   0.000  0.00  0.00     0.101 A 
ATOM     14  O   UNL d   1      -3.193   5.065   0.000  0.00  0.00    -0.267 OA
BRANCH  12  15
ATOM     15  C   UNL d   1      -0.336   2.556   0.000  0.00  0.00     0.179 A 
ATOM     16  N   UNL d   1       0.457   2.866   0.000  0.00  0.00    -0.222 NA
ATOM     17  C   UNL d   1       0.944   2.199   0.000  0.00  0.00     0.089 A 
ATOM     18  C   UNL d   1       1.762   2.115   0.000  0.00  0.00     0.020 A 
ATOM     19  C   UNL d   1       0.445   1.548   0.000  0.00  0.00     0.050 A 
ATOM     20  C   UNL d   1       2.132   1.343   0.000  0.00  0.00     0.002 A 
ATOM     21  C   UNL d   1       1.603   0.680   0.000  0.00  0.00     0.001 A 
ATOM     22  C   UNL d   1       0.772   0.776   0.000  0.00  0.00     0.008 A 
ATOM     23  S   UNL d   1      -0.336   1.796   0.000  0.00  0.00    -0.048 SA
ENDBRANCH  12  15
ENDBRANCH   2   7
BRANCH   1  24
ATOM     24  S   UNL d   1      -6.026   2.589   0.000  0.00  0.00     0.271 S 
ATOM     25  O   UNL d   1      -6.462   3.307   0.000  0.00  0.00    -0.200 OA
ATOM     26  O   UNL d   1      -5.598   1.871   0.000  0.00  0.00    -0.200 OA
BRANCH  24  27
ATOM     27  N   UNL d   1      -6.739   2.165   0.000  0.00  0.00    -0.229 N 
ATOM     28  C   UNL d   1      -6.727   1.330   0.000  0.00  0.00     0.111 C 
BRANCH  27  29
ATOM     29  C   UNL d   1      -7.457   2.568   0.000  0.00  0.00     0.075 A 
ATOM     30  C   UNL d   1      -7.470   3.395   0.000  0.00  0.00     0.018 A 
ATOM     31  C   UNL d   1      -8.187   3.798   0.000  0.00  0.00     0.002 A 
ATOM     32  C   UNL d   1      -8.905   3.382   0.000  0.00  0.00     0.000 A 
ATOM     33  C   UNL d   1      -8.880   2.551   0.000  0.00  0.00     0.002 A 
ATOM     34  C   UNL d   1      -8.162   2.148   0.000  0.00  0.00     0.018 A 
ENDBRANCH  27  29
ENDBRANCH  24  27
ENDBRANCH   1  24
TORSDOF 5
