REMARK  11 active torsions:
REMARK  status: ('A' for Active; 'I' for Inactive)
REMARK    1  A    between atoms: C_2  and  C_1 
REMARK       I    between atoms: N_5  and  C_1 
REMARK    2  A    between atoms: C_4  and  C_2 
REMARK    3  A    between atoms: C_3  and  C_4 
REMARK    4  A    between atoms: O_10  and  C_3 
REMARK    5  A    between atoms: N_9  and  C_4 
REMARK    6  A    between atoms: C_8  and  N_5 
REMARK    7  A    between atoms: C_17  and  N_9 
REMARK    8  A    between atoms: O_16  and  C_11 
REMARK    9  A    between atoms: C_19  and  C_17 
REMARK   10  A    between atoms: C_21  and  C_19 
REMARK   11  A    between atoms: C_20  and  C_21 
ROOT
ATOM      1  C   UNK d   1       3.792  -0.927   0.000  0.00  0.00     0.084 C 
ENDROOT
BRANCH   1   2
ATOM      2  C   UNK d   1       2.961  -0.940   0.000  0.00  0.00     0.259 C 
ATOM      3  N   UNK d   1       2.562  -1.659   0.000  0.00  0.00    -0.321 N 
ATOM      4  H   UNK d   1       2.982  -2.370   0.000  0.00  0.00     0.169 HD
ATOM      5  O   UNK d   1       2.549  -0.229   0.000  0.00  0.00    -0.267 OA
BRANCH   3   6
ATOM      6  C   UNK d   1       1.726  -1.663   0.000  0.00  0.00     0.059 A 
ATOM      7  C   UNK d   1       1.314  -0.952   0.000  0.00  0.00     0.019 A 
ATOM      8  C   UNK d   1       0.491  -0.961   0.000  0.00  0.00     0.026 A 
ATOM      9  C   UNK d   1       0.079  -1.676   0.000  0.00  0.00     0.094 A 
ATOM     10  C   UNK d   1       0.499  -2.387   0.000  0.00  0.00     0.026 A 
ATOM     11  C   UNK d   1       1.327  -2.374   0.000  0.00  0.00     0.019 A 
BRANCH   9  12
ATOM     12  O   UNK d   1      -0.744  -1.684   0.000  0.00  0.00    -0.328 OA
ATOM     13  C   UNK d   1      -1.148  -2.399   0.000  0.00  0.00     0.181 C 
ENDBRANCH   9  12
ENDBRANCH   3   6
ENDBRANCH   1   2
BRANCH   1  14
ATOM     14  C   UNK d   1       4.196  -0.216   0.000  0.00  0.00     0.124 C 
BRANCH  14  15
ATOM     15  C   UNK d   1       3.780   0.495   0.000  0.00  0.00     0.194 C 
ATOM     16  O   UNK d   1       2.948   0.495   0.000  0.00  0.00    -0.645 OA
BRANCH  15  17
ATOM     17  O   UNK d   1       4.183   1.210   0.000  0.00  0.00    -0.772 OA
ATOM     18  H   UNK d   1       5.007   1.218   0.000  0.00  0.00     0.167 HD
ENDBRANCH  15  17
ENDBRANCH  14  15
BRANCH  14  19
ATOM     19  N   UNK d   1       5.027  -0.212   0.000  0.00  0.00    -0.347 N 
ATOM     20  H   UNK d   1       5.431   0.507   0.000  0.00  0.00     0.166 HD
BRANCH  19  21
ATOM     21  C   UNK d   0       5.443  -0.923   0.000  0.00  0.00     0.073 C 
BRANCH  21  22
ATOM     22  C   UNK d   0       5.032  -1.638   0.000  0.00  0.00     0.018 C 
BRANCH  22  23
ATOM     23  C   UNK d   0       5.456  -2.349   0.000  0.00  0.00     0.002 C 
BRANCH  23  24
ATOM     24  C   UNK d   0       6.279  -2.349   0.000  0.00  0.00     0.000 C 
ATOM     25  C   UNK d   0       6.678  -1.626   0.000  0.00  0.00     0.000 C 
ENDBRANCH  23  24
ENDBRANCH  22  23
ENDBRANCH  21  22
ENDBRANCH  19  21
ENDBRANCH  14  19
ENDBRANCH   1  14
TORSDOF 11
