REMARK  2 active torsions:
REMARK  status: ('A' for Active; 'I' for Inactive)
REMARK    1  A    between atoms: C_3  and  C_1 
REMARK       I    between atoms: N_6  and  C_3 
REMARK    2  A    between atoms: C_16  and  N_7 
ROOT
ATOM      1  C   UNL d   1       3.585   2.909   0.000  0.00  0.00     0.270 C 
ATOM      2  N   UNL d   1       4.301   2.496   0.000  0.00  0.00    -0.269 N 
ATOM      3  N   UNL d   1       5.720   1.665   0.000  0.00  0.00    -0.301 N 
ATOM      4  O   UNL d   1       3.588   3.735   0.000  0.00  0.00    -0.266 OA
ATOM      5  C   UNL d   1       4.293   1.672   0.000  0.00  0.00     0.102 A 
ATOM      6  C   UNL d   1       5.011   2.902   0.000  0.00  0.00     0.102 A 
ATOM      7  C   UNL d   1       5.724   2.486   0.000  0.00  0.00     0.100 A 
ATOM      8  C   UNL d   1       5.002   1.254   0.000  0.00  0.00     0.100 A 
ENDROOT
BRANCH   1   9
ATOM      9  C   UNL d   1       2.870   2.496   0.000  0.00  0.00     0.120 A 
ATOM     10  C   UNL d   1       2.865   1.672   0.000  0.00  0.00     0.305 A 
ATOM     11  O   UNL d   1       2.142   1.254   0.000  0.00  0.00    -0.273 OA
ATOM     12  O   UNL d   1       3.580   1.259   0.000  0.00  0.00    -0.259 OA
ATOM     13  C   UNL d   1       1.426   1.672   0.000  0.00  0.00     0.103 A 
ATOM     14  C   UNL d   1       1.426   2.496   0.000  0.00  0.00     0.023 A 
ATOM     15  C   UNL d   1       0.711   1.259   0.000  0.00  0.00     0.025 A 
ATOM     16  C   UNL d   1       2.147   2.916   0.000  0.00  0.00     0.012 A 
ATOM     17  C   UNL d   1       0.711   2.909   0.000  0.00  0.00     0.002 A 
ATOM     18  C   UNL d   1       0.000   2.496   0.000  0.00  0.00     0.000 A 
ATOM     19  C   UNL d   1       0.000   1.672   0.000  0.00  0.00     0.002 A 
ENDBRANCH   1   9
BRANCH   3  20
ATOM     20  C   UNL d   1       6.428   1.244   0.000  0.00  0.00     0.064 A 
ATOM     21  C   UNL d   1       6.425   0.418   0.000  0.00  0.00     0.018 A 
ATOM     22  C   UNL d   1       7.136   0.000   0.000  0.00  0.00     0.002 A 
ATOM     23  C   UNL d   1       7.851   0.411   0.000  0.00  0.00     0.000 A 
ATOM     24  C   UNL d   1       7.856   1.239   0.000  0.00  0.00     0.002 A 
ATOM     25  C   UNL d   1       7.143   1.652   0.000  0.00  0.00     0.018 A 
ENDBRANCH   3  20
TORSDOF 2
