REMARK  6 active torsions:
REMARK  status: ('A' for Active; 'I' for Inactive)
REMARK    1  A    between atoms: C_2  and  S_1 
REMARK    2  A    between atoms: N_10  and  S_1 
REMARK    3  A    between atoms: O_16  and  C_7 
REMARK    4  A    between atoms: C_13  and  N_10 
REMARK    5  A    between atoms: N_11  and  C_17 
REMARK    6  A    between atoms: C_17  and  C_13 
ROOT
ATOM      1  S   UNL d   1       3.712   2.853   0.000  0.00  0.00     0.286 S 
ATOM      2  O   UNL d   1       3.712   3.683   0.000  0.00  0.00    -0.198 OA
ATOM      3  O   UNL d   1       3.712   2.038   0.000  0.00  0.00    -0.198 OA
ENDROOT
BRANCH   1   4
ATOM      4  C   UNL d   1       2.888   2.853   0.000  0.00  0.00     0.117 A 
ATOM      5  C   UNL d   1       2.475   3.568   0.000  0.00  0.00     0.027 A 
ATOM      6  C   UNL d   1       1.650   3.568   0.000  0.00  0.00     0.081 A 
ATOM      7 CL   UNL d   1       1.233   4.287   0.000  0.00  0.00    -0.080 Cl
ATOM      8  C   UNL d   1       1.238   2.853   0.000  0.00  0.00     0.105 A 
ATOM      9  C   UNL d   1       1.650   2.148   0.000  0.00  0.00     0.037 A 
ATOM     10  C   UNL d   1       2.475   2.148   0.000  0.00  0.00     0.072 A 
ATOM     11 CL   UNL d   1       2.883   1.434   0.000  0.00  0.00    -0.082 Cl
BRANCH   8  12
ATOM     12  O   UNL d   1       0.412   2.853   0.000  0.00  0.00    -0.327 OA
ATOM     13  C   UNL d   1       0.000   3.568   0.000  0.00  0.00     0.181 C 
ENDBRANCH   8  12
ENDBRANCH   1   4
BRANCH   1  14
ATOM     14  N   UNL d   1       4.537   2.853   0.000  0.00  0.00    -0.155 NA
BRANCH  14  15
ATOM     15  C   UNL d   1       4.945   2.148   0.000  0.00  0.00     0.131 C 
BRANCH  15  16
ATOM     16  C   UNL d   1       5.770   2.148   0.000  0.00  0.00     0.102 C 
BRANCH  16  17
ATOM     17  N   UNL d   1       6.183   1.434   0.000  0.00  0.00    -0.298 N 
ATOM     18  C   UNL d   1       7.008   1.434   0.000  0.00  0.00     0.107 A 
ATOM     19  C   UNL d   1       7.420   0.719   0.000  0.00  0.00     0.142 A 
ATOM     20  O   UNL d   1       7.008   0.000   0.000  0.00  0.00    -0.300 OA
ATOM     21  C   UNL d   1       6.183   0.000   0.000  0.00  0.00     0.142 A 
ATOM     22  C   UNL d   1       5.770   0.719   0.000  0.00  0.00     0.107 A 
ENDBRANCH  16  17
ENDBRANCH  15  16
ENDBRANCH  14  15
ENDBRANCH   1  14
TORSDOF 6
