REMARK  4 active torsions:
REMARK  status: ('A' for Active; 'I' for Inactive)
REMARK    1  A    between atoms: N_2  and  S_1 
REMARK    2  A    between atoms: C_4  and  S_1 
REMARK    3  A    between atoms: C_15  and  C_3 
REMARK    4  A    between atoms: O_16  and  C_12 
ROOT
ATOM      1  S   UNL d   1       3.300   1.434   0.000  0.00  0.00     0.273 S 
ATOM      2  O   UNL d   1       3.300   2.259   0.000  0.00  0.00    -0.200 OA
ATOM      3  O   UNL d   1       3.300   0.609   0.000  0.00  0.00    -0.200 OA
ENDROOT
BRANCH   1   4
ATOM      4  N   UNL d   1       4.128   1.434   0.000  0.00  0.00    -0.213 N 
ATOM      5  C   UNL d   1       4.611   2.104   0.000  0.00  0.00     0.157 A 
ATOM      6  N   UNL d   1       5.399   1.846   0.000  0.00  0.00    -0.226 NA
ATOM      7  C   UNL d   1       5.399   1.021   0.000  0.00  0.00     0.101 A 
ATOM      8  C   UNL d   1       4.611   0.764   0.000  0.00  0.00     0.112 A 
ATOM      9  C   UNL d   1       6.065   0.535   0.000  0.00  0.00     0.022 C 
BRANCH   5  10
ATOM     10  C   UNL d   1       4.356   2.883   0.000  0.00  0.00     0.038 C 
ATOM     11  C   UNL d   1       4.908   3.494   0.000  0.00  0.00     0.003 C 
ENDBRANCH   5  10
ENDBRANCH   1   4
BRANCH   1  12
ATOM     12  C   UNL d   1       2.475   1.434   0.000  0.00  0.00     0.106 A 
ATOM     13  C   UNL d   1       2.062   0.719   0.000  0.00  0.00     0.037 A 
ATOM     14  C   UNL d   1       1.238   0.719   0.000  0.00  0.00     0.095 A 
ATOM     15  C   UNL d   1       0.825   1.434   0.000  0.00  0.00     0.022 A 
ATOM     16  C   UNL d   1       1.238   2.148   0.000  0.00  0.00     0.003 A 
ATOM     17  C   UNL d   1       0.000   1.434   0.000  0.00  0.00     0.002 C 
ATOM     18  C   UNL d   1       2.062   2.148   0.000  0.00  0.00     0.012 A 
ATOM     19  C   UNL d   1       2.475   2.853   0.000  0.00  0.00     0.001 C 
BRANCH  14  20
ATOM     20  O   UNL d   1       0.825   0.000   0.000  0.00  0.00    -0.328 OA
ATOM     21  C   UNL d   1       0.000   0.000   0.000  0.00  0.00     0.181 C 
ENDBRANCH  14  20
ENDBRANCH   1  12
TORSDOF 4
