REMARK  5 active torsions:
REMARK  status: ('A' for Active; 'I' for Inactive)
REMARK    1  A    between atoms: C_2  and  S_1 
REMARK    2  A    between atoms: N_4  and  S_1 
REMARK    3  A    between atoms: C_10  and  N_4 
REMARK    4  A    between atoms: C_14  and  C_5 
REMARK    5  A    between atoms: C_13  and  C_10 
ROOT
ATOM      1  S   UNL d   1       3.300   2.148   0.000  0.00  0.00     0.285 S 
ATOM      2  O   UNL d   1       3.300   2.963   0.000  0.00  0.00    -0.198 OA
ATOM      3  O   UNL d   1       3.300   1.319   0.000  0.00  0.00    -0.198 OA
ENDROOT
BRANCH   1   4
ATOM      4  C   UNL d   1       2.475   2.148   0.000  0.00  0.00     0.105 A 
ATOM      5  C   UNL d   1       2.062   1.434   0.000  0.00  0.00     0.013 A 
ATOM      6  C   UNL d   1       1.238   1.434   0.000  0.00  0.00     0.001 A 
ATOM      7  C   UNL d   1       0.825   2.148   0.000  0.00  0.00     0.000 A 
ATOM      8  C   UNL d   1       1.238   2.853   0.000  0.00  0.00     0.001 A 
ATOM      9  C   UNL d   1       2.062   2.853   0.000  0.00  0.00     0.012 A 
ATOM     10  C   UNL d   1       2.475   3.567   0.000  0.00  0.00     0.001 C 
BRANCH   6  11
ATOM     11  C   UNL d   1       0.825   0.715   0.000  0.00  0.00     0.000 C 
ATOM     12  C   UNL d   1       0.000   0.715   0.000  0.00  0.00     0.000 C 
ATOM     13  C   UNL d   1       1.238   0.000   0.000  0.00  0.00     0.000 C 
ENDBRANCH   6  11
ENDBRANCH   1   4
BRANCH   1  14
ATOM     14  N   UNL d   1       4.125   2.148   0.000  0.00  0.00    -0.155 NA
BRANCH  14  15
ATOM     15  C   UNL d   1       4.537   1.434   0.000  0.00  0.00     0.131 C 
BRANCH  15  16
ATOM     16  C   UNL d   1       5.362   1.434   0.000  0.00  0.00     0.101 A 
ATOM     17  N   UNL d   1       5.775   2.148   0.000  0.00  0.00    -0.242 NA
ATOM     18  C   UNL d   1       6.600   2.148   0.000  0.00  0.00     0.099 A 
ATOM     19  C   UNL d   1       7.012   1.434   0.000  0.00  0.00     0.021 A 
ATOM     20  C   UNL d   1       6.600   0.715   0.000  0.00  0.00     0.003 A 
ATOM     21  C   UNL d   1       5.775   0.715   0.000  0.00  0.00     0.021 A 
ENDBRANCH  15  16
ENDBRANCH  14  15
ENDBRANCH   1  14
TORSDOF 5
