REMARK  5 active torsions:
REMARK  status: ('A' for Active; 'I' for Inactive)
REMARK    1  A    between atoms: C_2  and  S_1 
REMARK    2  A    between atoms: N_5  and  S_1 
REMARK    3  A    between atoms: C_12  and  N_5 
REMARK    4  A    between atoms: O_16  and  C_8 
REMARK    5  A    between atoms: C_13  and  C_12 
ROOT
ATOM      1  S   UNL d   1       3.712   1.434   0.000  0.00  0.00     0.286 S 
ATOM      2  O   UNL d   1       3.712   2.259   0.000  0.00  0.00    -0.198 OA
ATOM      3  O   UNL d   1       3.712   0.609   0.000  0.00  0.00    -0.198 OA
ENDROOT
BRANCH   1   4
ATOM      4  C   UNL d   1       2.887   1.434   0.000  0.00  0.00     0.117 A 
ATOM      5  C   UNL d   1       2.475   0.719   0.000  0.00  0.00     0.027 A 
ATOM      6  C   UNL d   1       1.650   0.719   0.000  0.00  0.00     0.081 A 
ATOM      7 CL   UNL d   1       1.238   0.000   0.000  0.00  0.00    -0.080 Cl
ATOM      8  C   UNL d   1       1.238   1.434   0.000  0.00  0.00     0.105 A 
ATOM      9  C   UNL d   1       1.650   2.148   0.000  0.00  0.00     0.037 A 
ATOM     10  C   UNL d   1       2.475   2.148   0.000  0.00  0.00     0.072 A 
ATOM     11 CL   UNL d   1       2.887   2.853   0.000  0.00  0.00    -0.082 Cl
BRANCH   8  12
ATOM     12  O   UNL d   1       0.412   1.434   0.000  0.00  0.00    -0.327 OA
ATOM     13  C   UNL d   1       0.000   2.148   0.000  0.00  0.00     0.181 C 
ENDBRANCH   8  12
ENDBRANCH   1   4
BRANCH   1  14
ATOM     14  N   UNL d   1       4.537   1.434   0.000  0.00  0.00    -0.155 NA
BRANCH  14  15
ATOM     15  C   UNL d   1       4.950   0.719   0.000  0.00  0.00     0.131 C 
BRANCH  15  16
ATOM     16  C   UNL d   1       5.775   0.719   0.000  0.00  0.00     0.101 A 
ATOM     17  N   UNL d   1       6.187   1.434   0.000  0.00  0.00    -0.242 NA
ATOM     18  C   UNL d   1       7.012   1.434   0.000  0.00  0.00     0.099 A 
ATOM     19  C   UNL d   1       7.425   0.719   0.000  0.00  0.00     0.021 A 
ATOM     20  C   UNL d   1       7.012   0.000   0.000  0.00  0.00     0.003 A 
ATOM     21  C   UNL d   1       6.187   0.000   0.000  0.00  0.00     0.021 A 
ENDBRANCH  15  16
ENDBRANCH  14  15
ENDBRANCH   1  14
TORSDOF 5
