REMARK  4 active torsions:
REMARK  status: ('A' for Active; 'I' for Inactive)
REMARK    1  A    between atoms: C_2  and  S_1 
REMARK    2  A    between atoms: N_4  and  S_1 
REMARK    3  A    between atoms: C_11  and  N_4 
REMARK    4  A    between atoms: C_9  and  C_11 
ROOT
ATOM      1  S   UNL d   1       3.300   1.434   0.000  0.00  0.00     0.285 S 
ATOM      2  O   UNL d   1       3.300   2.259   0.000  0.00  0.00    -0.198 OA
ATOM      3  O   UNL d   1       3.300   0.609   0.000  0.00  0.00    -0.198 OA
ENDROOT
BRANCH   1   4
ATOM      4  C   UNL d   1       2.475   1.434   0.000  0.00  0.00     0.105 A 
ATOM      5  C   UNL d   1       2.062   0.715   0.000  0.00  0.00     0.012 A 
ATOM      6  C   UNL d   1       1.238   0.715   0.000  0.00  0.00     0.001 A 
ATOM      7  C   UNL d   1       2.475   0.000   0.000  0.00  0.00     0.001 C 
ATOM      8  C   UNL d   1       0.825   0.000   0.000  0.00  0.00     0.000 C 
ATOM      9  C   UNL d   1       0.825   1.434   0.000  0.00  0.00     0.000 A 
ATOM     10  C   UNL d   1       1.238   2.148   0.000  0.00  0.00     0.001 A 
ATOM     11  C   UNL d   1       0.000   1.434   0.000  0.00  0.00     0.000 C 
ATOM     12  C   UNL d   1       2.062   2.148   0.000  0.00  0.00     0.013 A 
ENDBRANCH   1   4
BRANCH   1  13
ATOM     13  N   UNL d   1       4.125   1.434   0.000  0.00  0.00    -0.155 NA
BRANCH  13  14
ATOM     14  C   UNL d   1       4.537   0.715   0.000  0.00  0.00     0.137 C 
BRANCH  14  15
ATOM     15  C   UNL d   1       5.362   0.715   0.000  0.00  0.00     0.120 A 
ATOM     16  O   UNL d   1       5.844   1.382   0.000  0.00  0.00    -0.304 OA
ATOM     17  C   UNL d   1       6.625   1.127   0.000  0.00  0.00     0.123 A 
ATOM     18  C   UNL d   1       6.625   0.302   0.000  0.00  0.00     0.029 A 
ATOM     19  C   UNL d   1       5.844   0.049   0.000  0.00  0.00     0.028 A 
ENDBRANCH  14  15
ENDBRANCH  13  14
ENDBRANCH   1  13
TORSDOF 4
