REMARK  6 active torsions:
REMARK  status: ('A' for Active; 'I' for Inactive)
REMARK       I    between atoms: C_6  and  N_1 
REMARK    1  A    between atoms: C_7  and  C_3 
REMARK    2  A    between atoms: C_14  and  C_4 
REMARK    3  A    between atoms: C_20  and  C_6 
REMARK    4  A    between atoms: C_11  and  C_22 
REMARK    5  A    between atoms: C_21  and  C_20 
REMARK    6  A    between atoms: C_22  and  C_21 
ROOT
ATOM      1  N   UNL d   1       2.896   3.748   0.000  0.00  0.00    -0.195 N 
ATOM      2  N   UNL d   1       2.093   3.999   0.000  0.00  0.00    -0.163 NA
ATOM      3  C   UNL d   1       3.364   4.413   0.000  0.00  0.00     0.088 A 
ATOM      4  C   UNL d   1       2.093   4.827   0.000  0.00  0.00     0.103 A 
ATOM      5  C   UNL d   1       2.896   5.071   0.000  0.00  0.00     0.040 A 
ATOM      6  C   UNL d   1       3.142   2.921   0.000  0.00  0.00     0.280 C 
ATOM      7  O   UNL d   1       2.564   2.317   0.000  0.00  0.00    -0.265 OA
ENDROOT
BRANCH   3   8
ATOM      8  C   UNL d   1       4.191   4.413   0.000  0.00  0.00     0.019 A 
ATOM      9  C   UNL d   1       4.605   5.100   0.000  0.00  0.00     0.022 A 
ATOM     10  C   UNL d   1       5.433   5.100   0.000  0.00  0.00     0.099 A 
ATOM     11  N   UNL d   1       5.817   5.792   0.000  0.00  0.00    -0.241 NA
ATOM     12  C   UNL d   1       5.846   4.383   0.000  0.00  0.00     0.099 A 
ATOM     13  C   UNL d   1       6.674   5.792   0.000  0.00  0.00     0.120 A 
ATOM     14  C   UNL d   1       7.088   5.100   0.000  0.00  0.00     0.120 A 
ATOM     15  N   UNL d   1       6.644   4.383   0.000  0.00  0.00    -0.241 NA
ATOM     16  C   UNL d   1       5.403   3.694   0.000  0.00  0.00     0.021 A 
ATOM     17  C   UNL d   1       4.605   3.694   0.000  0.00  0.00     0.003 A 
ENDBRANCH   3   8
BRANCH   6  18
ATOM     18  C   UNL d   1       3.940   2.758   0.000  0.00  0.00     0.063 C 
BRANCH  18  19
ATOM     19  C   UNL d   1       4.191   1.963   0.000  0.00  0.00     0.011 C 
BRANCH  19  20
ATOM     20  C   UNL d   1       3.613   1.379   0.000  0.00  0.00     0.070 C 
BRANCH  20  21
ATOM     21  C   UNL d   1       3.805   0.581   0.000  0.00  0.00     0.211 C 
ATOM     22  O   UNL d   1       4.605   0.359   0.000  0.00  0.00    -0.644 OA
ATOM     23  O   UNL d   1       3.224   0.000   0.000  0.00  0.00    -0.644 OA
ENDBRANCH  20  21
ENDBRANCH  19  20
ENDBRANCH  18  19
ENDBRANCH   6  18
BRANCH   4  24
ATOM     24  C   UNL d   1       1.406   5.322   0.000  0.00  0.00     0.019 A 
ATOM     25  C   UNL d   1       1.488   6.120   0.000  0.00  0.00     0.002 A 
ATOM     26  C   UNL d   1       0.827   6.615   0.000  0.00  0.00     0.000 A 
ATOM     27  C   UNL d   1       0.081   6.282   0.000  0.00  0.00     0.000 A 
ATOM     28  C   UNL d   1       0.000   5.460   0.000  0.00  0.00     0.000 A 
ATOM     29  C   UNL d   1       0.660   4.965   0.000  0.00  0.00     0.002 A 
ENDBRANCH   4  24
TORSDOF 6
