REMARK  1 active torsions:
REMARK  status: ('A' for Active; 'I' for Inactive)
REMARK    1  A    between atoms: C_6  and  C_2 
ROOT
ATOM      1  O   UNL d   1       2.028  -0.242   0.000  0.00  0.00    -0.260 OA
ATOM      2  C   UNL d   1       1.769   0.547   0.000  0.00  0.00     0.207 A 
ATOM      3  N   UNL d   1       2.441   1.026   0.000  0.00  0.00    -0.120 NA
ATOM      4  C   UNL d   1       2.854  -0.242   0.000  0.00  0.00     0.262 A 
ATOM      5  N   UNL d   1       3.109   0.547   0.000  0.00  0.00    -0.109 NA
ATOM      6  S   UNL d   1       3.334  -0.914   0.000  0.00  0.00    -0.029 SA
ENDROOT
BRANCH   2   7
ATOM      7  C   UNL d   1       0.989   0.797   0.000  0.00  0.00     0.062 A 
ATOM      8  C   UNL d   1       0.376   0.246   0.000  0.00  0.00     0.102 A 
ATOM      9  N   UNL d   1      -0.413   0.509   0.000  0.00  0.00    -0.242 NA
ATOM     10  C   UNL d   1      -0.584   1.314   0.000  0.00  0.00     0.099 A 
ATOM     11  C   UNL d   1       0.029   1.861   0.000  0.00  0.00     0.021 A 
ATOM     12  C   UNL d   1       0.818   1.611   0.000  0.00  0.00     0.007 A 
ENDBRANCH   2   7
TORSDOF 1
