REMARK  6 active torsions:
REMARK  status: ('A' for Active; 'I' for Inactive)
REMARK    1  A    between atoms: C_9  and  C_2 
REMARK    2  A    between atoms: N_12  and  C_6 
REMARK    3  A    between atoms: N_11  and  C_20 
REMARK    4  A    between atoms: C_19  and  N_12 
REMARK    5  A    between atoms: O_21  and  C_16 
REMARK    6  A    between atoms: C_20  and  C_19 
ROOT
ATOM      1  C   UNL d   1       3.190  -2.562   0.000  0.00  0.00     0.060 A 
ATOM      2  C   UNL d   1       2.380  -2.562   0.000  0.00  0.00     0.011 A 
ATOM      3  C   UNL d   1       2.115  -3.367   0.000  0.00  0.00     0.037 A 
ATOM      4  C   UNL d   1       3.456  -3.367   0.000  0.00  0.00     0.116 A 
ATOM      5  S   UNL d   1       2.780  -3.861   0.000  0.00  0.00    -0.067 SA
ATOM      6  C   UNL d   1       3.744  -1.961   0.000  0.00  0.00     0.166 A 
ATOM      7  N   UNL d   1       4.266  -3.549   0.000  0.00  0.00    -0.217 NA
ATOM      8  N   UNL d   1       4.532  -2.142   0.000  0.00  0.00    -0.205 NA
ATOM      9  C   UNL d   1       4.806  -2.953   0.000  0.00  0.00     0.201 A 
ENDROOT
BRANCH   6  10
ATOM     10  N   UNL d   1       3.512  -1.164   0.000  0.00  0.00    -0.224 NA
BRANCH  10  11
ATOM     11  C   UNL d   1       4.085  -0.573   0.000  0.00  0.00     0.120 C 
BRANCH  11  12
ATOM     12  C   UNL d   1       3.861   0.233   0.000  0.00  0.00     0.101 C 
BRANCH  12  13
ATOM     13  N   UNL d   1       4.448   0.824   0.000  0.00  0.00    -0.298 N 
ATOM     14  C   UNL d   1       5.212   0.610   0.000  0.00  0.00     0.107 A 
ATOM     15  C   UNL d   1       5.789   1.211   0.000  0.00  0.00     0.142 A 
ATOM     16  O   UNL d   1       5.566   1.979   0.000  0.00  0.00    -0.300 OA
ATOM     17  C   UNL d   1       4.806   2.189   0.000  0.00  0.00     0.142 A 
ATOM     18  C   UNL d   1       4.220   1.621   0.000  0.00  0.00     0.107 A 
ENDBRANCH  12  13
ENDBRANCH  11  12
ENDBRANCH  10  11
ENDBRANCH   6  10
BRANCH   2  19
ATOM     19  C   UNL d   1       1.942  -1.891   0.000  0.00  0.00     0.001 A 
ATOM     20  C   UNL d   1       2.296  -1.150   0.000  0.00  0.00     0.002 A 
ATOM     21  C   UNL d   1       1.849  -0.461   0.000  0.00  0.00     0.024 A 
ATOM     22  C   UNL d   1       1.025  -0.494   0.000  0.00  0.00     0.094 A 
ATOM     23  C   UNL d   1       0.671  -1.262   0.000  0.00  0.00     0.024 A 
ATOM     24  C   UNL d   1       1.118  -1.947   0.000  0.00  0.00     0.002 A 
BRANCH  22  25
ATOM     25  O   UNL d   1       0.592   0.051   0.000  0.00  0.00    -0.328 OA
ATOM     26  C   UNL d   1      -0.247  -0.047   0.000  0.00  0.00     0.181 C 
ENDBRANCH  22  25
ENDBRANCH   2  19
TORSDOF 6
