REMARK  9 active torsions:
REMARK  status: ('A' for Active; 'I' for Inactive)
REMARK    1  A    between atoms: S_10  and  C_3 
REMARK    2  A    between atoms: C_17  and  N_5 
REMARK    3  A    between atoms: C_12  and  S_10 
REMARK    4  A    between atoms: C_11  and  C_12 
REMARK       I    between atoms: N_13  and  C_11 
REMARK    5  A    between atoms: C_26  and  C_12 
REMARK    6  A    between atoms: C_23  and  N_13 
REMARK    7  A    between atoms: C_15  and  C_23 
REMARK    8  A    between atoms: C_22  and  C_17 
REMARK    9  A    between atoms: C_30  and  C_26 
ROOT
ATOM      1  C   UNL d   1       0.404  -0.150   0.000  0.00  0.00     0.081 A 
ATOM      2  C   UNL d   1       0.654  -0.938   0.000  0.00  0.00     0.117 A 
ATOM      3  C   UNL d   1       2.017  -0.500   0.000  0.00  0.00     0.182 A 
ATOM      4  N   UNL d   1       1.454  -1.113   0.000  0.00  0.00    -0.215 NA
ATOM      5  N   UNL d   1       1.762   0.287   0.000  0.00  0.00    -0.253 N 
ATOM      6  C   UNL d   1       0.954   0.463   0.000  0.00  0.00     0.268 A 
ATOM      7  S   UNL d   1      -0.013  -1.417   0.000  0.00  0.00    -0.068 SA
ATOM      8  C   UNL d   1      -0.421  -0.142   0.000  0.00  0.00     0.013 A 
ATOM      9  C   UNL d   1      -0.675  -0.929   0.000  0.00  0.00     0.031 A 
ATOM     10  O   UNL d   1       0.704   1.250   0.000  0.00  0.00    -0.267 OA
ATOM     11  C   UNL d   1      -1.087   0.338   0.000  0.00  0.00     0.001 A 
ATOM     12  C   UNL d   1      -1.500  -0.929   0.000  0.00  0.00     0.006 A 
ATOM     13  C   UNL d   1      -1.758  -0.142   0.000  0.00  0.00     0.001 A 
ENDROOT
BRANCH   3  14
ATOM     14  S   UNL d   1       2.817  -0.679   0.000  0.00  0.00    -0.045 SA
BRANCH  14  15
ATOM     15  C   UNL d   1       3.067  -1.462   0.000  0.00  0.00     0.093 C 
BRANCH  15  16
ATOM     16  C   UNL d   1       3.879  -1.642   0.000  0.00  0.00     0.285 C 
ATOM     17  N   UNL d   1       4.129  -2.425   0.000  0.00  0.00    -0.204 NA
ATOM     18  O   UNL d   1       4.429  -1.029   0.000  0.00  0.00    -0.265 OA
BRANCH  17  19
ATOM     19  C   UNL d   1       4.929  -2.604   0.000  0.00  0.00     0.127 C 
BRANCH  19  20
ATOM     20  C   UNL d   1       5.179  -3.388   0.000  0.00  0.00     0.119 A 
ATOM     21  O   UNL d   1       4.700  -4.050   0.000  0.00  0.00    -0.304 OA
ATOM     22  C   UNL d   1       5.179  -4.717   0.000  0.00  0.00     0.123 A 
ATOM     23  C   UNL d   1       5.967  -4.467   0.000  0.00  0.00     0.029 A 
ATOM     24  C   UNL d   1       5.975  -3.642   0.000  0.00  0.00     0.028 A 
ENDBRANCH  19  20
ENDBRANCH  17  19
ENDBRANCH  15  16
BRANCH  15  25
ATOM     25  C   UNL d   1       2.517  -2.075   0.000  0.00  0.00     0.057 C 
BRANCH  25  26
ATOM     26  C   UNL d   1       1.712  -1.892   0.000  0.00  0.00     0.235 C 
ATOM     27  O   UNL d   1       1.154  -2.504   0.000  0.00  0.00    -0.283 OA
ENDBRANCH  25  26
ENDBRANCH  15  25
ENDBRANCH  14  15
ENDBRANCH   3  14
BRANCH   5  28
ATOM     28  C   UNL d   1       2.317   0.896   0.000  0.00  0.00     0.085 C 
BRANCH  28  29
ATOM     29  C   UNL d   1       3.125   0.721   0.000  0.00  0.00     0.019 C 
ATOM     30  C   UNL d   1       3.679   1.333   0.000  0.00  0.00     0.002 C 
ENDBRANCH  28  29
ENDBRANCH   5  28
TORSDOF 9
