REMARK  6 active torsions:
REMARK  status: ('A' for Active; 'I' for Inactive)
REMARK    1  A    between atoms: C_7  and  C_1 
REMARK    2  A    between atoms: C_19  and  N_2 
REMARK    3  A    between atoms: C_18  and  N_3 
REMARK    4  A    between atoms: C_13  and  C_9 
REMARK    5  A    between atoms: O_20  and  C_13 
REMARK    6  A    between atoms: C_23  and  O_20 
ROOT
ATOM      1  C   UNL d   1       1.527  -0.329   0.000  0.00  0.00     0.013 A 
ATOM      2  C   UNL d   1       2.247  -0.741   0.000  0.00  0.00     0.030 A 
ATOM      3  C   UNL d   1       2.962  -0.337   0.000  0.00  0.00     0.163 A 
ATOM      4  O   UNL d   1       2.971   0.495   0.000  0.00  0.00    -0.302 OA
ATOM      5  C   UNL d   1       1.527   0.499   0.000  0.00  0.00     0.023 A 
ATOM      6  C   UNL d   1       2.251   0.911   0.000  0.00  0.00     0.100 A 
ATOM      7  C   UNL d   1       0.816   0.919   0.000  0.00  0.00     0.002 A 
ATOM      8  C   UNL d   1       2.251   1.743   0.000  0.00  0.00     0.025 A 
ATOM      9  C   UNL d   1       0.816   1.743   0.000  0.00  0.00     0.000 A 
ATOM     10  C   UNL d   1       1.540   2.159   0.000  0.00  0.00     0.002 A 
ENDROOT
BRANCH   1  11
ATOM     11  C   UNL d   1       0.811  -0.737   0.000  0.00  0.00     0.113 A 
ATOM     12  C   UNL d   1       0.811  -1.565   0.000  0.00  0.00     0.271 A 
ATOM     13  N   UNL d   1       0.100  -1.976   0.000  0.00  0.00    -0.250 N 
ATOM     14  O   UNL d   1       1.527  -1.976   0.000  0.00  0.00    -0.266 OA
ATOM     15  C   UNL d   1      -0.612  -1.565   0.000  0.00  0.00     0.196 A 
ATOM     16  N   UNL d   1      -0.612  -0.737   0.000  0.00  0.00    -0.250 N 
ATOM     17  S   UNL d   1      -1.331  -1.976   0.000  0.00  0.00    -0.039 SA
ATOM     18  C   UNL d   1       0.100  -0.316   0.000  0.00  0.00     0.271 A 
ATOM     19  O   UNL d   1       0.100   0.508   0.000  0.00  0.00    -0.266 OA
BRANCH  13  20
ATOM     20  C   UNL d   1       0.100  -2.800   0.000  0.00  0.00     0.085 C 
ATOM     21  C   UNL d   1       0.811  -3.212   0.000  0.00  0.00     0.021 C 
ENDBRANCH  13  20
BRANCH  16  22
ATOM     22  C   UNL d   1      -1.331  -0.329   0.000  0.00  0.00     0.085 C 
ATOM     23  C   UNL d   1      -2.043  -0.741   0.000  0.00  0.00     0.021 C 
ENDBRANCH  16  22
ENDBRANCH   1  11
BRANCH   3  24
ATOM     24  C   UNL d   1       3.670  -0.753   0.000  0.00  0.00     0.323 C 
ATOM     25  O   UNL d   1       3.662  -1.577   0.000  0.00  0.00    -0.257 OA
BRANCH  24  26
ATOM     26  O   UNL d   1       4.386  -0.349   0.000  0.00  0.00    -0.270 OA
BRANCH  26  27
ATOM     27  C   UNL d   1       4.394   0.474   0.000  0.00  0.00     0.126 C 
ATOM     28  C   UNL d   1       5.109   0.882   0.000  0.00  0.00     0.029 C 
ENDBRANCH  26  27
ENDBRANCH  24  26
ENDBRANCH   3  24
TORSDOF 6
