REMARK  6 active torsions:
REMARK  status: ('A' for Active; 'I' for Inactive)
REMARK    1  A    between atoms: C_10  and  N_6 
REMARK    2  A    between atoms: S_14  and  C_9 
REMARK    3  A    between atoms: C_17  and  C_10 
REMARK    4  A    between atoms: N_13  and  C_25 
REMARK    5  A    between atoms: C_20  and  S_14 
REMARK    6  A    between atoms: C_25  and  C_20 
ROOT
ATOM      1  C   UNL d   1       0.985  -1.010   0.000  0.00  0.00     0.174 A 
ATOM      2  C   UNL d   1       0.985  -0.179   0.000  0.00  0.00     0.158 A 
ATOM      3  N   UNL d   1       1.770  -1.263   0.000  0.00  0.00    -0.203 NA
ATOM      4  N   UNL d   1       0.266  -1.421   0.000  0.00  0.00    -0.240 N 
ATOM      5  N   UNL d   1      -0.445  -0.179   0.000  0.00  0.00    -0.223 N 
ATOM      6  N   UNL d   1       1.770   0.075   0.000  0.00  0.00    -0.279 N 
ATOM      7  C   UNL d   1      -0.445  -1.010   0.000  0.00  0.00     0.343 A 
ATOM      8  C   UNL d   1       0.266   0.233   0.000  0.00  0.00     0.287 A 
ATOM      9  C   UNL d   1       2.247  -0.598   0.000  0.00  0.00     0.181 A 
ATOM     10  O   UNL d   1      -1.167  -1.425   0.000  0.00  0.00    -0.245 OA
ATOM     11  O   UNL d   1       0.266   1.059   0.000  0.00  0.00    -0.265 OA
ATOM     12  C   UNL d   1       0.266  -2.247   0.000  0.00  0.00     0.105 C 
ATOM     13  C   UNL d   1      -1.159   0.233   0.000  0.00  0.00     0.107 C 
ENDROOT
BRANCH   9  14
ATOM     14  S   UNL d   1       3.082  -0.602   0.000  0.00  0.00    -0.048 SA
BRANCH  14  15
ATOM     15  C   UNL d   1       3.490  -1.313   0.000  0.00  0.00     0.057 C 
BRANCH  15  16
ATOM     16  C   UNL d   1       3.070  -2.023   0.000  0.00  0.00     0.087 C 
BRANCH  16  17
ATOM     17  N   UNL d   1       3.481  -2.733   0.000  0.00  0.00    -0.302 N 
ATOM     18  C   UNL d   1       3.070  -3.444   0.000  0.00  0.00     0.080 A 
ATOM     19  C   UNL d   1       3.481  -4.154   0.000  0.00  0.00     0.019 A 
ATOM     20  C   UNL d   1       4.300  -4.154   0.000  0.00  0.00     0.003 A 
ATOM     21  C   UNL d   1       4.711  -3.444   0.000  0.00  0.00     0.019 A 
ATOM     22  C   UNL d   1       4.304  -2.729   0.000  0.00  0.00     0.080 A 
ENDBRANCH  16  17
ENDBRANCH  15  16
ENDBRANCH  14  15
ENDBRANCH   9  14
BRANCH   6  23
ATOM     23  C   UNL d   1       2.023   0.860   0.000  0.00  0.00     0.082 C 
BRANCH  23  24
ATOM     24  C   UNL d   1       2.833   1.043   0.000  0.00  0.00     0.018 A 
ATOM     25  C   UNL d   1       3.381   0.424   0.000  0.00  0.00     0.002 A 
ATOM     26  C   UNL d   1       4.187   0.594   0.000  0.00  0.00     0.011 A 
ATOM     27  C   UNL d   1       4.441   1.383   0.000  0.00  0.00     0.058 A 
ATOM     28  C   UNL d   1       3.880   2.002   0.000  0.00  0.00     0.011 A 
ATOM     29 CL   UNL d   1       5.247   1.558   0.000  0.00  0.00    -0.082 Cl
ATOM     30  C   UNL d   1       3.078   1.819   0.000  0.00  0.00     0.002 A 
ENDBRANCH  23  24
ENDBRANCH   6  23
TORSDOF 6
