REMARK  4 active torsions:
REMARK  status: ('A' for Active; 'I' for Inactive)
REMARK    1  A    between atoms: N_2  and  S_1 
REMARK    2  A    between atoms: C_4  and  S_1 
REMARK    3  A    between atoms: C_5  and  N_3 
REMARK    4  A    between atoms: C_12  and  C_13 
ROOT
ATOM      1  N   UNL d   1       0.067   1.471   0.000  0.00  0.00    -0.226 N 
ATOM      2  N   UNL d   1       1.717   1.471   0.000  0.00  0.00    -0.299 N 
ATOM      3  C   UNL d   1       0.479   2.183   0.000  0.00  0.00     0.111 A 
ATOM      4  C   UNL d   1       0.479   0.750   0.000  0.00  0.00     0.111 A 
ATOM      5  C   UNL d   1       1.304   2.183   0.000  0.00  0.00     0.100 A 
ATOM      6  C   UNL d   1       1.304   0.750   0.000  0.00  0.00     0.100 A 
ENDROOT
BRANCH   1   7
ATOM      7  S   UNL d   1      -0.762   1.471   0.000  0.00  0.00     0.271 S 
ATOM      8  O   UNL d   1      -0.762   0.646   0.000  0.00  0.00    -0.200 OA
ATOM      9  O   UNL d   1      -0.762   2.296   0.000  0.00  0.00    -0.200 OA
BRANCH   7  10
ATOM     10  C   UNL d   1      -1.583   1.471   0.000  0.00  0.00     0.104 A 
ATOM     11  C   UNL d   1      -1.996   2.183   0.000  0.00  0.00     0.013 A 
ATOM     12  C   UNL d   1      -2.821   2.183   0.000  0.00  0.00    -0.004 A 
ATOM     13  C   UNL d   1      -3.233   1.471   0.000  0.00  0.00    -0.023 A 
ATOM     14  C   UNL d   1      -2.821   0.762   0.000  0.00  0.00    -0.004 A 
ATOM     15  C   UNL d   1      -1.996   0.762   0.000  0.00  0.00     0.013 A 
BRANCH  13  16
ATOM     16  C   UNL d   1      -4.062   1.471   0.000  0.00  0.00     0.019 C 
ATOM     17  C   UNL d   1      -4.062   2.296   0.000  0.00  0.00     0.004 C 
ATOM     18  C   UNL d   1      -4.062   0.646   0.000  0.00  0.00     0.004 C 
ATOM     19  C   UNL d   1      -4.883   1.471   0.000  0.00  0.00     0.004 C 
ENDBRANCH  13  16
ENDBRANCH   7  10
ENDBRANCH   1   7
BRANCH   2  20
ATOM     20  C   UNL d   1       2.550   1.471   0.000  0.00  0.00     0.092 A 
ATOM     21  C   UNL d   1       2.967   0.750   0.000  0.00  0.00     0.156 A 
ATOM     22  F   UNL d   1       2.579   0.083   0.000  0.00  0.00    -0.203 F 
ATOM     23  C   UNL d   1       3.788   0.750   0.000  0.00  0.00     0.031 A 
ATOM     24  C   UNL d   1       4.204   1.471   0.000  0.00  0.00     0.002 A 
ATOM     25  C   UNL d   1       3.788   2.183   0.000  0.00  0.00     0.002 A 
ATOM     26  C   UNL d   1       2.967   2.183   0.000  0.00  0.00     0.020 A 
ENDBRANCH   2  20
TORSDOF 4
