REMARK  4 active torsions:
REMARK  status: ('A' for Active; 'I' for Inactive)
REMARK    1  A    between atoms: C_6  and  C_1 
REMARK    2  A    between atoms: C_7  and  N_3 
REMARK    3  A    between atoms: C_9  and  C_6 
REMARK    4  A    between atoms: N_8  and  C_9 
ROOT
ATOM      1  C   UNL d   1      -1.326  -0.065   0.000  0.00  0.00     0.058 A 
ATOM      2  C   UNL d   1      -0.989  -0.819   0.000  0.00  0.00     0.067 A 
ATOM      3  N   UNL d   1      -1.592  -1.386   0.000  0.00  0.00    -0.306 N 
ATOM      4  C   UNL d   1      -2.300  -0.964   0.000  0.00  0.00     0.064 A 
ATOM      5  C   UNL d   1      -2.124  -0.181   0.000  0.00  0.00     0.022 A 
ATOM      6  C   UNL d   1      -0.176  -0.984   0.000  0.00  0.00     0.019 C 
ATOM      7  C   UNL d   1      -3.068  -1.301   0.000  0.00  0.00     0.019 C 
ENDROOT
BRANCH   1   8
ATOM      8  C   UNL d   1      -0.919   0.663   0.000  0.00  0.00     0.214 C 
ATOM      9  O   UNL d   1      -0.100   0.688   0.000  0.00  0.00    -0.285 OA
BRANCH   8  10
ATOM     10  C   UNL d   1      -1.351   1.366   0.000  0.00  0.00     0.123 C 
BRANCH  10  11
ATOM     11  N   UNL d   1      -0.964   2.089   0.000  0.00  0.00    -0.300 N 
ATOM     12  C   UNL d   1      -1.401   2.767   0.000  0.00  0.00     0.080 A 
ATOM     13  C   UNL d   1      -1.019   3.510   0.000  0.00  0.00     0.019 A 
ATOM     14  C   UNL d   1      -0.196   3.510   0.000  0.00  0.00     0.003 A 
ATOM     15  C   UNL d   1       0.241   2.832   0.000  0.00  0.00     0.019 A 
ATOM     16  C   UNL d   1      -0.176   2.109   0.000  0.00  0.00     0.080 A 
ENDBRANCH  10  11
ENDBRANCH   8  10
ENDBRANCH   1   8
BRANCH   3  17
ATOM     17  C   UNL d   1      -1.592  -2.189   0.000  0.00  0.00     0.064 A 
ATOM     18  C   UNL d   1      -0.869  -2.596   0.000  0.00  0.00     0.020 A 
ATOM     19  C   UNL d   1      -0.869  -3.435   0.000  0.00  0.00     0.031 A 
ATOM     20  C   UNL d   1      -1.567  -3.832   0.000  0.00  0.00     0.140 A 
ATOM     21  C   UNL d   1      -2.270  -3.435   0.000  0.00  0.00     0.031 A 
ATOM     22  F   UNL d   1      -1.567  -4.645   0.000  0.00  0.00    -0.204 F 
ATOM     23  C   UNL d   1      -2.300  -2.596   0.000  0.00  0.00     0.020 A 
ENDBRANCH   3  17
TORSDOF 4
