REMARK  9 active torsions:
REMARK  status: ('A' for Active; 'I' for Inactive)
REMARK    1  A    between atoms: C_7  and  C_1 
REMARK    2  A    between atoms: N_6  and  C_2 
REMARK    3  A    between atoms: C_9  and  C_3 
REMARK       I    between atoms: C_8  and  N_6 
REMARK    4  A    between atoms: O_22  and  C_7 
REMARK    5  A    between atoms: C_11  and  C_8 
REMARK    6  A    between atoms: N_10  and  C_15 
REMARK    7  A    between atoms: C_15  and  C_11 
REMARK    8  A    between atoms: C_21  and  C_12 
REMARK    9  A    between atoms: C_29  and  O_22 
ROOT
ATOM      1  C   UNL d   1      -2.191  -0.144   0.000  0.00  0.00     0.088 A 
ATOM      2  C   UNL d   1      -1.760  -0.870   0.000  0.00  0.00     0.119 A 
ATOM      3  C   UNL d   1      -2.978  -0.336   0.000  0.00  0.00     0.014 A 
ATOM      4  S   UNL d   1      -2.252  -1.479   0.000  0.00  0.00    -0.067 SA
ATOM      5  C   UNL d   1      -3.040  -1.157   0.000  0.00  0.00     0.037 A 
ENDROOT
BRANCH   3   6
ATOM      6  C   UNL d   1      -3.533   0.240   0.000  0.00  0.00     0.001 A 
ATOM      7  C   UNL d   1      -3.341   1.020   0.000  0.00  0.00     0.000 A 
ATOM      8  C   UNL d   1      -3.937   1.616   0.000  0.00  0.00     0.000 A 
ATOM      9  C   UNL d   1      -4.683   1.417   0.000  0.00  0.00     0.000 A 
ATOM     10  C   UNL d   1      -4.923   0.630   0.000  0.00  0.00     0.000 A 
ATOM     11  C   UNL d   1      -4.354   0.000   0.000  0.00  0.00     0.000 A 
BRANCH   9  12
ATOM     12  C   UNL d   1      -5.251   2.006   0.000  0.00  0.00     0.000 A 
ATOM     13  C   UNL d   1      -5.011   2.793   0.000  0.00  0.00     0.000 A 
ATOM     14  C   UNL d   1      -5.580   3.389   0.000  0.00  0.00     0.000 A 
ATOM     15  C   UNL d   1      -6.360   3.197   0.000  0.00  0.00     0.000 A 
ATOM     16  C   UNL d   1      -6.607   2.403   0.000  0.00  0.00     0.000 A 
ATOM     17  C   UNL d   1      -6.032   1.807   0.000  0.00  0.00     0.000 A 
ENDBRANCH   9  12
ENDBRANCH   3   6
BRANCH   1  18
ATOM     18  C   UNL d   1      -1.862   0.657   0.000  0.00  0.00     0.302 C 
ATOM     19  O   UNL d   1      -2.382   1.315   0.000  0.00  0.00    -0.259 OA
BRANCH  18  20
ATOM     20  O   UNL d   1      -1.041   0.760   0.000  0.00  0.00    -0.271 OA
BRANCH  20  21
ATOM     21  C   UNL d   1      -0.712   1.554   0.000  0.00  0.00     0.126 C 
ATOM     22  C   UNL d   1       0.089   1.643   0.000  0.00  0.00     0.029 C 
ENDBRANCH  20  21
ENDBRANCH  18  20
ENDBRANCH   1  18
BRANCH   2  23
ATOM     23  N   UNL d   1      -0.904  -0.986   0.000  0.00  0.00    -0.201 NA
ATOM     24  C   UNL d   1      -0.411  -0.329   0.000  0.00  0.00     0.281 C 
ATOM     25  O   UNL d   1      -0.739   0.466   0.000  0.00  0.00    -0.265 OA
BRANCH  24  26
ATOM     26  C   UNL d   1       0.418  -0.411   0.000  0.00  0.00     0.082 C 
BRANCH  26  27
ATOM     27  C   UNL d   1       0.911   0.267   0.000  0.00  0.00     0.085 C 
BRANCH  27  28
ATOM     28  N   UNL d   1       1.732   0.199   0.000  0.00  0.00    -0.299 N 
ATOM     29  C   UNL d   1       2.218   0.897   0.000  0.00  0.00     0.107 A 
ATOM     30  C   UNL d   1       3.040   0.822   0.000  0.00  0.00     0.142 A 
ATOM     31  O   UNL d   1       3.375   0.075   0.000  0.00  0.00    -0.300 OA
ATOM     32  C   UNL d   1       2.923  -0.657   0.000  0.00  0.00     0.142 A 
ATOM     33  C   UNL d   1       2.102  -0.575   0.000  0.00  0.00     0.107 A 
ENDBRANCH  27  28
ENDBRANCH  26  27
ENDBRANCH  24  26
ENDBRANCH   2  23
TORSDOF 9
