REMARK  3 active torsions:
REMARK  status: ('A' for Active; 'I' for Inactive)
REMARK    1  A    between atoms: C_6  and  C_1 
REMARK    2  A    between atoms: C_5  and  N_2 
REMARK    3  A    between atoms: N_4  and  C_6 
ROOT
ATOM      1  N   UNL d   1      -1.369  -0.871   0.000  0.00  0.00    -0.299 N 
ATOM      2  N   UNL d   1      -1.369   0.737   0.000  0.00  0.00    -0.300 N 
ATOM      3  C   UNL d   1      -2.073  -0.469   0.000  0.00  0.00     0.100 A 
ATOM      4  C   UNL d   1      -0.649  -0.469   0.000  0.00  0.00     0.100 A 
ATOM      5  C   UNL d   1      -2.073   0.335   0.000  0.00  0.00     0.100 A 
ATOM      6  C   UNL d   1      -0.649   0.335   0.000  0.00  0.00     0.100 A 
ENDROOT
BRANCH   2   7
ATOM      7  C   UNL d   1      -1.353   1.579   0.000  0.00  0.00     0.084 C 
BRANCH   7   8
ATOM      8  C   UNL d   1      -0.624   2.006   0.000  0.00  0.00     0.057 A 
ATOM      9  C   UNL d   1       0.054   1.579   0.000  0.00  0.00     0.004 A 
ATOM     10  C   UNL d   1       0.804   2.006   0.000  0.00  0.00     0.000 A 
ATOM     11  C   UNL d   1       0.054   0.754   0.000  0.00  0.00     0.000 A 
ATOM     12  C   UNL d   1       1.508   1.579   0.000  0.00  0.00     0.000 A 
ATOM     13  C   UNL d   1       0.804   2.810   0.000  0.00  0.00     0.003 A 
ATOM     14  C   UNL d   1       1.462   0.754   0.000  0.00  0.00     0.000 A 
ATOM     15  C   UNL d   1       0.804   0.352   0.000  0.00  0.00     0.000 A 
ATOM     16  C   UNL d   1       0.054   3.229   0.000  0.00  0.00     0.042 A 
ATOM     17  C   UNL d   1      -0.603   2.827   0.000  0.00  0.00     0.197 A 
ATOM     18  O   UNL d   1      -1.328   3.267   0.000  0.00  0.00    -0.286 OA
ENDBRANCH   7   8
ENDBRANCH   2   7
BRANCH   1  19
ATOM     19  C   UNL d   1      -1.369  -1.713   0.000  0.00  0.00     0.092 A 
ATOM     20  C   UNL d   1      -2.094  -2.115   0.000  0.00  0.00     0.156 A 
ATOM     21  F   UNL d   1      -2.814  -1.713   0.000  0.00  0.00    -0.203 F 
ATOM     22  C   UNL d   1      -2.094  -2.965   0.000  0.00  0.00     0.031 A 
ATOM     23  C   UNL d   1      -1.369  -3.367   0.000  0.00  0.00     0.002 A 
ATOM     24  C   UNL d   1      -0.666  -2.965   0.000  0.00  0.00     0.002 A 
ATOM     25  C   UNL d   1      -0.666  -2.115   0.000  0.00  0.00     0.020 A 
ENDBRANCH   1  19
TORSDOF 3
