REMARK  4 active torsions:
REMARK  status: ('A' for Active; 'I' for Inactive)
REMARK    1  A    between atoms: O_7  and  C_2 
REMARK    2  A    between atoms: C_13  and  C_3 
REMARK    3  A    between atoms: C_11  and  O_7 
REMARK    4  A    between atoms: O_25  and  C_20 
ROOT
ATOM      1  C   UNL d   1      -2.099  -1.598   0.000  0.00  0.00     0.066 A 
ATOM      2  C   UNL d   1      -2.122  -0.778   0.000  0.00  0.00     0.186 A 
ATOM      3  C   UNL d   1      -2.700  -2.193   0.000  0.00  0.00     0.012 A 
ATOM      4  C   UNL d   1      -2.329  -2.901   0.000  0.00  0.00     0.037 A 
ATOM      5  C   UNL d   1      -1.362  -1.987   0.000  0.00  0.00     0.116 A 
ATOM      6  S   UNL d   1      -1.503  -2.812   0.000  0.00  0.00    -0.067 SA
ATOM      7  N   UNL d   1      -1.415  -0.354   0.000  0.00  0.00    -0.200 NA
ATOM      8  N   UNL d   1      -0.654  -1.562   0.000  0.00  0.00    -0.217 NA
ATOM      9  C   UNL d   1      -0.684  -0.749   0.000  0.00  0.00     0.201 A 
ENDROOT
BRANCH   2  10
ATOM     10  O   UNL d   1      -2.859  -0.377   0.000  0.00  0.00    -0.288 OA
BRANCH  10  11
ATOM     11  C   UNL d   1      -2.894   0.472   0.000  0.00  0.00     0.119 A 
ATOM     12  C   UNL d   1      -3.602   0.896   0.000  0.00  0.00     0.104 A 
ATOM     13  N   UNL d   1      -4.333   0.472   0.000  0.00  0.00    -0.244 NA
ATOM     14  C   UNL d   1      -3.602   1.716   0.000  0.00  0.00     0.020 A 
ATOM     15  C   UNL d   1      -5.040   0.896   0.000  0.00  0.00     0.082 A 
ATOM     16  C   UNL d   1      -5.801   0.495   0.000  0.00  0.00     0.021 C 
ATOM     17  C   UNL d   1      -5.040   1.716   0.000  0.00  0.00     0.019 A 
ATOM     18  C   UNL d   1      -4.333   2.140   0.000  0.00  0.00     0.003 A 
ATOM     19  C   UNL d   1      -2.894   2.140   0.000  0.00  0.00     0.002 A 
ATOM     20  C   UNL d   1      -2.187   1.716   0.000  0.00  0.00     0.002 A 
ATOM     21  C   UNL d   1      -2.187   0.896   0.000  0.00  0.00     0.026 A 
ENDBRANCH  10  11
ENDBRANCH   2  10
BRANCH   3  22
ATOM     22  C   UNL d   1      -3.514  -2.075   0.000  0.00  0.00     0.001 A 
ATOM     23  C   UNL d   1      -3.850  -1.315   0.000  0.00  0.00     0.002 A 
ATOM     24  C   UNL d   1      -4.669  -1.226   0.000  0.00  0.00     0.024 A 
ATOM     25  C   UNL d   1      -5.158  -1.910   0.000  0.00  0.00     0.094 A 
ATOM     26  C   UNL d   1      -4.811  -2.671   0.000  0.00  0.00     0.024 A 
ATOM     27  C   UNL d   1      -3.991  -2.759   0.000  0.00  0.00     0.002 A 
BRANCH  25  28
ATOM     28  O   UNL d   1      -6.007  -1.881   0.000  0.00  0.00    -0.328 OA
ATOM     29  C   UNL d   1      -6.432  -2.588   0.000  0.00  0.00     0.181 C 
ENDBRANCH  25  28
ENDBRANCH   3  22
TORSDOF 4
