REMARK  3 active torsions:
REMARK  status: ('A' for Active; 'I' for Inactive)
REMARK    1  A    between atoms: N_12  and  C_6 
REMARK    2  A    between atoms: C_18  and  N_12 
REMARK    3  A    between atoms: C_19  and  C_18 
ROOT
ATOM      1  N   UNL d   1       0.078   1.071   0.000  0.00  0.00    -0.175 N 
ATOM      2  C   UNL d   1       0.078   1.866   0.000  0.00  0.00     0.167 A 
ATOM      3  N   UNL d   1       0.796   0.664   0.000  0.00  0.00    -0.142 NA
ATOM      4  C   UNL d   1      -0.604   0.664   0.000  0.00  0.00     0.283 A 
ATOM      5  N   UNL d   1      -0.604   2.273   0.000  0.00  0.00    -0.227 NA
ATOM      6  C   UNL d   1       1.513   1.071   0.000  0.00  0.00     0.182 A 
ATOM      7  C   UNL d   1      -1.322   1.071   0.000  0.00  0.00     0.076 A 
ATOM      8  C   UNL d   1       0.796   2.273   0.000  0.00  0.00     0.039 A 
ATOM      9  C   UNL d   1      -1.322   1.866   0.000  0.00  0.00     0.088 A 
ATOM     10  C   UNL d   1       1.513   1.866   0.000  0.00  0.00     0.041 A 
ATOM     11  O   UNL d   1      -0.604  -0.168   0.000  0.00  0.00    -0.265 OA
ATOM     12  C   UNL d   1      -2.040   0.664   0.000  0.00  0.00     0.006 A 
ATOM     13  C   UNL d   1       0.796   3.104   0.000  0.00  0.00     0.003 A 
ATOM     14  C   UNL d   1       2.231   2.273   0.000  0.00  0.00     0.003 A 
ATOM     15  C   UNL d   1      -2.040   2.273   0.000  0.00  0.00     0.019 A 
ATOM     16  C   UNL d   1      -2.757   1.095   0.000  0.00  0.00     0.000 A 
ATOM     17  C   UNL d   1       1.513   3.511   0.000  0.00  0.00     0.000 A 
ATOM     18  C   UNL d   1       2.231   3.104   0.000  0.00  0.00     0.000 A 
ATOM     19  C   UNL d   1      -2.757   1.842   0.000  0.00  0.00     0.002 A 
ENDROOT
BRANCH   6  20
ATOM     20  N   UNL d   1       2.267   0.694   0.000  0.00  0.00    -0.220 NA
BRANCH  20  21
ATOM     21  C   UNL d   1       2.321  -0.132   0.000  0.00  0.00     0.146 C 
BRANCH  21  22
ATOM     22  C   UNL d   1       3.039  -0.508   0.000  0.00  0.00     0.255 C 
ATOM     23  O   UNL d   1       3.057  -1.346   0.000  0.00  0.00    -0.281 OA
ENDBRANCH  21  22
ENDBRANCH  20  21
ENDBRANCH   6  20
TORSDOF 3
