REMARK  4 active torsions:
REMARK  status: ('A' for Active; 'I' for Inactive)
REMARK    1  A    between atoms: S_2  and  N_1 
REMARK    2  A    between atoms: C_7  and  S_2 
REMARK    3  A    between atoms: S_8  and  C_5 
REMARK    4  A    between atoms: C_16  and  S_8 
ROOT
ATOM      1  N   UNL d   1       2.538  -0.673   0.000  0.00  0.00    -0.151 N 
ATOM      2  C   UNL d   1       2.411  -1.485   0.000  0.00  0.00     0.102 A 
ATOM      3  N   UNL d   1       1.799  -0.310   0.000  0.00  0.00    -0.155 NA
ATOM      4  C   UNL d   1       1.603  -1.628   0.000  0.00  0.00     0.067 A 
ATOM      5  C   UNL d   1       1.224  -0.893   0.000  0.00  0.00     0.110 A 
ATOM      6  C   UNL d   1       3.003  -2.081   0.000  0.00  0.00     0.022 C 
ATOM      7  C   UNL d   1       0.408  -0.771   0.000  0.00  0.00     0.023 C 
ENDROOT
BRANCH   1   8
ATOM      8  S   UNL d   1       3.260  -0.286   0.000  0.00  0.00     0.292 S 
ATOM      9  O   UNL d   1       3.647  -1.016   0.000  0.00  0.00    -0.198 OA
ATOM     10  O   UNL d   1       2.880   0.436   0.000  0.00  0.00    -0.198 OA
BRANCH   8  11
ATOM     11  C   UNL d   1       3.994   0.098   0.000  0.00  0.00     0.135 A 
ATOM     12  S   UNL d   1       4.728  -0.261   0.000  0.00  0.00    -0.073 SA
ATOM     13  C   UNL d   1       5.303   0.330   0.000  0.00  0.00     0.036 A 
ATOM     14  C   UNL d   1       4.920   1.061   0.000  0.00  0.00     0.008 A 
ATOM     15  C   UNL d   1       4.104   0.918   0.000  0.00  0.00     0.020 A 
ENDBRANCH   8  11
ENDBRANCH   1   8
BRANCH   4  16
ATOM     16  S   UNL d   1       1.155  -2.325   0.000  0.00  0.00    -0.084 SA
BRANCH  16  17
ATOM     17  C   UNL d   1       0.330  -2.280   0.000  0.00  0.00     0.029 A 
ATOM     18  C   UNL d   1      -0.049  -1.546   0.000  0.00  0.00     0.006 A 
ATOM     19  C   UNL d   1      -0.869  -1.518   0.000  0.00  0.00     0.001 A 
ATOM     20  C   UNL d   1      -1.318  -2.207   0.000  0.00  0.00     0.000 A 
ATOM     21  C   UNL d   1      -0.938  -2.937   0.000  0.00  0.00     0.001 A 
ATOM     22  C   UNL d   1      -0.118  -2.974   0.000  0.00  0.00     0.006 A 
ENDBRANCH  16  17
ENDBRANCH   4  16
TORSDOF 4
