REMARK  2 active torsions:
REMARK  status: ('A' for Active; 'I' for Inactive)
REMARK    1  A    between atoms: C_3  and  N_1 
REMARK    2  A    between atoms: C_12  and  C_9 
ROOT
ATOM      1  C   UNL d   1      -0.819   0.206   0.000  0.00  0.00     0.187 A 
ATOM      2  N   UNL d   1      -0.097  -0.206   0.000  0.00  0.00    -0.129 NA
ATOM      3  N   UNL d   1      -0.097  -1.031   0.000  0.00  0.00    -0.147 NA
ATOM      4  C   UNL d   1      -1.530  -0.206   0.000  0.00  0.00     0.039 A 
ATOM      5  C   UNL d   1      -0.819  -1.444   0.000  0.00  0.00     0.103 A 
ATOM      6  C   UNL d   1      -1.530  -1.031   0.000  0.00  0.00     0.022 A 
ATOM      7  C   UNL d   1      -2.246   0.206   0.000  0.00  0.00     0.003 A 
ATOM      8  C   UNL d   1      -2.246  -1.444   0.000  0.00  0.00     0.002 A 
ATOM      9  C   UNL d   1      -2.956  -1.031   0.000  0.00  0.00     0.000 A 
ATOM     10  C   UNL d   1      -2.956  -0.206   0.000  0.00  0.00     0.000 A 
ENDROOT
BRANCH   1  11
ATOM     11  N   UNL d   1      -0.819   1.031   0.000  0.00  0.00    -0.191 N 
ATOM     12  N   UNL d   1      -1.421   1.610   0.000  0.00  0.00    -0.058 NA
ATOM     13  N   UNL d   1      -1.094   2.355   0.000  0.00  0.00    -0.129 NA
ATOM     14  C   UNL d   1      -0.269   2.269   0.000  0.00  0.00     0.122 A 
ATOM     15  C   UNL d   1      -0.097   1.444   0.000  0.00  0.00     0.105 A 
ATOM     16  C   UNL d   1       0.344   2.819   0.000  0.00  0.00     0.022 A 
ATOM     17  C   UNL d   1       0.688   1.197   0.000  0.00  0.00     0.021 A 
ATOM     18  C   UNL d   1       1.306   1.782   0.000  0.00  0.00     0.002 A 
ATOM     19  C   UNL d   1       1.100   2.572   0.000  0.00  0.00     0.002 A 
ENDBRANCH   1  11
BRANCH   5  20
ATOM     20  C   UNL d   1      -0.819  -2.269   0.000  0.00  0.00     0.020 A 
ATOM     21  C   UNL d   1      -0.097  -2.681   0.000  0.00  0.00     0.004 A 
ATOM     22  C   UNL d   1      -0.097  -3.506   0.000  0.00  0.00     0.030 A 
ATOM     23  C   UNL d   1      -0.819  -3.919   0.000  0.00  0.00     0.140 A 
ATOM     24  C   UNL d   1      -1.530  -3.506   0.000  0.00  0.00     0.030 A 
ATOM     25  F   UNL d   1      -0.819  -4.744   0.000  0.00  0.00    -0.204 F 
ATOM     26  C   UNL d   1      -1.530  -2.681   0.000  0.00  0.00     0.004 A 
ENDBRANCH   5  20
TORSDOF 2
