REMARK  3 active torsions:
REMARK  status: ('A' for Active; 'I' for Inactive)
REMARK    1  A    between atoms: N_4  and  C_1 
REMARK    2  A    between atoms: C_15  and  C_5 
REMARK    3  A    between atoms: C_9  and  N_8 
ROOT
ATOM      1  C   UNL d   1      -3.053   2.203   0.000  0.00  0.00     0.169 A 
ATOM      2  N   UNL d   1      -3.454   1.483   0.000  0.00  0.00    -0.130 NA
ATOM      3  N   UNL d   1      -4.288   1.498   0.000  0.00  0.00    -0.147 NA
ATOM      4  C   UNL d   1      -4.695   2.203   0.000  0.00  0.00     0.103 A 
ATOM      5  C   UNL d   1      -3.459   2.904   0.000  0.00  0.00     0.038 A 
ATOM      6  C   UNL d   1      -4.288   2.904   0.000  0.00  0.00     0.022 A 
ATOM      7  C   UNL d   1      -3.042   3.640   0.000  0.00  0.00     0.003 A 
ATOM      8  C   UNL d   1      -4.695   3.655   0.000  0.00  0.00     0.002 A 
ATOM      9  C   UNL d   1      -3.459   4.381   0.000  0.00  0.00     0.000 A 
ATOM     10  C   UNL d   1      -4.288   4.365   0.000  0.00  0.00     0.000 A 
ENDROOT
BRANCH   1  11
ATOM     11  N   UNL d   1      -2.239   2.203   0.000  0.00  0.00    -0.285 N 
ATOM     12  C   UNL d   1      -1.807   1.498   0.000  0.00  0.00     0.101 A 
ATOM     13  C   UNL d   1      -0.983   1.498   0.000  0.00  0.00     0.101 A 
ATOM     14  N   UNL d   1      -0.571   2.203   0.000  0.00  0.00    -0.286 N 
ATOM     15  C   UNL d   1      -0.983   2.904   0.000  0.00  0.00     0.101 A 
ATOM     16  C   UNL d   1      -1.833   2.904   0.000  0.00  0.00     0.101 A 
BRANCH  14  17
ATOM     17  C   UNL d   1       0.252   2.219   0.000  0.00  0.00     0.148 A 
ATOM     18  N   UNL d   1       0.679   2.929   0.000  0.00  0.00    -0.227 NA
ATOM     19  C   UNL d   1       1.503   2.945   0.000  0.00  0.00     0.101 A 
ATOM     20  C   UNL d   1       1.920   2.239   0.000  0.00  0.00     0.021 A 
ATOM     21  C   UNL d   1       1.503   1.539   0.000  0.00  0.00     0.005 A 
ATOM     22  C   UNL d   1       0.679   1.524   0.000  0.00  0.00     0.037 A 
ENDBRANCH  14  17
ENDBRANCH   1  11
BRANCH   4  23
ATOM     23  C   UNL d   1      -5.524   2.203   0.000  0.00  0.00     0.019 A 
ATOM     24  C   UNL d   1      -5.925   1.483   0.000  0.00  0.00     0.002 A 
ATOM     25  C   UNL d   1      -6.759   1.477   0.000  0.00  0.00     0.000 A 
ATOM     26  C   UNL d   1      -7.192   2.178   0.000  0.00  0.00     0.000 A 
ATOM     27  C   UNL d   1      -6.790   2.904   0.000  0.00  0.00     0.000 A 
ATOM     28  C   UNL d   1      -5.946   2.919   0.000  0.00  0.00     0.002 A 
ENDBRANCH   4  23
TORSDOF 3
