REMARK  2 active torsions:
REMARK  status: ('A' for Active; 'I' for Inactive)
REMARK    1  A    between atoms: C_6  and  C_2 
REMARK    2  A    between atoms: C_7  and  C_3 
ROOT
ATOM      1  N   UNL d   1       6.334  -3.782   0.000  0.00  0.00    -0.238 NA
ATOM      2  C   UNL d   1       7.112  -4.015   0.000  0.00  0.00     0.112 A 
ATOM      3  C   UNL d   1       5.865  -4.464   0.000  0.00  0.00     0.088 A 
ATOM      4  S   UNL d   1       7.145  -4.838   0.000  0.00  0.00    -0.066 SA
ATOM      5  C   UNL d   1       6.363  -5.117   0.000  0.00  0.00     0.056 A 
ENDROOT
BRANCH   3   6
ATOM      6  C   UNL d   1       5.054  -4.564   0.000  0.00  0.00     0.020 A 
ATOM      7  C   UNL d   1       4.543  -3.903   0.000  0.00  0.00     0.028 A 
ATOM      8  C   UNL d   1       3.703  -4.019   0.000  0.00  0.00     0.123 A 
ATOM      9  O   UNL d   1       3.204  -3.371   0.000  0.00  0.00    -0.301 OA
ATOM     10  C   UNL d   1       3.396  -4.780   0.000  0.00  0.00     0.123 A 
ATOM     11  C   UNL d   1       2.394  -3.471   0.000  0.00  0.00     0.149 A 
ATOM     12  C   UNL d   1       2.074  -4.231   0.000  0.00  0.00     0.149 A 
ATOM     13  O   UNL d   1       2.573  -4.888   0.000  0.00  0.00    -0.301 OA
ATOM     14  C   UNL d   1       3.919  -5.428   0.000  0.00  0.00     0.027 A 
ATOM     15  C   UNL d   1       4.738  -5.328   0.000  0.00  0.00     0.004 A 
ENDBRANCH   3   6
BRANCH   2  16
ATOM     16  C   UNL d   1       7.818  -3.570   0.000  0.00  0.00     0.043 A 
ATOM     17  C   UNL d   1       7.793  -2.747   0.000  0.00  0.00     0.101 A 
ATOM     18  N   UNL d   1       8.508  -2.311   0.000  0.00  0.00    -0.242 NA
ATOM     19  C   UNL d   1       9.244  -2.710   0.000  0.00  0.00     0.099 A 
ATOM     20  C   UNL d   1       9.256  -3.533   0.000  0.00  0.00     0.021 A 
ATOM     21  C   UNL d   1       8.554  -3.965   0.000  0.00  0.00     0.005 A 
ENDBRANCH   2  16
TORSDOF 2
