REMARK  4 active torsions:
REMARK  status: ('A' for Active; 'I' for Inactive)
REMARK    1  A    between atoms: C_6  and  C_1 
REMARK    2  A    between atoms: C_8  and  N_3 
REMARK    3  A    between atoms: C_9  and  C_6 
REMARK    4  A    between atoms: N_7  and  C_9 
ROOT
ATOM      1  C   UNL d   1       3.458  -0.480   0.000  0.00  0.00     0.058 A 
ATOM      2  C   UNL d   1       2.781  -0.921   0.000  0.00  0.00     0.067 A 
ATOM      3  N   UNL d   1       2.134  -0.436   0.000  0.00  0.00    -0.306 N 
ATOM      4  C   UNL d   1       2.436   0.302   0.000  0.00  0.00     0.064 A 
ATOM      5  C   UNL d   1       3.285   0.254   0.000  0.00  0.00     0.022 A 
ATOM      6  C   UNL d   1       2.767  -1.746   0.000  0.00  0.00     0.019 C 
ATOM      7  C   UNL d   1       2.000   0.959   0.000  0.00  0.00     0.019 C 
ENDROOT
BRANCH   1   8
ATOM      8  C   UNL d   1       4.263  -0.767   0.000  0.00  0.00     0.214 C 
ATOM      9  O   UNL d   1       4.417  -1.554   0.000  0.00  0.00    -0.285 OA
BRANCH   8  10
ATOM     10  C   UNL d   1       4.949  -0.235   0.000  0.00  0.00     0.123 C 
BRANCH  10  11
ATOM     11  N   UNL d   1       5.731  -0.503   0.000  0.00  0.00    -0.300 N 
ATOM     12  C   UNL d   1       6.373   0.000   0.000  0.00  0.00     0.080 A 
ATOM     13  C   UNL d   1       7.198  -0.288   0.000  0.00  0.00     0.019 A 
ATOM     14  C   UNL d   1       7.313  -1.041   0.000  0.00  0.00     0.003 A 
ATOM     15  C   UNL d   1       6.661  -1.573   0.000  0.00  0.00     0.019 A 
ATOM     16  C   UNL d   1       8.119  -1.309   0.000  0.00  0.00     0.000 C 
ATOM     17  C   UNL d   1       5.875  -1.309   0.000  0.00  0.00     0.080 A 
ENDBRANCH  10  11
ENDBRANCH   8  10
ENDBRANCH   1   8
BRANCH   3  18
ATOM     18  C   UNL d   1       1.309  -0.561   0.000  0.00  0.00     0.064 A 
ATOM     19  C   UNL d   1       0.978  -1.271   0.000  0.00  0.00     0.020 A 
ATOM     20  C   UNL d   1       0.115  -1.400   0.000  0.00  0.00     0.031 A 
ATOM     21  C   UNL d   1      -0.360  -0.782   0.000  0.00  0.00     0.140 A 
ATOM     22  C   UNL d   1      -0.053  -0.034   0.000  0.00  0.00     0.031 A 
ATOM     23  F   UNL d   1      -1.223  -0.906   0.000  0.00  0.00    -0.204 F 
ATOM     24  C   UNL d   1       0.782   0.053   0.000  0.00  0.00     0.020 A 
ENDBRANCH   3  18
TORSDOF 4
