REMARK  5 active torsions:
REMARK  status: ('A' for Active; 'I' for Inactive)
REMARK    1  A    between atoms: N_8  and  C_6 
REMARK    2  A    between atoms: C_7  and  O_9 
REMARK    3  A    between atoms: C_10  and  C_7 
REMARK    4  A    between atoms: O_9  and  N_8 
REMARK    5  A    between atoms: O_20  and  C_15 
ROOT
ATOM      1  O   UNL d   1       4.575  -1.056   0.000  0.00  0.00    -0.169 OA
ENDROOT
BRANCH   1   2
ATOM      2  C   UNL d   1       3.671  -1.865   0.000  0.00  0.00     0.319 C 
ATOM      3  O   UNL d   1       3.941  -2.630   0.000  0.00  0.00    -0.257 OA
BRANCH   2   4
ATOM      4  C   UNL d   1       2.958  -1.865   0.000  0.00  0.00     0.065 A 
ATOM      5  C   UNL d   1       2.608  -2.477   0.000  0.00  0.00     0.007 A 
ATOM      6  C   UNL d   1       1.901  -2.477   0.000  0.00  0.00     0.024 A 
ATOM      7  C   UNL d   1       1.552  -1.857   0.000  0.00  0.00     0.094 A 
ATOM      8  C   UNL d   1       1.909  -1.246   0.000  0.00  0.00     0.024 A 
ATOM      9  C   UNL d   1       2.608  -1.246   0.000  0.00  0.00     0.007 A 
BRANCH   7  10
ATOM     10  O   UNL d   1       0.838  -1.857   0.000  0.00  0.00    -0.328 OA
ATOM     11  C   UNL d   1       0.117  -1.224   0.000  0.00  0.00     0.181 C 
ENDBRANCH   7  10
ENDBRANCH   2   4
ENDBRANCH   1   2
BRANCH   1  12
ATOM     12  N   UNL d   1       5.376  -2.083   0.000  0.00  0.00    -0.123 NA
BRANCH  12  13
ATOM     13  C   UNL d   1       6.206  -2.083   0.000  0.00  0.00     0.108 A 
ATOM     14  C   UNL d   1       6.607  -2.804   0.000  0.00  0.00     0.025 A 
ATOM     15  C   UNL d   1       7.437  -2.819   0.000  0.00  0.00     0.041 A 
ATOM     16  C   UNL d   1       7.867  -2.098   0.000  0.00  0.00     0.196 A 
ATOM     17  C   UNL d   1       7.853  -3.540   0.000  0.00  0.00     0.003 C 
ATOM     18  C   UNL d   1       7.452  -1.377   0.000  0.00  0.00     0.041 A 
ATOM     19  O   UNL d   1       8.698  -2.105   0.000  0.00  0.00    -0.287 OA
ATOM     20  C   UNL d   1       6.622  -1.362   0.000  0.00  0.00     0.025 A 
ATOM     21  C   UNL d   1       7.875  -0.663   0.000  0.00  0.00     0.003 C 
ENDBRANCH  12  13
ENDBRANCH   1  12
TORSDOF 5
