REMARK  9 active torsions:
REMARK  status: ('A' for Active; 'I' for Inactive)
REMARK    1  A    between atoms: C_5  and  C_1 
REMARK    2  A    between atoms: C_10  and  C_2 
REMARK    3  A    between atoms: S_11  and  C_3 
REMARK    4  A    between atoms: C_9  and  C_4 
REMARK       I    between atoms: N_8  and  C_5 
REMARK    5  A    between atoms: C_13  and  N_8 
REMARK    6  A    between atoms: C_18  and  S_11 
REMARK    7  A    between atoms: C_16  and  C_18 
REMARK    8  A    between atoms: C_23  and  C_16 
REMARK    9  A    between atoms: O_25  and  C_20 
ROOT
ATOM      1  C   UNL d   1      -1.620   0.558   0.000  0.00  0.00     0.077 A 
ATOM      2  C   UNL d   1      -0.194   0.558   0.000  0.00  0.00     0.047 A 
ATOM      3  C   UNL d   1      -0.194  -0.271   0.000  0.00  0.00     0.112 A 
ATOM      4  C   UNL d   1      -0.907   0.973   0.000  0.00  0.00     0.032 A 
ATOM      5  C   UNL d   1      -1.620  -0.271   0.000  0.00  0.00     0.087 A 
ATOM      6  N   UNL d   1      -0.907  -0.686   0.000  0.00  0.00    -0.239 NA
ATOM      7  C   UNL d   1      -2.339  -0.702   0.000  0.00  0.00     0.021 C 
ENDROOT
BRANCH   1   8
ATOM      8  C   UNL d   1      -2.339   0.990   0.000  0.00  0.00     0.281 C 
ATOM      9  N   UNL d   1      -2.317   1.808   0.000  0.00  0.00    -0.206 NA
ATOM     10  O   UNL d   1      -3.052   0.592   0.000  0.00  0.00    -0.265 OA
BRANCH   9  11
ATOM     11  C   UNL d   1      -3.013   2.234   0.000  0.00  0.00     0.107 A 
ATOM     12  C   UNL d   1      -3.002   3.052   0.000  0.00  0.00     0.112 A 
ATOM     13  C   UNL d   1      -3.715   3.467   0.000  0.00  0.00     0.026 A 
ATOM     14  C   UNL d   1      -4.440   3.052   0.000  0.00  0.00     0.002 A 
ATOM     15  C   UNL d   1      -4.445   2.234   0.000  0.00  0.00     0.002 A 
ATOM     16  C   UNL d   1      -3.732   1.819   0.000  0.00  0.00     0.021 A 
BRANCH  12  17
ATOM     17  O   UNL d   1      -2.283   3.478   0.000  0.00  0.00    -0.327 OA
ATOM     18  C   UNL d   1      -2.051   4.440   0.000  0.00  0.00     0.181 C 
ENDBRANCH  12  17
ENDBRANCH   9  11
ENDBRANCH   1   8
BRANCH   4  19
ATOM     19  C   UNL d   1      -0.907   1.808   0.000  0.00  0.00     0.100 A 
ATOM     20  O   UNL d   1      -0.194   2.217   0.000  0.00  0.00    -0.305 OA
ATOM     21  C   UNL d   1      -0.376   3.030   0.000  0.00  0.00     0.123 A 
ATOM     22  C   UNL d   1      -1.172   3.118   0.000  0.00  0.00     0.029 A 
ATOM     23  C   UNL d   1      -1.520   2.383   0.000  0.00  0.00     0.027 A 
ENDBRANCH   4  19
BRANCH   2  24
ATOM     24  C   UNL d   1       0.531   0.990   0.000  0.00  0.00     0.124 C 
ATOM     25  N   UNL d   1       1.244   0.592   0.000  0.00  0.00    -0.146 N 
ENDBRANCH   2  24
BRANCH   3  26
ATOM     26  S   UNL d   1       0.531  -0.702   0.000  0.00  0.00    -0.064 SA
BRANCH  26  27
ATOM     27  C   UNL d   1       1.244  -0.304   0.000  0.00  0.00     0.079 C 
BRANCH  27  28
ATOM     28  C   UNL d   1       1.930  -0.730   0.000  0.00  0.00     0.202 C 
ATOM     29  O   UNL d   1       2.659  -0.332   0.000  0.00  0.00    -0.286 OA
BRANCH  28  30
ATOM     30  C   UNL d   1       1.907  -1.548   0.000  0.00  0.00     0.040 A 
ATOM     31  C   UNL d   1       1.178  -1.946   0.000  0.00  0.00     0.003 A 
ATOM     32  C   UNL d   1       1.150  -2.770   0.000  0.00  0.00     0.000 A 
ATOM     33  C   UNL d   1       1.880  -3.207   0.000  0.00  0.00     0.000 A 
ATOM     34  C   UNL d   1       2.593  -2.792   0.000  0.00  0.00     0.000 A 
ATOM     35  C   UNL d   1       2.610  -1.974   0.000  0.00  0.00     0.003 A 
ENDBRANCH  28  30
ENDBRANCH  27  28
ENDBRANCH  26  27
ENDBRANCH   3  26
TORSDOF 9
