REMARK  5 active torsions:
REMARK  status: ('A' for Active; 'I' for Inactive)
REMARK    1  A    between atoms: C_4  and  C_1 
REMARK    2  A    between atoms: N_8  and  C_4 
REMARK    3  A    between atoms: C_11  and  N_8 
REMARK    4  A    between atoms: O_17  and  C_12 
REMARK    5  A    between atoms: C_20  and  O_17 
ROOT
ATOM      1  C   UNL d   1      -1.232  -1.740   0.000  0.00  0.00     0.105 C 
ENDROOT
BRANCH   1   2
ATOM      2  C   UNL d   1      -0.561  -2.240   0.000  0.00  0.00     0.096 A 
ATOM      3  C   UNL d   1      -0.653  -3.056   0.000  0.00  0.00     0.196 A 
ATOM      4  C   UNL d   1       0.018  -3.542   0.000  0.00  0.00     0.019 A 
ATOM      5  O   UNL d   1      -1.416  -3.398   0.000  0.00  0.00    -0.287 OA
ATOM      6  C   UNL d   1       0.776  -3.209   0.000  0.00  0.00     0.043 A 
ATOM      7  C   UNL d   1       0.859  -2.385   0.000  0.00  0.00     0.019 A 
ATOM      8  C   UNL d   1       0.859  -4.016   0.000  0.00  0.00     0.009 C 
ATOM      9  C   UNL d   1       1.596  -3.301   0.000  0.00  0.00     0.009 C 
ATOM     10  C   UNL d   1       0.197  -1.898   0.000  0.00  0.00     0.196 A 
ATOM     11  O   UNL d   1       0.302  -1.070   0.000  0.00  0.00    -0.287 OA
ENDBRANCH   1   2
BRANCH   1  12
ATOM     12  N   UNL d   1      -1.153  -0.925   0.000  0.00  0.00    -0.244 NA
BRANCH  12  13
ATOM     13  C   UNL d   1      -1.824  -0.452   0.000  0.00  0.00     0.082 A 
ATOM     14  C   UNL d   1      -1.736   0.368   0.000  0.00  0.00     0.021 A 
ATOM     15  C   UNL d   1      -2.416   0.842   0.000  0.00  0.00     0.026 A 
ATOM     16  C   UNL d   1      -3.170   0.508   0.000  0.00  0.00     0.100 A 
ATOM     17  C   UNL d   1      -3.244  -0.316   0.000  0.00  0.00     0.026 A 
ATOM     18  C   UNL d   1      -2.573  -0.793   0.000  0.00  0.00     0.021 A 
BRANCH  16  19
ATOM     19  O   UNL d   1      -3.862   0.995   0.000  0.00  0.00    -0.305 OA
BRANCH  19  20
ATOM     20  C   UNL d   1      -3.801   1.837   0.000  0.00  0.00     0.123 C 
ATOM     21  C   UNL d   1      -4.494   2.284   0.000  0.00  0.00     0.029 C 
ENDBRANCH  19  20
ENDBRANCH  16  19
ENDBRANCH  12  13
ENDBRANCH   1  12
TORSDOF 5
