REMARK  4 active torsions:
REMARK  status: ('A' for Active; 'I' for Inactive)
REMARK    1  A    between atoms: C_7  and  C_1 
REMARK    2  A    between atoms: N_8  and  C_7 
REMARK    3  A    between atoms: C_11  and  N_8 
REMARK    4  A    between atoms: O_13  and  C_12 
ROOT
ATOM      1  C   UNL d   1      -1.069  -1.200   0.000  0.00  0.00     0.145 A 
ATOM      2  C   UNL d   1      -0.358  -0.790   0.000  0.00  0.00     0.305 A 
ATOM      3  C   UNL d   1      -1.069  -2.030   0.000  0.00  0.00     0.305 A 
ATOM      4  O   UNL d   1      -0.358  -2.439   0.000  0.00  0.00    -0.269 OA
ATOM      5  O   UNL d   1       0.347  -1.200   0.000  0.00  0.00    -0.269 OA
ATOM      6  C   UNL d   1       0.347  -2.030   0.000  0.00  0.00     0.242 A 
ATOM      7  O   UNL d   1      -1.802  -2.457   0.000  0.00  0.00    -0.259 OA
ATOM      8  O   UNL d   1      -0.358   0.045   0.000  0.00  0.00    -0.259 OA
ATOM      9  C   UNL d   1       0.552  -2.821   0.000  0.00  0.00     0.035 A 
ATOM     10  C   UNL d   1       0.955  -1.473   0.000  0.00  0.00     0.035 A 
ATOM     11  C   UNL d   1       1.729  -1.712   0.000  0.00  0.00     0.001 A 
ATOM     12  C   UNL d   1       1.348  -3.054   0.000  0.00  0.00     0.001 A 
ATOM     13  C   UNL d   1       1.933  -2.479   0.000  0.00  0.00    -0.000 A 
ENDROOT
BRANCH   1  14
ATOM     14  C   UNL d   1      -1.774  -0.756   0.000  0.00  0.00     0.110 C 
BRANCH  14  15
ATOM     15  N   UNL d   1      -2.502  -1.160   0.000  0.00  0.00    -0.242 NA
BRANCH  15  16
ATOM     16  C   UNL d   1      -3.207  -0.722   0.000  0.00  0.00     0.104 A 
ATOM     17  C   UNL d   1      -3.935  -1.115   0.000  0.00  0.00     0.112 A 
ATOM     18  C   UNL d   1      -4.640  -0.682   0.000  0.00  0.00     0.026 A 
ATOM     19  C   UNL d   1      -4.634   0.153   0.000  0.00  0.00     0.002 A 
ATOM     20  C   UNL d   1      -3.884   0.523   0.000  0.00  0.00     0.002 A 
ATOM     21  C   UNL d   1      -3.184   0.097   0.000  0.00  0.00     0.021 A 
BRANCH  17  22
ATOM     22  O   UNL d   1      -3.958  -1.950   0.000  0.00  0.00    -0.327 OA
ATOM     23  C   UNL d   1      -3.270  -2.371   0.000  0.00  0.00     0.181 C 
ENDBRANCH  17  22
ENDBRANCH  15  16
ENDBRANCH  14  15
ENDBRANCH   1  14
TORSDOF 4
