REMARK  3 active torsions:
REMARK  status: ('A' for Active; 'I' for Inactive)
REMARK    1  A    between atoms: C_7  and  C_1 
REMARK    2  A    between atoms: C_12  and  C_6 
REMARK       I    between atoms: N_10  and  C_7 
REMARK    3  A    between atoms: C_13  and  N_10 
ROOT
ATOM      1  C   UNL d   1       0.368  -0.117   0.000  0.00  0.00     0.108 A 
ATOM      2  C   UNL d   1      -0.876   0.317   0.000  0.00  0.00     0.046 A 
ATOM      3  C   UNL d   1      -0.093   0.559   0.000  0.00  0.00     0.116 A 
ATOM      4  C   UNL d   1      -0.876  -0.508   0.000  0.00  0.00     0.112 A 
ATOM      5  S   UNL d   1      -0.093  -0.760   0.000  0.00  0.00    -0.061 SA
ATOM      6  C   UNL d   1      -1.589   0.727   0.000  0.00  0.00     0.028 A 
ATOM      7  N   UNL d   1      -1.589  -0.928   0.000  0.00  0.00    -0.239 NA
ATOM      8  C   UNL d   1      -2.307   0.317   0.000  0.00  0.00     0.020 A 
ATOM      9  C   UNL d   1      -2.307  -0.508   0.000  0.00  0.00     0.082 A 
ATOM     10  N   UNL d   1       0.186   1.342   0.000  0.00  0.00    -0.147 N 
ATOM     11  C   UNL d   1      -3.020   0.727   0.000  0.00  0.00     0.002 A 
ATOM     12  C   UNL d   1      -3.020  -0.928   0.000  0.00  0.00     0.019 A 
ATOM     13  C   UNL d   1      -3.743   0.317   0.000  0.00  0.00     0.000 A 
ATOM     14  C   UNL d   1      -3.743  -0.508   0.000  0.00  0.00     0.002 A 
ENDROOT
BRANCH   1  15
ATOM     15  C   UNL d   1       1.193  -0.154   0.000  0.00  0.00     0.287 C 
ATOM     16  N   UNL d   1       1.585  -0.872   0.000  0.00  0.00    -0.208 NA
ATOM     17  O   UNL d   1       1.627   0.555   0.000  0.00  0.00    -0.265 OA
BRANCH  16  18
ATOM     18  C   UNL d   1       2.405  -0.895   0.000  0.00  0.00     0.085 A 
ATOM     19  C   UNL d   1       2.801  -1.622   0.000  0.00  0.00     0.018 A 
ATOM     20  C   UNL d   1       2.438  -2.335   0.000  0.00  0.00     0.002 C 
ATOM     21  C   UNL d   1       3.636  -1.627   0.000  0.00  0.00     0.002 A 
ATOM     22  C   UNL d   1       4.069  -0.914   0.000  0.00  0.00     0.000 A 
ATOM     23  C   UNL d   1       3.654  -0.201   0.000  0.00  0.00     0.002 A 
ATOM     24  C   UNL d   1       2.829  -0.186   0.000  0.00  0.00     0.019 A 
ENDBRANCH  16  18
ENDBRANCH   1  15
BRANCH   6  25
ATOM     25  C   UNL d   1      -1.589   1.547   0.000  0.00  0.00     0.100 A 
ATOM     26  O   UNL d   1      -0.951   2.065   0.000  0.00  0.00    -0.305 OA
ATOM     27  C   UNL d   1      -1.254   2.834   0.000  0.00  0.00     0.123 A 
ATOM     28  C   UNL d   1      -2.051   2.792   0.000  0.00  0.00     0.029 A 
ATOM     29  C   UNL d   1      -2.275   2.009   0.000  0.00  0.00     0.027 A 
ENDBRANCH   6  25
TORSDOF 3
