REMARK  6 active torsions:
REMARK  status: ('A' for Active; 'I' for Inactive)
REMARK    1  A    between atoms: C_8  and  C_1 
REMARK    2  A    between atoms: S_10  and  C_2 
REMARK    3  A    between atoms: C_7  and  C_4 
REMARK    4  A    between atoms: C_23  and  S_10 
REMARK    5  A    between atoms: C_16  and  C_23 
REMARK    6  A    between atoms: O_25  and  C_16 
ROOT
ATOM      1  C   UNL d   1      -1.022  -0.653   0.000  0.00  0.00     0.045 A 
ATOM      2  C   UNL d   1      -1.022  -1.513   0.000  0.00  0.00     0.112 A 
ATOM      3  C   UNL d   1      -2.457  -0.670   0.000  0.00  0.00     0.057 A 
ATOM      4  C   UNL d   1      -1.742  -0.251   0.000  0.00  0.00     0.008 A 
ATOM      5  C   UNL d   1      -2.457  -1.497   0.000  0.00  0.00     0.085 A 
ATOM      6  N   UNL d   1      -1.742  -1.915   0.000  0.00  0.00    -0.239 NA
ATOM      7  C   UNL d   1      -3.166  -0.251   0.000  0.00  0.00     0.197 A 
ATOM      8  O   UNL d   1      -3.166   0.581   0.000  0.00  0.00    -0.286 OA
ATOM      9  C   UNL d   1      -3.166  -1.915   0.000  0.00  0.00     0.019 A 
ATOM     10  C   UNL d   1      -3.887  -0.653   0.000  0.00  0.00     0.042 A 
ATOM     11  C   UNL d   1      -3.887  -1.513   0.000  0.00  0.00     0.005 A 
ENDROOT
BRANCH   4  12
ATOM     12  C   UNL d   1      -1.742   0.581   0.000  0.00  0.00     0.002 A 
ATOM     13  C   UNL d   1      -1.033   1.000   0.000  0.00  0.00     0.026 A 
ATOM     14  C   UNL d   1      -1.033   1.826   0.000  0.00  0.00     0.119 A 
ATOM     15  O   UNL d   1      -0.419   2.390   0.000  0.00  0.00    -0.300 OA
ATOM     16  C   UNL d   1      -1.742   2.239   0.000  0.00  0.00     0.119 A 
ATOM     17  C   UNL d   1      -0.754   3.127   0.000  0.00  0.00     0.304 A 
ATOM     18  O   UNL d   1      -1.558   3.043   0.000  0.00  0.00    -0.300 OA
ATOM     19  C   UNL d   1      -2.496   1.804   0.000  0.00  0.00     0.026 A 
ATOM     20  C   UNL d   1      -2.474   0.983   0.000  0.00  0.00     0.002 A 
ENDBRANCH   4  12
BRANCH   1  21
ATOM     21  C   UNL d   1      -0.296  -0.201   0.000  0.00  0.00     0.124 C 
ATOM     22  N   UNL d   1       0.424  -0.586   0.000  0.00  0.00    -0.146 N 
ENDBRANCH   1  21
BRANCH   2  23
ATOM     23  S   UNL d   1      -0.296  -1.966   0.000  0.00  0.00    -0.062 SA
BRANCH  23  24
ATOM     24  C   UNL d   1       0.424  -1.580   0.000  0.00  0.00     0.105 C 
BRANCH  24  25
ATOM     25  C   UNL d   1       1.123  -2.016   0.000  0.00  0.00     0.303 C 
ATOM     26  O   UNL d   1       1.849  -1.631   0.000  0.00  0.00    -0.259 OA
BRANCH  25  27
ATOM     27  O   UNL d   1       1.095  -2.837   0.000  0.00  0.00    -0.295 OA
ATOM     28  C   UNL d   1       0.374  -3.239   0.000  0.00  0.00     0.185 C 
ENDBRANCH  25  27
ENDBRANCH  24  25
ENDBRANCH  23  24
ENDBRANCH   2  23
TORSDOF 6
