REMARK  2 active torsions:
REMARK  status: ('A' for Active; 'I' for Inactive)
REMARK    1  A    between atoms: C_9  and  N_1 
REMARK    2  A    between atoms: C_8  and  N_2 
ROOT
ATOM      1  N   UNL d   1      -0.226  -1.370   0.000  0.00  0.00    -0.208 N 
ATOM      2  N   UNL d   1      -0.476  -0.581   0.000  0.00  0.00    -0.208 N 
ATOM      3  C   UNL d   1       0.188  -0.092   0.000  0.00  0.00     0.284 A 
ATOM      4  C   UNL d   1       0.601  -1.370   0.000  0.00  0.00     0.284 A 
ATOM      5  C   UNL d   1       0.856  -0.581   0.000  0.00  0.00     0.125 A 
ATOM      6  O   UNL d   1       0.188   0.727   0.000  0.00  0.00    -0.265 OA
ATOM      7  O   UNL d   1       1.090  -2.042   0.000  0.00  0.00    -0.265 OA
ENDROOT
BRANCH   1   8
ATOM      8  C   UNL d   1      -0.710  -2.034   0.000  0.00  0.00     0.085 A 
ATOM      9  C   UNL d   1      -1.537  -1.946   0.000  0.00  0.00     0.019 A 
ATOM     10  C   UNL d   1      -2.025  -2.610   0.000  0.00  0.00     0.002 A 
ATOM     11  C   UNL d   1      -1.687  -3.374   0.000  0.00  0.00     0.000 A 
ATOM     12  C   UNL d   1      -0.860  -3.458   0.000  0.00  0.00     0.002 A 
ATOM     13  C   UNL d   1      -0.376  -2.785   0.000  0.00  0.00     0.019 A 
ENDBRANCH   1   8
BRANCH   2  14
ATOM     14  C   UNL d   1      -1.261  -0.330   0.000  0.00  0.00     0.085 A 
ATOM     15  C   UNL d   1      -1.875  -0.881   0.000  0.00  0.00     0.019 A 
ATOM     16  C   UNL d   1      -2.656  -0.631   0.000  0.00  0.00     0.002 A 
ATOM     17  C   UNL d   1      -2.831   0.184   0.000  0.00  0.00     0.000 A 
ATOM     18  C   UNL d   1      -2.217   0.735   0.000  0.00  0.00     0.002 A 
ATOM     19  C   UNL d   1      -1.436   0.476   0.000  0.00  0.00     0.019 A 
ENDBRANCH   2  14
TORSDOF 2
