REMARK  5 active torsions:
REMARK  status: ('A' for Active; 'I' for Inactive)
REMARK    1  A    between atoms: C_11  and  C_3 
REMARK    2  A    between atoms: C_14  and  C_7 
REMARK    3  A    between atoms: O_18  and  C_11 
REMARK    4  A    between atoms: C_16  and  C_20 
REMARK    5  A    between atoms: C_20  and  O_18 
ROOT
ATOM      1  C   UNL d   1       1.285  -3.363   0.000  0.00  0.00     0.172 A 
ATOM      2  C   UNL d   1       1.294  -2.542   0.000  0.00  0.00     0.094 A 
ATOM      3  C   UNL d   1       2.716  -2.542   0.000  0.00  0.00     0.081 A 
ATOM      4  C   UNL d   1       0.576  -2.127   0.000  0.00  0.00     0.286 A 
ATOM      5  N   UNL d   1       0.576  -3.773   0.000  0.00  0.00    -0.172 NA
ATOM      6  N   UNL d   1      -0.133  -2.542   0.000  0.00  0.00    -0.152 NA
ATOM      7  C   UNL d   1       2.007  -2.131   0.000  0.00  0.00     0.014 A 
ATOM      8  C   UNL d   1       2.716  -3.371   0.000  0.00  0.00     0.088 A 
ATOM      9  N   UNL d   1       1.994  -3.781   0.000  0.00  0.00    -0.226 NA
ATOM     10  C   UNL d   1      -0.133  -3.363   0.000  0.00  0.00     0.373 A 
ATOM     11  O   UNL d   1       0.576  -1.298   0.000  0.00  0.00    -0.265 OA
ATOM     12  O   UNL d   1      -0.846  -3.781   0.000  0.00  0.00    -0.242 OA
ATOM     13  C   UNL d   1       3.425  -3.786   0.000  0.00  0.00     0.021 C 
ENDROOT
BRANCH   3  14
ATOM     14  C   UNL d   1       3.433  -2.139   0.000  0.00  0.00     0.302 C 
ATOM     15  O   UNL d   1       3.437  -1.310   0.000  0.00  0.00    -0.259 OA
BRANCH  14  16
ATOM     16  O   UNL d   1       4.146  -2.554   0.000  0.00  0.00    -0.271 OA
BRANCH  16  17
ATOM     17  C   UNL d   1       4.864  -2.144   0.000  0.00  0.00     0.126 C 
BRANCH  17  18
ATOM     18  C   UNL d   1       5.577  -2.562   0.000  0.00  0.00     0.027 C 
ATOM     19  C   UNL d   1       5.577  -3.384   0.000  0.00  0.00     0.002 C 
ENDBRANCH  17  18
ENDBRANCH  16  17
ENDBRANCH  14  16
ENDBRANCH   3  14
BRANCH   7  20
ATOM     20  C   UNL d   1       2.007  -1.306   0.000  0.00  0.00     0.001 A 
ATOM     21  C   UNL d   1       2.724  -0.896   0.000  0.00  0.00     0.000 A 
ATOM     22  C   UNL d   1       2.728  -0.066   0.000  0.00  0.00     0.000 A 
ATOM     23  C   UNL d   1       2.015   0.344   0.000  0.00  0.00     0.000 A 
ATOM     24  C   UNL d   1       1.298  -0.066   0.000  0.00  0.00     0.000 A 
ATOM     25  C   UNL d   1       1.298  -0.896   0.000  0.00  0.00     0.000 A 
ENDBRANCH   7  20
TORSDOF 5
