REMARK  4 active torsions:
REMARK  status: ('A' for Active; 'I' for Inactive)
REMARK    1  A    between atoms: S_2  and  N_1 
REMARK    2  A    between atoms: C_6  and  S_2 
REMARK    3  A    between atoms: C_10  and  C_6 
REMARK    4  A    between atoms: C_11  and  C_10 
ROOT
ATOM      1  S   UNL d   1       2.926  -1.129   0.000  0.00  0.00     0.287 S 
ATOM      2  O   UNL d   1       2.505  -0.417   0.000  0.00  0.00    -0.198 OA
ATOM      3  O   UNL d   1       3.330  -1.842   0.000  0.00  0.00    -0.198 OA
ENDROOT
BRANCH   1   4
ATOM      4  N   UNL d   1       3.642  -0.729   0.000  0.00  0.00    -0.152 N 
ATOM      5  N   UNL d   1       3.730   0.096   0.000  0.00  0.00    -0.155 NA
ATOM      6  C   UNL d   1       4.543   0.258   0.000  0.00  0.00     0.104 A 
ATOM      7  C   UNL d   1       4.888   1.008   0.000  0.00  0.00     0.022 C 
ATOM      8  C   UNL d   1       4.943  -0.467   0.000  0.00  0.00     0.041 A 
ATOM      9  C   UNL d   1       4.388  -1.075   0.000  0.00  0.00     0.096 A 
ATOM     10  C   UNL d   1       4.551  -1.880   0.000  0.00  0.00     0.022 C 
ENDBRANCH   1   4
BRANCH   1  11
ATOM     11  C   UNL d   1       2.213  -1.550   0.000  0.00  0.00     0.117 C 
BRANCH  11  12
ATOM     12  C   UNL d   1       1.492  -1.138   0.000  0.00  0.00     0.014 C 
BRANCH  12  13
ATOM     13  C   UNL d   1       0.779  -1.550   0.000  0.00  0.00     0.001 A 
ATOM     14  C   UNL d   1       0.075  -1.142   0.000  0.00  0.00     0.000 A 
ATOM     15  C   UNL d   1      -0.638  -1.554   0.000  0.00  0.00     0.000 A 
ATOM     16  C   UNL d   1      -0.638  -2.380   0.000  0.00  0.00     0.000 A 
ATOM     17  C   UNL d   1       0.079  -2.788   0.000  0.00  0.00     0.000 A 
ATOM     18  C   UNL d   1       0.792  -2.375   0.000  0.00  0.00     0.000 A 
ENDBRANCH  12  13
ENDBRANCH  11  12
ENDBRANCH   1  11
TORSDOF 4
