REMARK  6 active torsions:
REMARK  status: ('A' for Active; 'I' for Inactive)
REMARK    1  A    between atoms: S_10  and  C_5 
REMARK    2  A    between atoms: C_11  and  N_8 
REMARK    3  A    between atoms: C_15  and  S_10 
REMARK    4  A    between atoms: C_16  and  C_11 
REMARK    5  A    between atoms: C_17  and  C_15 
REMARK    6  A    between atoms: C_23  and  C_16 
ROOT
ATOM      1  C   UNL d   1       0.733  -2.010   0.000  0.00  0.00     0.174 A 
ATOM      2  C   UNL d   1       0.733  -1.181   0.000  0.00  0.00     0.159 A 
ATOM      3  N   UNL d   1       1.512  -2.261   0.000  0.00  0.00    -0.203 NA
ATOM      4  N   UNL d   1       0.013  -2.412   0.000  0.00  0.00    -0.239 N 
ATOM      5  C   UNL d   1       1.985  -1.583   0.000  0.00  0.00     0.181 A 
ATOM      6  C   UNL d   1      -0.724  -2.010   0.000  0.00  0.00     0.358 A 
ATOM      7  N   UNL d   1      -0.724  -1.181   0.000  0.00  0.00    -0.152 NA
ATOM      8  N   UNL d   1       1.570  -0.859   0.000  0.00  0.00    -0.279 N 
ATOM      9  C   UNL d   1       0.013  -0.754   0.000  0.00  0.00     0.302 A 
ATOM     10  O   UNL d   1      -1.457  -2.412   0.000  0.00  0.00    -0.244 OA
ATOM     11  O   UNL d   1       0.013   0.075   0.000  0.00  0.00    -0.263 OA
ATOM     12  C   UNL d   1       0.013  -3.241   0.000  0.00  0.00     0.105 C 
ENDROOT
BRANCH   5  13
ATOM     13  S   UNL d   1       2.780  -1.796   0.000  0.00  0.00    -0.049 SA
BRANCH  13  14
ATOM     14  C   UNL d   1       3.195  -2.513   0.000  0.00  0.00     0.038 C 
BRANCH  14  15
ATOM     15  C   UNL d   1       4.020  -2.513   0.000  0.00  0.00     0.007 A 
ATOM     16  C   UNL d   1       4.426  -3.229   0.000  0.00  0.00     0.001 A 
ATOM     17  C   UNL d   1       5.251  -3.229   0.000  0.00  0.00     0.000 A 
ATOM     18  C   UNL d   1       5.666  -2.513   0.000  0.00  0.00     0.000 A 
ATOM     19  C   UNL d   1       5.251  -1.796   0.000  0.00  0.00     0.000 A 
ATOM     20  C   UNL d   1       6.495  -2.513   0.000  0.00  0.00     0.000 C 
ATOM     21  C   UNL d   1       4.426  -1.801   0.000  0.00  0.00     0.001 A 
ENDBRANCH  14  15
ENDBRANCH  13  14
ENDBRANCH   5  13
BRANCH   8  22
ATOM     22  C   UNL d   1       1.976  -0.142   0.000  0.00  0.00     0.082 C 
BRANCH  22  23
ATOM     23  C   UNL d   1       2.801  -0.130   0.000  0.00  0.00     0.019 C 
BRANCH  23  24
ATOM     24  C   UNL d   1       3.208   0.586   0.000  0.00  0.00     0.002 C 
ATOM     25  C   UNL d   1       4.033   0.599   0.000  0.00  0.00     0.000 C 
ATOM     26  C   UNL d   1       2.793   1.302   0.000  0.00  0.00     0.000 C 
ENDBRANCH  23  24
ENDBRANCH  22  23
ENDBRANCH   8  22
TORSDOF 6
