REMARK  3 active torsions:
REMARK  status: ('A' for Active; 'I' for Inactive)
REMARK    1  A    between atoms: S_11  and  C_1 
REMARK    2  A    between atoms: C_7  and  C_13 
REMARK    3  A    between atoms: C_13  and  S_11 
ROOT
ATOM      1  C   UNL d   1       1.901   1.136   0.000  0.00  0.00     0.141 A 
ATOM      2  N   UNL d   1       1.652   1.922   0.000  0.00  0.00    -0.232 NA
ATOM      3  S   UNL d   1       1.240   0.657   0.000  0.00  0.00    -0.060 SA
ATOM      4  C   UNL d   1       0.828   1.931   0.000  0.00  0.00     0.088 A 
ATOM      5  C   UNL d   1       0.566   1.136   0.000  0.00  0.00     0.049 A 
ATOM      6  C   UNL d   1       0.275   2.542   0.000  0.00  0.00     0.020 A 
ATOM      7  C   UNL d   1      -0.237   0.969   0.000  0.00  0.00     0.008 A 
ATOM      8  C   UNL d   1      -0.795   1.581   0.000  0.00  0.00     0.001 A 
ATOM      9  C   UNL d   1      -0.537   2.372   0.000  0.00  0.00     0.002 A 
ENDROOT
BRANCH   1  10
ATOM     10  S   UNL d   1       2.688   0.882   0.000  0.00  0.00    -0.057 SA
BRANCH  10  11
ATOM     11  C   UNL d   1       2.858   0.075   0.000  0.00  0.00     0.084 C 
BRANCH  11  12
ATOM     12  C   UNL d   1       3.636  -0.179   0.000  0.00  0.00     0.212 A 
ATOM     13  O   UNL d   1       3.894  -0.961   0.000  0.00  0.00    -0.259 OA
ATOM     14  C   UNL d   1       4.718  -0.961   0.000  0.00  0.00     0.262 A 
ATOM     15  S   UNL d   1       5.197  -1.627   0.000  0.00  0.00    -0.029 SA
ATOM     16  N   UNL d   1       4.972  -0.179   0.000  0.00  0.00    -0.109 NA
ATOM     17  N   UNL d   1       4.306   0.308   0.000  0.00  0.00    -0.119 NA
ENDBRANCH  11  12
ENDBRANCH  10  11
ENDBRANCH   1  10
TORSDOF 3
