REMARK  5 active torsions:
REMARK  status: ('A' for Active; 'I' for Inactive)
REMARK    1  A    between atoms: S_10  and  C_5 
REMARK    2  A    between atoms: C_14  and  N_9 
REMARK    3  A    between atoms: C_17  and  S_10 
REMARK    4  A    between atoms: C_15  and  C_14 
REMARK    5  A    between atoms: C_19  and  C_17 
ROOT
ATOM      1  C   UNL d   1       0.717  -1.392   0.000  0.00  0.00     0.174 A 
ATOM      2  N   UNL d   1       1.492  -1.642   0.000  0.00  0.00    -0.203 NA
ATOM      3  C   UNL d   1       0.717  -0.567   0.000  0.00  0.00     0.159 A 
ATOM      4  N   UNL d   1       0.004  -1.792   0.000  0.00  0.00    -0.239 N 
ATOM      5  C   UNL d   1       1.967  -0.967   0.000  0.00  0.00     0.181 A 
ATOM      6  C   UNL d   1      -0.733  -1.392   0.000  0.00  0.00     0.358 A 
ATOM      7  N   UNL d   1      -0.733  -0.567   0.000  0.00  0.00    -0.152 NA
ATOM      8  C   UNL d   1       0.004  -0.142   0.000  0.00  0.00     0.302 A 
ATOM      9  N   UNL d   1       1.554  -0.250   0.000  0.00  0.00    -0.279 N 
ATOM     10  O   UNL d   1      -1.458  -1.792   0.000  0.00  0.00    -0.244 OA
ATOM     11  O   UNL d   1       0.004   0.683   0.000  0.00  0.00    -0.263 OA
ATOM     12  C   UNL d   1       0.004  -2.617   0.000  0.00  0.00     0.105 C 
ENDROOT
BRANCH   5  13
ATOM     13  S   UNL d   1       2.754  -1.179   0.000  0.00  0.00    -0.049 SA
BRANCH  13  14
ATOM     14  C   UNL d   1       3.167  -1.892   0.000  0.00  0.00     0.038 C 
BRANCH  14  15
ATOM     15  C   UNL d   1       3.992  -1.892   0.000  0.00  0.00     0.007 A 
ATOM     16  C   UNL d   1       4.404  -1.179   0.000  0.00  0.00     0.003 A 
ATOM     17  C   UNL d   1       5.225  -1.175   0.000  0.00  0.00     0.030 A 
ATOM     18  C   UNL d   1       5.642  -1.892   0.000  0.00  0.00     0.140 A 
ATOM     19  C   UNL d   1       5.229  -2.604   0.000  0.00  0.00     0.030 A 
ATOM     20  F   UNL d   1       6.467  -1.892   0.000  0.00  0.00    -0.204 F 
ATOM     21  C   UNL d   1       4.404  -2.604   0.000  0.00  0.00     0.003 A 
ENDBRANCH  14  15
ENDBRANCH  13  14
ENDBRANCH   5  13
BRANCH   9  22
ATOM     22  C   UNL d   1       1.817   0.525   0.000  0.00  0.00     0.082 C 
BRANCH  22  23
ATOM     23  C   UNL d   1       2.629   0.675   0.000  0.00  0.00     0.019 C 
ATOM     24  C   UNL d   1       3.163   0.050   0.000  0.00  0.00     0.002 C 
ENDBRANCH  22  23
ENDBRANCH   9  22
TORSDOF 5
