REMARK  3 active torsions:
REMARK  status: ('A' for Active; 'I' for Inactive)
REMARK    1  A    between atoms: C_6  and  C_1 
REMARK    2  A    between atoms: C_8  and  C_3 
REMARK    3  A    between atoms: C_9  and  C_4 
ROOT
ATOM      1  C   UNL d   1       1.605  -2.107   0.000  0.00  0.00     0.306 A 
ATOM      2  N   UNL d   1       0.896  -2.518   0.000  0.00  0.00    -0.152 NA
ATOM      3  C   UNL d   1       1.605  -1.282   0.000  0.00  0.00     0.114 A 
ATOM      4  C   UNL d   1       0.896  -0.863   0.000  0.00  0.00     0.094 A 
ATOM      5  C   UNL d   1       0.187  -2.107   0.000  0.00  0.00     0.371 A 
ATOM      6  N   UNL d   1       0.187  -1.282   0.000  0.00  0.00    -0.191 NA
ATOM      7  O   UNL d   1      -0.531  -2.518   0.000  0.00  0.00    -0.242 OA
ATOM      8  O   UNL d   1       2.318  -1.692   0.000  0.00  0.00    -0.266 OA
ENDROOT
BRANCH   4   9
ATOM      9  C   UNL d   1       0.896  -0.042   0.000  0.00  0.00     0.018 A 
ATOM     10  C   UNL d   1       1.609   0.373   0.000  0.00  0.00     0.004 A 
ATOM     11  C   UNL d   1       1.609   1.203   0.000  0.00  0.00     0.030 A 
ATOM     12  C   UNL d   1       0.900   1.613   0.000  0.00  0.00     0.140 A 
ATOM     13  C   UNL d   1       0.178   1.194   0.000  0.00  0.00     0.030 A 
ATOM     14  F   UNL d   1       0.900   2.434   0.000  0.00  0.00    -0.204 F 
ATOM     15  C   UNL d   1       0.187   0.373   0.000  0.00  0.00     0.004 A 
ENDBRANCH   4   9
BRANCH   3  16
ATOM     16  C   UNL d   1       2.318  -0.871   0.000  0.00  0.00     0.202 C 
ATOM     17  O   UNL d   1       2.327  -0.042   0.000  0.00  0.00    -0.286 OA
ATOM     18  C   UNL d   1       3.036  -1.286   0.000  0.00  0.00     0.045 C 
ENDBRANCH   3  16
BRANCH   1  19
ATOM     19  C   UNL d   1       1.821  -2.903   0.000  0.00  0.00     0.470 C 
ATOM     20  F   UNL d   1       1.995  -3.625   0.000  0.00  0.00    -0.162 F 
ATOM     21  F   UNL d   1       1.306  -3.596   0.000  0.00  0.00    -0.162 F 
ATOM     22  F   UNL d   1       2.600  -3.260   0.000  0.00  0.00    -0.162 F 
ENDBRANCH   1  19
TORSDOF 3
