REMARK  5 active torsions:
REMARK  status: ('A' for Active; 'I' for Inactive)
REMARK    1  A    between atoms: C_10  and  N_6 
REMARK    2  A    between atoms: S_13  and  C_9 
REMARK    3  A    between atoms: C_14  and  C_10 
REMARK    4  A    between atoms: C_22  and  S_13 
REMARK    5  A    between atoms: C_24  and  C_22 
ROOT
ATOM      1  C   UNL d   1       5.062  -4.870   0.000  0.00  0.00     0.174 A 
ATOM      2  C   UNL d   1       5.062  -4.046   0.000  0.00  0.00     0.158 A 
ATOM      3  N   UNL d   1       5.836  -5.124   0.000  0.00  0.00    -0.203 NA
ATOM      4  N   UNL d   1       4.346  -5.274   0.000  0.00  0.00    -0.240 N 
ATOM      5  N   UNL d   1       3.613  -4.046   0.000  0.00  0.00    -0.223 N 
ATOM      6  N   UNL d   1       5.894  -3.725   0.000  0.00  0.00    -0.279 N 
ATOM      7  C   UNL d   1       3.613  -4.870   0.000  0.00  0.00     0.343 A 
ATOM      8  C   UNL d   1       4.346  -3.626   0.000  0.00  0.00     0.287 A 
ATOM      9  C   UNL d   1       6.310  -4.437   0.000  0.00  0.00     0.181 A 
ATOM     10  O   UNL d   1       2.885  -5.274   0.000  0.00  0.00    -0.245 OA
ATOM     11  O   UNL d   1       4.346  -2.801   0.000  0.00  0.00    -0.265 OA
ATOM     12  C   UNL d   1       4.346  -6.098   0.000  0.00  0.00     0.105 C 
ATOM     13  C   UNL d   1       2.897  -3.626   0.000  0.00  0.00     0.107 C 
ENDROOT
BRANCH   6  14
ATOM     14  C   UNL d   1       6.161  -2.947   0.000  0.00  0.00     0.082 C 
BRANCH  14  15
ATOM     15  C   UNL d   1       6.972  -2.797   0.000  0.00  0.00     0.018 A 
ATOM     16  C   UNL d   1       7.247  -2.023   0.000  0.00  0.00     0.002 A 
ATOM     17  C   UNL d   1       8.055  -1.865   0.000  0.00  0.00     0.000 A 
ATOM     18  C   UNL d   1       8.267  -1.066   0.000  0.00  0.00     0.000 C 
ATOM     19  C   UNL d   1       8.596  -2.498   0.000  0.00  0.00     0.000 A 
ATOM     20  C   UNL d   1       8.317  -3.276   0.000  0.00  0.00     0.000 A 
ATOM     21  C   UNL d   1       7.509  -3.426   0.000  0.00  0.00     0.002 A 
ENDBRANCH  14  15
ENDBRANCH   6  14
BRANCH   9  22
ATOM     22  S   UNL d   1       7.135  -4.437   0.000  0.00  0.00    -0.046 SA
BRANCH  22  23
ATOM     23  C   UNL d   1       7.846  -4.849   0.000  0.00  0.00     0.084 C 
BRANCH  23  24
ATOM     24  C   UNL d   1       8.558  -4.437   0.000  0.00  0.00     0.241 C 
ATOM     25  O   UNL d   1       9.270  -4.849   0.000  0.00  0.00    -0.283 OA
ENDBRANCH  23  24
ENDBRANCH  22  23
ENDBRANCH   9  22
TORSDOF 5
