REMARK  4 active torsions:
REMARK  status: ('A' for Active; 'I' for Inactive)
REMARK    1  A    between atoms: N_2  and  S_1 
REMARK    2  A    between atoms: C_3  and  S_1 
REMARK    3  A    between atoms: O_19  and  C_14 
REMARK    4  A    between atoms: O_20  and  C_17 
ROOT
ATOM      1  S   UNL d   1       2.825   2.713   0.000  0.00  0.00     0.275 S 
ATOM      2  O   UNL d   1       1.929   2.727   0.000  0.00  0.00    -0.199 OA
ATOM      3  O   UNL d   1       3.726   2.697   0.000  0.00  0.00    -0.199 OA
ENDROOT
BRANCH   1   4
ATOM      4  N   UNL d   1       2.825   3.606   0.000  0.00  0.00    -0.212 N 
ATOM      5  C   UNL d   1       2.129   4.018   0.000  0.00  0.00     0.094 A 
ATOM      6  C   UNL d   1       2.129   4.834   0.000  0.00  0.00     0.100 A 
ATOM      7  C   UNL d   1       1.427   3.606   0.000  0.00  0.00     0.020 A 
ATOM      8  C   UNL d   1       1.422   5.240   0.000  0.00  0.00     0.021 A 
ATOM      9  N   UNL d   1       3.534   4.834   0.000  0.00  0.00    -0.223 NA
ATOM     10  C   UNL d   1       0.712   4.834   0.000  0.00  0.00     0.002 A 
ATOM     11  C   UNL d   1       0.712   4.018   0.000  0.00  0.00     0.002 A 
ATOM     12  C   UNL d   1       0.000   5.240   0.000  0.00  0.00     0.000 C 
ATOM     13  C   UNL d   1       0.008   3.603   0.000  0.00  0.00     0.000 C 
ATOM     14  C   UNL d   1       3.534   4.018   0.000  0.00  0.00     0.193 A 
ENDBRANCH   1   4
BRANCH   1  15
ATOM     15  C   UNL d   1       2.822   1.818   0.000  0.00  0.00     0.128 A 
ATOM     16  C   UNL d   1       3.598   1.355   0.000  0.00  0.00     0.039 A 
ATOM     17  C   UNL d   1       3.587   0.460   0.000  0.00  0.00     0.095 A 
ATOM     18  C   UNL d   1       2.809   0.024   0.000  0.00  0.00     0.026 A 
ATOM     19  C   UNL d   1       2.036   0.478   0.000  0.00  0.00     0.027 A 
ATOM     20  C   UNL d   1       2.052   1.371   0.000  0.00  0.00     0.106 A 
BRANCH  17  21
ATOM     21  O   UNL d   1       4.348   0.000   0.000  0.00  0.00    -0.328 OA
ATOM     22  C   UNL d   1       5.137   0.446   0.000  0.00  0.00     0.181 C 
ENDBRANCH  17  21
BRANCH  20  23
ATOM     23  O   UNL d   1       1.278   1.834   0.000  0.00  0.00    -0.327 OA
ATOM     24  C   UNL d   1       0.497   1.385   0.000  0.00  0.00     0.181 C 
ENDBRANCH  20  23
ENDBRANCH   1  15
TORSDOF 4
