REMARK  4 active torsions:
REMARK  status: ('A' for Active; 'I' for Inactive)
REMARK    1  A    between atoms: C_8  and  C_1 
REMARK    2  A    between atoms: C_3  and  C_2 
REMARK    3  A    between atoms: O_14  and  C_8 
REMARK    4  A    between atoms: C_16  and  O_14 
ROOT
ATOM      1  C   UNL d   1      -2.334   0.702   0.000  0.00  0.00     0.091 A 
ATOM      2  C   UNL d   1      -3.130   0.920   0.000  0.00  0.00     0.036 A 
ATOM      3  C   UNL d   1      -2.281  -0.124   0.000  0.00  0.00     0.138 A 
ATOM      4  C   UNL d   1      -3.555   0.212   0.000  0.00  0.00     0.039 A 
ATOM      5  S   UNL d   1      -3.042  -0.407   0.000  0.00  0.00    -0.065 SA
ATOM      6  N   UNL d   1      -1.574  -0.572   0.000  0.00  0.00    -0.141 N 
ENDROOT
BRANCH   2   7
ATOM      7  C   UNL d   1      -3.354   1.692   0.000  0.00  0.00     0.101 A 
ATOM      8  O   UNL d   1      -3.920   2.258   0.000  0.00  0.00    -0.307 OA
ATOM      9  C   UNL d   1      -3.555   2.965   0.000  0.00  0.00     0.100 A 
ATOM     10  C   UNL d   1      -3.956   3.696   0.000  0.00  0.00     0.027 C 
ATOM     11  C   UNL d   1      -2.759   2.877   0.000  0.00  0.00     0.027 A 
ATOM     12  C   UNL d   1      -2.647   2.052   0.000  0.00  0.00     0.027 A 
ENDBRANCH   2   7
BRANCH   1  13
ATOM     13  C   UNL d   1      -1.692   1.203   0.000  0.00  0.00     0.302 C 
ATOM     14  O   UNL d   1      -1.769   1.998   0.000  0.00  0.00    -0.259 OA
BRANCH  13  15
ATOM     15  O   UNL d   1      -0.920   0.867   0.000  0.00  0.00    -0.271 OA
BRANCH  15  16
ATOM     16  C   UNL d   1      -0.843   0.071   0.000  0.00  0.00     0.126 C 
ATOM     17  C   UNL d   1      -0.071  -0.265   0.000  0.00  0.00     0.029 C 
ENDBRANCH  15  16
ENDBRANCH  13  15
ENDBRANCH   1  13
TORSDOF 4
