REMARK  3 active torsions:
REMARK  status: ('A' for Active; 'I' for Inactive)
REMARK    1  A    between atoms: S_15  and  C_3 
REMARK    2  A    between atoms: C_5  and  C_14 
REMARK    3  A    between atoms: C_14  and  S_15 
ROOT
ATOM      1  N   UNL d   1      -2.554   3.522   0.000  0.00  0.00    -0.263 N 
ATOM      2  C   UNL d   1      -2.070   4.204   0.000  0.00  0.00     0.202 A 
ATOM      3  C   UNL d   1      -2.042   2.874   0.000  0.00  0.00     0.202 A 
ATOM      4  N   UNL d   1      -1.280   3.927   0.000  0.00  0.00    -0.121 NA
ATOM      5  S   UNL d   1      -2.554   4.887   0.000  0.00  0.00    -0.047 SA
ATOM      6  N   UNL d   1      -1.252   3.151   0.000  0.00  0.00    -0.121 NA
ATOM      7  C   UNL d   1      -3.329   3.792   0.000  0.00  0.00     0.074 A 
ATOM      8  C   UNL d   1      -3.329   4.624   0.000  0.00  0.00     0.049 A 
ATOM      9  C   UNL d   1      -4.048   3.386   0.000  0.00  0.00     0.018 A 
ATOM     10  C   UNL d   1      -4.048   5.030   0.000  0.00  0.00     0.008 A 
ATOM     11  C   UNL d   1      -4.774   3.792   0.000  0.00  0.00     0.002 A 
ATOM     12  C   UNL d   1      -4.774   4.624   0.000  0.00  0.00     0.001 A 
ENDROOT
BRANCH   3  13
ATOM     13  S   UNL d   1      -2.276   2.020   0.000  0.00  0.00    -0.048 SA
BRANCH  13  14
ATOM     14  C   UNL d   1      -3.066   1.814   0.000  0.00  0.00     0.042 C 
BRANCH  14  15
ATOM     15  C   UNL d   1      -3.265   1.024   0.000  0.00  0.00     0.051 A 
ATOM     16  C   UNL d   1      -3.984   0.619   0.000  0.00  0.00     0.127 A 
ATOM     17  O   UNL d   1      -3.842  -0.178   0.000  0.00  0.00    -0.211 OA
ATOM     18  C   UNL d   1      -4.774   0.996   0.000  0.00  0.00     0.029 C 
ATOM     19  N   UNL d   1      -3.066  -0.285   0.000  0.00  0.00    -0.126 NA
ATOM     20  C   UNL d   1      -2.682   0.448   0.000  0.00  0.00     0.111 A 
ATOM     21  C   UNL d   1      -1.871   0.590   0.000  0.00  0.00     0.023 C 
ENDBRANCH  14  15
ENDBRANCH  13  14
ENDBRANCH   3  13
TORSDOF 3
