REMARK  4 active torsions:
REMARK  status: ('A' for Active; 'I' for Inactive)
REMARK    1  A    between atoms: C_7  and  N_1 
REMARK    2  A    between atoms: C_6  and  C_2 
REMARK    3  A    between atoms: C_17  and  C_6 
REMARK    4  A    between atoms: C_8  and  C_7 
ROOT
ATOM      1  N   UNL d   1      -0.555   0.337   0.000  0.00  0.00    -0.303 N 
ATOM      2  C   UNL d   1      -0.124   1.614   0.000  0.00  0.00     0.057 A 
ATOM      3  C   UNL d   1       0.124   0.835   0.000  0.00  0.00     0.067 A 
ATOM      4  C   UNL d   1      -0.950   1.614   0.000  0.00  0.00     0.022 A 
ATOM      5  C   UNL d   1      -1.199   0.809   0.000  0.00  0.00     0.064 A 
ATOM      6  C   UNL d   1       0.918   0.586   0.000  0.00  0.00     0.019 C 
ATOM      7  C   UNL d   1      -1.992   0.560   0.000  0.00  0.00     0.019 C 
ENDROOT
BRANCH   1   8
ATOM      8  C   UNL d   1      -0.555  -0.482   0.000  0.00  0.00     0.105 C 
BRANCH   8   9
ATOM      9  C   UNL d   1       0.171  -0.908   0.000  0.00  0.00     0.118 A 
ATOM     10  O   UNL d   1       0.348  -1.702   0.000  0.00  0.00    -0.304 OA
ATOM     11  C   UNL d   1       1.167  -1.749   0.000  0.00  0.00     0.123 A 
ATOM     12  C   UNL d   1       1.494  -1.033   0.000  0.00  0.00     0.029 A 
ATOM     13  C   UNL d   1       0.872  -0.482   0.000  0.00  0.00     0.028 A 
ENDBRANCH   8   9
ENDBRANCH   1   8
BRANCH   2  14
ATOM     14  C   UNL d   1       0.348   2.257   0.000  0.00  0.00     0.208 C 
ATOM     15  O   UNL d   1       0.021   3.004   0.000  0.00  0.00    -0.286 OA
BRANCH  14  16
ATOM     16  C   UNL d   1       1.167   2.179   0.000  0.00  0.00     0.110 C 
ATOM     17 CL   UNL d   1       1.666   2.859   0.000  0.00  0.00    -0.078 Cl
ENDBRANCH  14  16
ENDBRANCH   2  14
TORSDOF 4
