REMARK  2 active torsions:
REMARK  status: ('A' for Active; 'I' for Inactive)
REMARK    1  A    between atoms: N_2  and  S_1 
REMARK    2  A    between atoms: C_3  and  S_1 
ROOT
ATOM      1  S   UNL d   1       1.435   2.868   0.000  0.00  0.00     0.287 S 
ATOM      2  O   UNL d   1       0.724   2.450   0.000  0.00  0.00    -0.198 OA
ATOM      3  O   UNL d   1       2.159   2.450   0.000  0.00  0.00    -0.198 OA
ENDROOT
BRANCH   1   4
ATOM      4  N   UNL d   1       1.435   3.703   0.000  0.00  0.00    -0.152 N 
ATOM      5  N   UNL d   1       2.159   4.121   0.000  0.00  0.00    -0.155 NA
ATOM      6  C   UNL d   1       2.159   4.957   0.000  0.00  0.00     0.104 A 
ATOM      7  C   UNL d   1       2.761   5.551   0.000  0.00  0.00     0.022 C 
ATOM      8  C   UNL d   1       0.724   4.957   0.000  0.00  0.00     0.041 A 
ATOM      9  C   UNL d   1       0.724   4.121   0.000  0.00  0.00     0.096 A 
ATOM     10  C   UNL d   1       0.000   3.703   0.000  0.00  0.00     0.022 C 
ENDBRANCH   1   4
BRANCH   1  11
ATOM     11  C   UNL d   1       1.435   1.654   0.000  0.00  0.00     0.117 A 
ATOM     12  C   UNL d   1       0.783   1.236   0.000  0.00  0.00     0.025 A 
ATOM     13  C   UNL d   1       0.821   0.455   0.000  0.00  0.00     0.059 A 
ATOM     14 CL   UNL d   1       0.114   0.000   0.000  0.00  0.00    -0.082 Cl
ATOM     15  C   UNL d   1       1.517   0.109   0.000  0.00  0.00     0.012 A 
ATOM     16  C   UNL d   1       2.171   0.527   0.000  0.00  0.00     0.013 A 
ATOM     17  C   UNL d   1       2.129   1.306   0.000  0.00  0.00     0.070 A 
ATOM     18 CL   UNL d   1       2.830   1.758   0.000  0.00  0.00    -0.082 Cl
ENDBRANCH   1  11
TORSDOF 2
