REMARK  2 active torsions:
REMARK  status: ('A' for Active; 'I' for Inactive)
REMARK    1  A    between atoms: N_8  and  C_3 
REMARK    2  A    between atoms: C_7  and  N_9 
ROOT
ATOM      1  N   UNL d   1       3.397  -1.772   0.000  0.00  0.00    -0.286 N 
ATOM      2  N   UNL d   1       3.397  -0.103   0.000  0.00  0.00    -0.135 N 
ATOM      3  C   UNL d   1       2.697  -1.336   0.000  0.00  0.00     0.101 A 
ATOM      4  C   UNL d   1       4.110  -1.368   0.000  0.00  0.00     0.101 A 
ATOM      5  C   UNL d   1       4.142  -0.539   0.000  0.00  0.00     0.117 A 
ATOM      6  C   UNL d   1       2.697  -0.507   0.000  0.00  0.00     0.117 A 
ENDROOT
BRANCH   1   7
ATOM      7  C   UNL d   1       3.397  -2.569   0.000  0.00  0.00     0.152 A 
ATOM      8  C   UNL d   1       2.697  -3.005   0.000  0.00  0.00     0.059 A 
ATOM      9  C   UNL d   1       2.697  -3.834   0.000  0.00  0.00     0.115 A 
ATOM     10  C   UNL d   1       1.927  -2.755   0.000  0.00  0.00     0.011 A 
ATOM     11  S   UNL d   1       1.927  -4.084   0.000  0.00  0.00    -0.068 SA
ATOM     12  N   UNL d   1       3.397  -4.238   0.000  0.00  0.00    -0.217 NA
ATOM     13  C   UNL d   1       1.464  -3.436   0.000  0.00  0.00     0.031 A 
ATOM     14  C   UNL d   1       0.623  -3.436   0.000  0.00  0.00     0.007 C 
ATOM     15  C   UNL d   1       4.142  -3.834   0.000  0.00  0.00     0.201 A 
ATOM     16  N   UNL d   1       4.142  -2.973   0.000  0.00  0.00    -0.206 NA
ATOM     17  C   UNL d   1       1.618  -1.952   0.000  0.00  0.00     0.001 C 
ENDBRANCH   1   7
BRANCH   2  18
ATOM     18  C   UNL d   1       3.436   0.764   0.000  0.00  0.00     0.735 A 
ATOM     19  N   UNL d   1       2.755   1.156   0.000  0.00  0.00    -0.059 NA
ATOM     20  C   UNL d   1       2.755   1.997   0.000  0.00  0.00     0.120 A 
ATOM     21  C   UNL d   1       3.468   2.389   0.000  0.00  0.00     0.043 A 
ATOM     22  C   UNL d   1       4.168   1.958   0.000  0.00  0.00     0.120 A 
ATOM     23  N   UNL d   1       4.168   1.156   0.000  0.00  0.00    -0.059 NA
ENDBRANCH   2  18
TORSDOF 2
