REMARK  5 active torsions:
REMARK  status: ('A' for Active; 'I' for Inactive)
REMARK    1  A    between atoms: C_9  and  C_1 
REMARK    2  A    between atoms: N_4  and  C_2 
REMARK    3  A    between atoms: C_8  and  C_3 
REMARK       I    between atoms: C_7  and  N_4 
REMARK    4  A    between atoms: C_10  and  C_7 
REMARK    5  A    between atoms: O_18  and  C_9 
ROOT
ATOM      1  C   UNL d   1      -1.971   1.677   0.000  0.00  0.00     0.088 A 
ATOM      2  C   UNL d   1      -1.744   0.891   0.000  0.00  0.00     0.119 A 
ATOM      3  C   UNL d   1      -2.807   1.677   0.000  0.00  0.00     0.020 A 
ATOM      4  S   UNL d   1      -2.353   0.399   0.000  0.00  0.00    -0.067 SA
ATOM      5  C   UNL d   1      -3.056   0.880   0.000  0.00  0.00     0.038 A 
ENDROOT
BRANCH   2   6
ATOM      6  N   UNL d   1      -0.924   0.592   0.000  0.00  0.00    -0.201 NA
ATOM      7  C   UNL d   1      -0.791  -0.249   0.000  0.00  0.00     0.281 C 
ATOM      8  O   UNL d   1       0.000  -0.515   0.000  0.00  0.00    -0.265 OA
BRANCH   7   9
ATOM      9  C   UNL d   1      -1.389  -0.780   0.000  0.00  0.00     0.077 A 
ATOM     10  C   UNL d   1      -2.153  -0.515   0.000  0.00  0.00     0.104 A 
ATOM     11  N   UNL d   1      -2.790  -1.035   0.000  0.00  0.00    -0.242 NA
ATOM     12  C   UNL d   1      -2.651  -1.860   0.000  0.00  0.00     0.099 A 
ATOM     13  C   UNL d   1      -1.860  -2.131   0.000  0.00  0.00     0.021 A 
ATOM     14  C   UNL d   1      -1.240  -1.600   0.000  0.00  0.00     0.008 A 
ENDBRANCH   7   9
ENDBRANCH   2   6
BRANCH   1  15
ATOM     15  C   UNL d   1      -1.478   2.353   0.000  0.00  0.00     0.298 C 
ATOM     16  O   UNL d   1      -1.821   3.122   0.000  0.00  0.00    -0.259 OA
BRANCH  15  17
ATOM     17  O   UNL d   1      -0.659   2.253   0.000  0.00  0.00    -0.296 OA
ATOM     18  C   UNL d   1      -0.332   1.478   0.000  0.00  0.00     0.185 C 
ENDBRANCH  15  17
ENDBRANCH   1  15
BRANCH   3  19
ATOM     19  C   UNL d   1      -3.233   2.386   0.000  0.00  0.00     0.030 A 
ATOM     20  S   UNL d   1      -3.947   2.768   0.000  0.00  0.00    -0.086 SA
ATOM     21  C   UNL d   1      -3.781   3.565   0.000  0.00  0.00     0.035 A 
ATOM     22  C   UNL d   1      -2.984   3.681   0.000  0.00  0.00     0.007 A 
ATOM     23  C   UNL d   1      -2.635   2.934   0.000  0.00  0.00     0.007 A 
ENDBRANCH   3  19
TORSDOF 5
