REMARK  1 active torsions:
REMARK  status: ('A' for Active; 'I' for Inactive)
REMARK    1  A    between atoms: C_10  and  C_7 
ROOT
ATOM      1  N   UNL d   1      -3.158   1.887   0.000  0.00  0.00    -0.259 N 
ATOM      2  C   UNL d   1      -2.736   2.613   0.000  0.00  0.00     0.202 A 
ATOM      3  C   UNL d   1      -2.606   1.299   0.000  0.00  0.00     0.227 A 
ATOM      4  C   UNL d   1      -3.920   2.061   0.000  0.00  0.00     0.091 A 
ATOM      5  S   UNL d   1      -3.259   3.216   0.000  0.00  0.00    -0.047 SA
ATOM      6  N   UNL d   1      -1.938   2.439   0.000  0.00  0.00    -0.121 NA
ATOM      7  C   UNL d   1      -3.999   2.867   0.000  0.00  0.00     0.050 A 
ATOM      8  N   UNL d   1      -1.865   1.604   0.000  0.00  0.00    -0.116 NA
ATOM      9  S   UNL d   1      -2.809   0.457   0.000  0.00  0.00    -0.036 SA
ENDROOT
BRANCH   7  10
ATOM     10  C   UNL d   1      -4.726   3.216   0.000  0.00  0.00     0.007 A 
ATOM     11  C   UNL d   1      -4.762   4.043   0.000  0.00  0.00     0.001 A 
ATOM     12  C   UNL d   1      -5.488   4.435   0.000  0.00  0.00     0.000 A 
ATOM     13  C   UNL d   1      -6.184   3.956   0.000  0.00  0.00     0.000 A 
ATOM     14  C   UNL d   1      -6.155   3.136   0.000  0.00  0.00     0.000 A 
ATOM     15  C   UNL d   1      -7.005   4.290   0.000  0.00  0.00     0.000 C 
ATOM     16  C   UNL d   1      -5.422   2.758   0.000  0.00  0.00     0.001 A 
ENDBRANCH   7  10
TORSDOF 1
