REMARK  4 active torsions:
REMARK  status: ('A' for Active; 'I' for Inactive)
REMARK    1  A    between atoms: C_2  and  S_1 
REMARK    2  A    between atoms: N_5  and  S_1 
REMARK    3  A    between atoms: C_12  and  N_5 
REMARK    4  A    between atoms: C_13  and  C_12 
ROOT
ATOM      1  S   UNL d   1       3.307   1.422   0.000  0.00  0.00     0.285 S 
ATOM      2  O   UNL d   1       3.307   2.247   0.000  0.00  0.00    -0.198 OA
ATOM      3  O   UNL d   1       3.307   0.597   0.000  0.00  0.00    -0.198 OA
ENDROOT
BRANCH   1   4
ATOM      4  C   UNL d   1       2.482   1.422   0.000  0.00  0.00     0.105 A 
ATOM      5  C   UNL d   1       2.062   0.719   0.000  0.00  0.00     0.012 A 
ATOM      6  C   UNL d   1       1.238   0.719   0.000  0.00  0.00     0.001 A 
ATOM      7  C   UNL d   1       2.482   0.000   0.000  0.00  0.00     0.001 C 
ATOM      8  C   UNL d   1       0.825   1.422   0.000  0.00  0.00     0.000 A 
ATOM      9  C   UNL d   1       1.238   2.136   0.000  0.00  0.00     0.001 A 
ATOM     10  C   UNL d   1       0.000   1.422   0.000  0.00  0.00     0.000 C 
ATOM     11  C   UNL d   1       2.062   2.136   0.000  0.00  0.00     0.012 A 
ATOM     12  C   UNL d   1       2.482   2.851   0.000  0.00  0.00     0.001 C 
ENDBRANCH   1   4
BRANCH   1  13
ATOM     13  N   UNL d   1       4.125   1.422   0.000  0.00  0.00    -0.157 NA
BRANCH  13  14
ATOM     14  C   UNL d   1       4.537   2.126   0.000  0.00  0.00     0.112 C 
BRANCH  14  15
ATOM     15  C   UNL d   1       4.132   2.836   0.000  0.00  0.00     0.023 A 
ATOM     16  C   UNL d   1       4.537   3.550   0.000  0.00  0.00     0.022 A 
ATOM     17  C   UNL d   1       4.132   4.265   0.000  0.00  0.00     0.099 A 
ATOM     18  N   UNL d   1       3.307   4.265   0.000  0.00  0.00    -0.242 NA
ATOM     19  C   UNL d   1       2.888   3.560   0.000  0.00  0.00     0.099 A 
ATOM     20  C   UNL d   1       3.300   2.836   0.000  0.00  0.00     0.022 A 
ENDBRANCH  14  15
ENDBRANCH  13  14
ENDBRANCH   1  13
TORSDOF 4
