REMARK  4 active torsions:
REMARK  status: ('A' for Active; 'I' for Inactive)
REMARK    1  A    between atoms: N_4  and  C_1 
REMARK    2  A    between atoms: N_9  and  N_4 
REMARK    3  A    between atoms: C_8  and  C_7 
REMARK    4  A    between atoms: C_10  and  N_9 
ROOT
ATOM      1  N   UNL d   1       3.113   0.692   0.000  0.00  0.00    -0.146 NA
ENDROOT
BRANCH   1   2
ATOM      2  C   UNL d   1       3.592   0.020   0.000  0.00  0.00     0.122 A 
ATOM      3  C   UNL d   1       3.352  -0.778   0.000  0.00  0.00     0.101 A 
ATOM      4  N   UNL d   1       3.991  -1.257   0.000  0.00  0.00    -0.244 NA
ATOM      5  C   UNL d   1       2.601  -1.038   0.000  0.00  0.00     0.022 C 
ATOM      6  C   UNL d   1       4.656  -0.798   0.000  0.00  0.00     0.083 A 
ATOM      7  C   UNL d   1       4.417   0.020   0.000  0.00  0.00     0.039 A 
ATOM      8  C   UNL d   1       5.454  -0.958   0.000  0.00  0.00     0.019 A 
ATOM      9  C   UNL d   1       4.995   0.632   0.000  0.00  0.00     0.003 A 
ATOM     10  C   UNL d   1       5.807   0.432   0.000  0.00  0.00     0.000 A 
ATOM     11  C   UNL d   1       6.013  -0.366   0.000  0.00  0.00     0.002 A 
ENDBRANCH   1   2
BRANCH   1  12
ATOM     12  N   UNL d   1       2.282   0.612   0.000  0.00  0.00    -0.148 NA
BRANCH  12  13
ATOM     13  C   UNL d   1       1.763   1.270   0.000  0.00  0.00     0.109 A 
ATOM     14  C   UNL d   1       0.958   1.171   0.000  0.00  0.00     0.084 A 
ATOM     15  C   UNL d   1       0.459   1.829   0.000  0.00  0.00     0.008 A 
ATOM     16  C   UNL d   1       0.805   2.607   0.000  0.00  0.00     0.000 A 
ATOM     17  C   UNL d   1       1.643   2.687   0.000  0.00  0.00     0.002 A 
ATOM     18  C   UNL d   1       2.102   1.996   0.000  0.00  0.00     0.021 A 
BRANCH  14  19
ATOM     19  C   UNL d   1       0.639   0.419   0.000  0.00  0.00     0.212 C 
ATOM     20  O   UNL d   1       1.117  -0.246   0.000  0.00  0.00    -0.644 OA
ATOM     21  O   UNL d   1      -0.180   0.293   0.000  0.00  0.00    -0.644 OA
ENDBRANCH  14  19
ENDBRANCH  12  13
ENDBRANCH   1  12
TORSDOF 4
