REMARK  1 active torsions:
REMARK  status: ('A' for Active; 'I' for Inactive)
REMARK    1  A    between atoms: C_12  and  N_4 
ROOT
ATOM      1  C   UNL d   1      -1.113   0.000   0.000  0.00  0.00     0.081 A 
ATOM      2  C   UNL d   1      -0.889  -0.760   0.000  0.00  0.00     0.118 A 
ATOM      3  C   UNL d   1      -0.543   0.604   0.000  0.00  0.00     0.268 A 
ATOM      4  N   UNL d   1       0.251   0.400   0.000  0.00  0.00    -0.249 N 
ATOM      5  N   UNL d   1      -0.102  -0.957   0.000  0.00  0.00    -0.212 NA
ATOM      6  C   UNL d   1       0.488  -0.353   0.000  0.00  0.00     0.209 A 
ATOM      7  S   UNL d   1      -1.540  -1.269   0.000  0.00  0.00    -0.068 SA
ATOM      8  C   UNL d   1      -1.947   0.000   0.000  0.00  0.00     0.013 A 
ATOM      9  C   UNL d   1      -2.219  -0.794   0.000  0.00  0.00     0.031 A 
ATOM     10  S   UNL d   1       1.303  -0.516   0.000  0.00  0.00    -0.038 SA
ATOM     11  O   UNL d   1      -0.753   1.404   0.000  0.00  0.00    -0.267 OA
ATOM     12  C   UNL d   1      -2.334   0.706   0.000  0.00  0.00     0.001 A 
ATOM     13  C   UNL d   1      -3.006  -1.024   0.000  0.00  0.00     0.006 A 
ATOM     14  C   UNL d   1      -3.168   0.814   0.000  0.00  0.00     0.000 A 
ATOM     15  C   UNL d   1      -3.684  -0.577   0.000  0.00  0.00     0.001 A 
ATOM     16  C   UNL d   1      -3.765   0.244   0.000  0.00  0.00     0.000 A 
ENDROOT
BRANCH   4  17
ATOM     17  C   UNL d   1       0.841   1.011   0.000  0.00  0.00     0.085 C 
ATOM     18  C   UNL d   1       1.635   0.807   0.000  0.00  0.00     0.021 C 
ENDBRANCH   4  17
TORSDOF 1
