REMARK  3 active torsions:
REMARK  status: ('A' for Active; 'I' for Inactive)
REMARK    1  A    between atoms: C_13  and  C_4 
REMARK    2  A    between atoms: O_15  and  C_13 
REMARK    3  A    between atoms: C_16  and  O_15 
ROOT
ATOM      1  C   UNL d   1      -0.595   3.726   0.000  0.00  0.00     0.144 C 
ENDROOT
BRANCH   1   2
ATOM      2  C   UNL d   1      -1.001   4.432   0.000  0.00  0.00     0.142 A 
ATOM      3  N   UNL d   1      -0.683   5.191   0.000  0.00  0.00    -0.057 NA
ATOM      4  C   UNL d   1      -1.292   5.746   0.000  0.00  0.00     0.735 A 
ATOM      5  N   UNL d   1      -2.020   5.336   0.000  0.00  0.00    -0.136 N 
ATOM      6  N   UNL d   1      -1.292   6.566   0.000  0.00  0.00    -0.059 NA
ATOM      7  C   UNL d   1      -1.821   4.529   0.000  0.00  0.00     0.120 A 
ATOM      8  C   UNL d   1      -2.734   5.746   0.000  0.00  0.00     0.100 A 
ATOM      9  C   UNL d   1      -2.752   6.549   0.000  0.00  0.00     0.041 A 
ATOM     10  C   UNL d   1      -2.020   6.990   0.000  0.00  0.00     0.119 A 
ENDBRANCH   1   2
BRANCH   1  11
ATOM     11  O   UNL d   1      -1.001   3.016   0.000  0.00  0.00    -0.303 OA
BRANCH  11  12
ATOM     12  C   UNL d   1      -0.595   2.298   0.000  0.00  0.00     0.100 A 
ATOM     13  C   UNL d   1      -1.019   1.601   0.000  0.00  0.00     0.025 A 
ATOM     14  C   UNL d   1      -0.617   0.882   0.000  0.00  0.00     0.013 A 
ATOM     15  C   UNL d   1      -1.058   0.159   0.000  0.00  0.00     0.001 C 
ATOM     16  C   UNL d   1       0.212   0.860   0.000  0.00  0.00     0.058 A 
ATOM     17  C   UNL d   1       0.635   1.557   0.000  0.00  0.00     0.013 A 
ATOM     18 CL   UNL d   1       0.635   0.141   0.000  0.00  0.00    -0.082 Cl
ATOM     19  C   UNL d   1       0.229   2.276   0.000  0.00  0.00     0.026 A 
ENDBRANCH  11  12
ENDBRANCH   1  11
TORSDOF 3
