REMARK  4 active torsions:
REMARK  status: ('A' for Active; 'I' for Inactive)
REMARK    1  A    between atoms: C_16  and  C_4 
REMARK    2  A    between atoms: C_8  and  S_14 
REMARK    3  A    between atoms: C_18  and  C_9 
REMARK    4  A    between atoms: S_14  and  C_16 
ROOT
ATOM      1  N   UNL d   1      -1.032   0.770   0.000  0.00  0.00    -0.218 NA
ATOM      2  C   UNL d   1      -0.606   1.485   0.000  0.00  0.00     0.215 A 
ATOM      3  C   UNL d   1      -0.657   0.059   0.000  0.00  0.00     0.104 A 
ATOM      4  N   UNL d   1       0.223   1.466   0.000  0.00  0.00    -0.121 NA
ATOM      5  N   UNL d   1       0.614   0.735   0.000  0.00  0.00    -0.143 NA
ATOM      6  C   UNL d   1       0.188   0.043   0.000  0.00  0.00     0.141 A 
ENDROOT
BRANCH   2   7
ATOM      7  S   UNL d   1      -0.997   2.201   0.000  0.00  0.00    -0.045 SA
BRANCH   7   8
ATOM      8  C   UNL d   1      -0.563   2.893   0.000  0.00  0.00     0.060 C 
BRANCH   8   9
ATOM      9  C   UNL d   1      -0.958   3.643   0.000  0.00  0.00     0.124 A 
ATOM     10  N   UNL d   1      -0.622   4.367   0.000  0.00  0.00    -0.059 NA
ATOM     11  C   UNL d   1      -1.220   4.929   0.000  0.00  0.00     0.735 A 
ATOM     12  N   UNL d   1      -1.935   4.519   0.000  0.00  0.00    -0.136 N 
ATOM     13  N   UNL d   1      -1.220   5.758   0.000  0.00  0.00    -0.059 NA
ATOM     14  C   UNL d   1      -1.767   3.718   0.000  0.00  0.00     0.118 A 
ATOM     15  C   UNL d   1      -2.646   4.929   0.000  0.00  0.00     0.100 A 
ATOM     16  C   UNL d   1      -2.646   5.758   0.000  0.00  0.00     0.041 A 
ATOM     17  C   UNL d   1      -1.935   6.173   0.000  0.00  0.00     0.119 A 
ENDBRANCH   8   9
ENDBRANCH   7   8
ENDBRANCH   2   7
BRANCH   3  18
ATOM     18  C   UNL d   1      -1.091  -0.657   0.000  0.00  0.00     0.019 A 
ATOM     19  C   UNL d   1      -0.676  -1.364   0.000  0.00  0.00     0.002 A 
ATOM     20  C   UNL d   1      -1.110  -2.080   0.000  0.00  0.00     0.000 A 
ATOM     21  C   UNL d   1      -1.935  -2.064   0.000  0.00  0.00     0.000 A 
ATOM     22  C   UNL d   1      -2.330  -1.329   0.000  0.00  0.00     0.000 A 
ATOM     23  C   UNL d   1      -1.896  -0.637   0.000  0.00  0.00     0.002 A 
ENDBRANCH   3  18
TORSDOF 4
