REMARK  4 active torsions:
REMARK  status: ('A' for Active; 'I' for Inactive)
REMARK       I    between atoms: N_2  and  C_1 
REMARK    1  A    between atoms: C_4  and  C_1 
REMARK    2  A    between atoms: C_14  and  N_3 
REMARK    3  A    between atoms: C_5  and  C_6 
REMARK    4  A    between atoms: C_17  and  C_14 
ROOT
ATOM      1  C   UNL d   1       4.129   0.824   0.000  0.00  0.00     0.265 C 
ATOM      2  N   UNL d   1       4.535   1.533   0.000  0.00  0.00    -0.269 N 
ATOM      3  N   UNL d   1       5.359   2.955   0.000  0.00  0.00    -0.300 N 
ATOM      4  O   UNL d   1       4.547   0.116   0.000  0.00  0.00    -0.267 OA
ATOM      5  C   UNL d   1       4.129   2.244   0.000  0.00  0.00     0.102 A 
ATOM      6  C   UNL d   1       5.369   1.533   0.000  0.00  0.00     0.102 A 
ATOM      7  C   UNL d   1       5.775   2.244   0.000  0.00  0.00     0.100 A 
ATOM      8  C   UNL d   1       4.547   2.955   0.000  0.00  0.00     0.100 A 
ENDROOT
BRANCH   1   9
ATOM      9  C   UNL d   1       3.295   0.824   0.000  0.00  0.00     0.057 A 
ATOM     10  C   UNL d   1       2.889   0.118   0.000  0.00  0.00     0.004 A 
ATOM     11  C   UNL d   1       2.055   0.118   0.000  0.00  0.00    -0.004 A 
ATOM     12  C   UNL d   1       1.649   0.824   0.000  0.00  0.00    -0.023 A 
ATOM     13  C   UNL d   1       2.055   1.540   0.000  0.00  0.00    -0.004 A 
ATOM     14  C   UNL d   1       2.889   1.540   0.000  0.00  0.00     0.004 A 
BRANCH  12  15
ATOM     15  C   UNL d   1       0.827   0.824   0.000  0.00  0.00     0.019 C 
ATOM     16  C   UNL d   1       0.827   0.000   0.000  0.00  0.00     0.004 C 
ATOM     17  C   UNL d   1       0.000   0.824   0.000  0.00  0.00     0.004 C 
ATOM     18  C   UNL d   1       0.827   1.658   0.000  0.00  0.00     0.004 C 
ENDBRANCH  12  15
ENDBRANCH   1   9
BRANCH   3  19
ATOM     19  C   UNL d   1       5.760   3.671   0.000  0.00  0.00     0.080 C 
BRANCH  19  20
ATOM     20  C   UNL d   1       5.347   4.380   0.000  0.00  0.00     0.018 A 
ATOM     21  C   UNL d   1       5.753   5.118   0.000  0.00  0.00     0.002 A 
ATOM     22  C   UNL d   1       5.325   5.819   0.000  0.00  0.00     0.000 A 
ATOM     23  C   UNL d   1       4.490   5.804   0.000  0.00  0.00     0.000 A 
ATOM     24  C   UNL d   1       4.092   5.074   0.000  0.00  0.00     0.000 A 
ATOM     25  C   UNL d   1       4.520   4.365   0.000  0.00  0.00     0.002 A 
ENDBRANCH  19  20
ENDBRANCH   3  19
TORSDOF 4
