REMARK  4 active torsions:
REMARK  status: ('A' for Active; 'I' for Inactive)
REMARK    1  A    between atoms: N_5  and  C_1 
REMARK    2  A    between atoms: N_9  and  N_5 
REMARK    3  A    between atoms: C_7  and  C_8 
REMARK    4  A    between atoms: C_12  and  N_9 
ROOT
ATOM      1  N   UNL d   1      -1.308  -0.564   0.000  0.00  0.00    -0.146 NA
ENDROOT
BRANCH   1   2
ATOM      2  C   UNL d   1      -1.826  -1.268   0.000  0.00  0.00     0.122 A 
ATOM      3  C   UNL d   1      -1.565  -2.027   0.000  0.00  0.00     0.101 A 
ATOM      4  N   UNL d   1      -2.229  -2.535   0.000  0.00  0.00    -0.244 NA
ATOM      5  C   UNL d   1      -0.785  -2.279   0.000  0.00  0.00     0.022 C 
ATOM      6  C   UNL d   1      -2.893  -2.073   0.000  0.00  0.00     0.083 A 
ATOM      7  C   UNL d   1      -2.651  -1.268   0.000  0.00  0.00     0.039 A 
ATOM      8  C   UNL d   1      -3.708  -2.239   0.000  0.00  0.00     0.019 A 
ATOM      9  C   UNL d   1      -3.215  -0.649   0.000  0.00  0.00     0.003 A 
ATOM     10  C   UNL d   1      -4.024  -0.830   0.000  0.00  0.00     0.000 A 
ATOM     11  C   UNL d   1      -4.281  -1.635   0.000  0.00  0.00     0.002 A 
ENDBRANCH   1   2
BRANCH   1  12
ATOM     12  N   UNL d   1      -0.483  -0.649   0.000  0.00  0.00    -0.148 NA
BRANCH  12  13
ATOM     13  C   UNL d   1       0.000   0.015   0.000  0.00  0.00     0.103 A 
ATOM     14  C   UNL d   1      -0.317   0.750   0.000  0.00  0.00     0.027 A 
ATOM     15  C   UNL d   1       0.166   1.414   0.000  0.00  0.00     0.066 A 
ATOM     16  C   UNL d   1       0.966   1.323   0.000  0.00  0.00     0.006 A 
ATOM     17  C   UNL d   1       1.288   0.584   0.000  0.00  0.00     0.002 A 
ATOM     18  C   UNL d   1       0.805  -0.065   0.000  0.00  0.00     0.021 A 
BRANCH  15  19
ATOM     19  C   UNL d   1      -0.121   2.188   0.000  0.00  0.00     0.211 C 
ATOM     20  O   UNL d   1      -0.946   2.319   0.000  0.00  0.00    -0.644 OA
ATOM     21  O   UNL d   1       0.407   2.837   0.000  0.00  0.00    -0.644 OA
ENDBRANCH  15  19
ENDBRANCH  12  13
ENDBRANCH   1  12
TORSDOF 4
