REMARK  3 active torsions:
REMARK  status: ('A' for Active; 'I' for Inactive)
REMARK    1  A    between atoms: C_14  and  C_4 
REMARK    2  A    between atoms: C_10  and  O_11 
REMARK    3  A    between atoms: O_11  and  C_14 
ROOT
ATOM      1  C   UNL d   1      -0.698   4.059   0.000  0.00  0.00     0.144 C 
ENDROOT
BRANCH   1   2
ATOM      2  O   UNL d   1      -1.106   3.333   0.000  0.00  0.00    -0.303 OA
BRANCH   2   3
ATOM      3  C   UNL d   1      -0.698   2.639   0.000  0.00  0.00     0.100 A 
ATOM      4  C   UNL d   1       0.131   2.639   0.000  0.00  0.00     0.024 A 
ATOM      5  C   UNL d   1       0.539   1.912   0.000  0.00  0.00     0.013 A 
ATOM      6  C   UNL d   1       0.562   3.333   0.000  0.00  0.00     0.002 C 
ATOM      7  C   UNL d   1       0.131   1.195   0.000  0.00  0.00     0.058 A 
ATOM      8  C   UNL d   1      -0.698   1.195   0.000  0.00  0.00     0.013 A 
ATOM      9 CL   UNL d   1       0.539   0.450   0.000  0.00  0.00    -0.082 Cl
ATOM     10  C   UNL d   1      -1.125   1.912   0.000  0.00  0.00     0.026 A 
ENDBRANCH   2   3
ENDBRANCH   1   2
BRANCH   1  11
ATOM     11  C   UNL d   1      -1.106   4.758   0.000  0.00  0.00     0.142 A 
ATOM     12  N   UNL d   1      -0.769   5.512   0.000  0.00  0.00    -0.057 NA
ATOM     13  C   UNL d   1      -1.373   6.051   0.000  0.00  0.00     0.735 A 
ATOM     14  N   UNL d   1      -2.076   5.644   0.000  0.00  0.00    -0.136 N 
ATOM     15  N   UNL d   1      -1.373   6.881   0.000  0.00  0.00    -0.059 NA
ATOM     16  C   UNL d   1      -1.894   4.856   0.000  0.00  0.00     0.120 A 
ATOM     17  C   UNL d   1      -2.794   6.075   0.000  0.00  0.00     0.100 A 
ATOM     18  C   UNL d   1      -2.794   6.881   0.000  0.00  0.00     0.041 A 
ATOM     19  C   UNL d   1      -2.076   7.289   0.000  0.00  0.00     0.119 A 
ENDBRANCH   1  11
TORSDOF 3
