REMARK  3 active torsions:
REMARK  status: ('A' for Active; 'I' for Inactive)
REMARK       I    between atoms: N_2  and  C_1 
REMARK    1  A    between atoms: C_8  and  C_1 
REMARK    2  A    between atoms: C_6  and  N_2 
REMARK    3  A    between atoms: N_4  and  C_8 
ROOT
ATOM      1  N   UNL d   1       1.895   1.494   0.000  0.00  0.00    -0.191 NA
ATOM      2  C   UNL d   1       1.903   0.697   0.000  0.00  0.00     0.102 C 
ATOM      3  C   UNL d   1       1.195  -0.541   0.000  0.00  0.00     0.094 A 
ATOM      4  C   UNL d   1       1.915  -0.121   0.000  0.00  0.00     0.086 A 
ATOM      5  C   UNL d   1       2.631  -0.541   0.000  0.00  0.00     0.012 A 
ATOM      6  C   UNL d   1       1.202  -1.358   0.000  0.00  0.00     0.020 A 
ATOM      7  C   UNL d   1       2.631  -1.370   0.000  0.00  0.00     0.001 A 
ATOM      8  C   UNL d   1       1.919  -1.774   0.000  0.00  0.00     0.002 A 
ENDROOT
BRANCH   3   9
ATOM      9  N   UNL d   1       0.483  -0.128   0.000  0.00  0.00    -0.206 NA
ATOM     10  C   UNL d   1      -0.206  -0.560   0.000  0.00  0.00     0.297 C 
ATOM     11  O   UNL d   1      -0.183  -1.389   0.000  0.00  0.00    -0.264 OA
BRANCH  10  12
ATOM     12  C   UNL d   1      -0.953  -0.187   0.000  0.00  0.00     0.144 C 
BRANCH  12  13
ATOM     13  N   UNL d   1      -1.646  -0.611   0.000  0.00  0.00    -0.299 N 
ATOM     14  C   UNL d   1      -2.366  -0.234   0.000  0.00  0.00     0.080 A 
ATOM     15  C   UNL d   1      -3.066  -0.669   0.000  0.00  0.00     0.019 A 
ATOM     16  C   UNL d   1      -3.035  -1.483   0.000  0.00  0.00     0.003 A 
ATOM     17  C   UNL d   1      -2.308  -1.856   0.000  0.00  0.00     0.019 A 
ATOM     18  C   UNL d   1      -3.755  -1.965   0.000  0.00  0.00     0.000 C 
ATOM     19  C   UNL d   1      -1.607  -1.417   0.000  0.00  0.00     0.080 A 
ENDBRANCH  12  13
ENDBRANCH  10  12
ENDBRANCH   3   9
TORSDOF 3
