REMARK  6 active torsions:
REMARK  status: ('A' for Active; 'I' for Inactive)
REMARK    1  A    between atoms: C_2  and  S_1 
REMARK    2  A    between atoms: N_6  and  S_1 
REMARK    3  A    between atoms: C_14  and  N_6 
REMARK    4  A    between atoms: C_8  and  C_13 
REMARK    5  A    between atoms: C_13  and  C_15 
REMARK    6  A    between atoms: C_15  and  C_14 
ROOT
ATOM      1  S   UNL d   1       0.809   2.736   0.000  0.00  0.00     0.291 S 
ATOM      2  O   UNL d   1       0.535   3.524   0.000  0.00  0.00    -0.198 OA
ATOM      3  O   UNL d   1       1.078   1.951   0.000  0.00  0.00    -0.198 OA
ENDROOT
BRANCH   1   4
ATOM      4  C   UNL d   1       1.597   3.005   0.000  0.00  0.00     0.135 A 
ATOM      5  S   UNL d   1       2.273   2.543   0.000  0.00  0.00    -0.073 SA
ATOM      6  C   UNL d   1       2.933   3.042   0.000  0.00  0.00     0.036 A 
ATOM      7  C   UNL d   1       2.684   3.798   0.000  0.00  0.00     0.008 A 
ATOM      8  C   UNL d   1       1.851   3.798   0.000  0.00  0.00     0.020 A 
ENDBRANCH   1   4
BRANCH   1   9
ATOM      9  N   UNL d   1       0.016   2.462   0.000  0.00  0.00    -0.156 NA
BRANCH   9  10
ATOM     10  C   UNL d   1      -0.157   1.654   0.000  0.00  0.00     0.112 C 
BRANCH  10  11
ATOM     11  C   UNL d   1      -0.929   1.384   0.000  0.00  0.00     0.028 C 
BRANCH  11  12
ATOM     12  C   UNL d   1      -1.082   0.575   0.000  0.00  0.00     0.072 C 
BRANCH  12  13
ATOM     13  C   UNL d   1      -1.855   0.286   0.000  0.00  0.00     0.211 C 
ATOM     14  O   UNL d   1      -2.012  -0.531   0.000  0.00  0.00    -0.644 OA
ATOM     15  O   UNL d   1      -2.494   0.805   0.000  0.00  0.00    -0.644 OA
ENDBRANCH  12  13
ENDBRANCH  11  12
ENDBRANCH  10  11
ENDBRANCH   9  10
ENDBRANCH   1   9
TORSDOF 6
