REMARK  7 active torsions:
REMARK  status: ('A' for Active; 'I' for Inactive)
REMARK    1  A    between atoms: N_2  and  S_1 
REMARK    2  A    between atoms: C_5  and  S_1 
REMARK    3  A    between atoms: C_3  and  N_2 
REMARK    4  A    between atoms: C_4  and  C_3 
REMARK    5  A    between atoms: C_8  and  C_3 
REMARK    6  A    between atoms: C_17  and  C_8 
REMARK    7  A    between atoms: C_9  and  C_10 
ROOT
ATOM      1  S   UNL d   1      -1.889  -0.704   0.000  0.00  0.00     0.285 S 
ATOM      2  O   UNL d   1      -1.070  -0.704   0.000  0.00  0.00    -0.198 OA
ATOM      3  O   UNL d   1      -1.889  -1.539   0.000  0.00  0.00    -0.198 OA
ENDROOT
BRANCH   1   4
ATOM      4  N   UNL d   1      -2.707  -0.704   0.000  0.00  0.00    -0.152 NA
BRANCH   4   5
ATOM      5  C   UNL d   1      -3.117  -0.004   0.000  0.00  0.00     0.158 C 
BRANCH   5   6
ATOM      6  C   UNL d   1      -3.935  -0.004   0.000  0.00  0.00     0.230 C 
ATOM      7  O   UNL d   1      -4.345  -0.704   0.000  0.00  0.00    -0.643 OA
ATOM      8  O   UNL d   1      -4.345   0.712   0.000  0.00  0.00    -0.643 OA
ENDBRANCH   5   6
BRANCH   5   9
ATOM      9  C   UNL d   1      -2.707   0.712   0.000  0.00  0.00     0.026 C 
BRANCH   9  10
ATOM     10  C   UNL d   1      -3.117   1.428   0.000  0.00  0.00     0.002 A 
ATOM     11  C   UNL d   1      -2.707   2.149   0.000  0.00  0.00     0.000 A 
ATOM     12  C   UNL d   1      -3.117   2.861   0.000  0.00  0.00     0.000 A 
ATOM     13  C   UNL d   1      -3.940   2.861   0.000  0.00  0.00     0.000 A 
ATOM     14  C   UNL d   1      -4.370   2.132   0.000  0.00  0.00     0.000 A 
ATOM     15  C   UNL d   1      -3.935   1.428   0.000  0.00  0.00     0.000 A 
ENDBRANCH   9  10
ENDBRANCH   5   9
ENDBRANCH   4   5
ENDBRANCH   1   4
BRANCH   1  16
ATOM     16  C   UNL d   1      -1.889   0.115   0.000  0.00  0.00     0.105 A 
ATOM     17  C   UNL d   1      -1.173   0.524   0.000  0.00  0.00     0.013 A 
ATOM     18  C   UNL d   1      -1.173   1.343   0.000  0.00  0.00    -0.004 A 
ATOM     19  C   UNL d   1      -1.889   1.752   0.000  0.00  0.00    -0.023 A 
ATOM     20  C   UNL d   1      -2.622   1.343   0.000  0.00  0.00    -0.004 A 
ATOM     21  C   UNL d   1      -2.605   0.524   0.000  0.00  0.00     0.013 A 
BRANCH  19  22
ATOM     22  C   UNL d   1      -1.863   2.579   0.000  0.00  0.00     0.019 C 
ATOM     23  C   UNL d   1      -2.682   2.592   0.000  0.00  0.00     0.004 C 
ATOM     24  C   UNL d   1      -1.842   3.390   0.000  0.00  0.00     0.004 C 
ATOM     25  C   UNL d   1      -1.045   2.554   0.000  0.00  0.00     0.004 C 
ENDBRANCH  19  22
ENDBRANCH   1  16
TORSDOF 7
