REMARK  4 active torsions:
REMARK  status: ('A' for Active; 'I' for Inactive)
REMARK    1  A    between atoms: N_2  and  S_1 
REMARK    2  A    between atoms: C_3  and  S_1 
REMARK    3  A    between atoms: O_15  and  C_11 
REMARK    4  A    between atoms: O_17  and  C_13 
ROOT
ATOM      1  C   UNL d   1       2.474   2.724   0.000  0.00  0.00     0.128 A 
ATOM      2  C   UNL d   1       1.645   2.724   0.000  0.00  0.00     0.039 A 
ATOM      3  C   UNL d   1       2.884   3.433   0.000  0.00  0.00     0.106 A 
ATOM      4  C   UNL d   1       2.466   4.148   0.000  0.00  0.00     0.027 A 
ATOM      5  C   UNL d   1       1.234   3.433   0.000  0.00  0.00     0.095 A 
ATOM      6  C   UNL d   1       1.645   4.148   0.000  0.00  0.00     0.026 A 
ENDROOT
BRANCH   1   7
ATOM      7  S   UNL d   1       2.894   2.011   0.000  0.00  0.00     0.274 S 
ATOM      8  O   UNL d   1       3.607   2.422   0.000  0.00  0.00    -0.199 OA
ATOM      9  O   UNL d   1       2.179   1.598   0.000  0.00  0.00    -0.199 OA
BRANCH   7  10
ATOM     10  N   UNL d   1       3.300   1.303   0.000  0.00  0.00    -0.213 N 
ATOM     11  C   UNL d   1       2.958   0.583   0.000  0.00  0.00     0.157 A 
ATOM     12  N   UNL d   1       3.563   0.000   0.000  0.00  0.00    -0.224 NA
ATOM     13  C   UNL d   1       2.164   0.352   0.000  0.00  0.00     0.041 C 
ATOM     14  C   UNL d   1       4.274   0.411   0.000  0.00  0.00     0.120 A 
ATOM     15  C   UNL d   1       4.101   1.237   0.000  0.00  0.00     0.114 A 
ENDBRANCH   7  10
ENDBRANCH   1   7
BRANCH   3  16
ATOM     16  O   UNL d   1       3.713   3.433   0.000  0.00  0.00    -0.327 OA
ATOM     17  C   UNL d   1       4.119   4.148   0.000  0.00  0.00     0.181 C 
ENDBRANCH   3  16
BRANCH   5  18
ATOM     18  O   UNL d   1       0.408   3.433   0.000  0.00  0.00    -0.328 OA
ATOM     19  C   UNL d   1       0.000   4.148   0.000  0.00  0.00     0.181 C 
ENDBRANCH   5  18
TORSDOF 4
