REMARK  4 active torsions:
REMARK  status: ('A' for Active; 'I' for Inactive)
REMARK    1  A    between atoms: C_6  and  N_1 
REMARK    2  A    between atoms: C_8  and  C_14 
REMARK    3  A    between atoms: O_20  and  C_8 
REMARK    4  A    between atoms: C_22  and  O_20 
ROOT
ATOM      1  N   UNL d   1       0.861   3.248   0.000  0.00  0.00    -0.242 N 
ATOM      2  C   UNL d   1       0.427   3.978   0.000  0.00  0.00     0.267 A 
ATOM      3  C   UNL d   1       0.427   2.658   0.000  0.00  0.00     0.267 A 
ATOM      4  C   UNL d   1      -0.361   3.732   0.000  0.00  0.00     0.061 A 
ATOM      5  C   UNL d   1      -0.361   2.895   0.000  0.00  0.00     0.061 A 
ATOM      6  C   UNL d   1      -1.075   2.461   0.000  0.00  0.00     0.005 A 
ATOM      7  C   UNL d   1      -1.075   4.126   0.000  0.00  0.00     0.005 A 
ATOM      8  O   UNL d   1       0.697   4.749   0.000  0.00  0.00    -0.267 OA
ATOM      9  O   UNL d   1       0.697   1.870   0.000  0.00  0.00    -0.267 OA
ATOM     10  C   UNL d   1      -1.772   2.895   0.000  0.00  0.00     0.000 A 
ATOM     11  C   UNL d   1      -1.772   3.732   0.000  0.00  0.00     0.000 A 
ATOM     12  C   UNL d   1      -2.485   4.126   0.000  0.00  0.00     0.000 C 
ENDROOT
BRANCH   1  13
ATOM     13  C   UNL d   1       1.682   3.174   0.000  0.00  0.00     0.070 A 
ATOM     14  C   UNL d   1       2.042   2.428   0.000  0.00  0.00     0.018 A 
ATOM     15  C   UNL d   1       2.863   2.354   0.000  0.00  0.00     0.007 A 
ATOM     16  C   UNL d   1       3.347   3.018   0.000  0.00  0.00     0.064 A 
ATOM     17  C   UNL d   1       2.986   3.806   0.000  0.00  0.00     0.007 A 
ATOM     18  C   UNL d   1       2.124   3.855   0.000  0.00  0.00     0.018 A 
BRANCH  16  19
ATOM     19  C   UNL d   1       4.167   2.895   0.000  0.00  0.00     0.300 C 
ATOM     20  O   UNL d   1       4.684   3.568   0.000  0.00  0.00    -0.259 OA
BRANCH  19  21
ATOM     21  O   UNL d   1       4.438   2.157   0.000  0.00  0.00    -0.271 OA
BRANCH  21  22
ATOM     22  C   UNL d   1       5.225   2.034   0.000  0.00  0.00     0.126 C 
ATOM     23  C   UNL d   1       5.545   1.247   0.000  0.00  0.00     0.029 C 
ENDBRANCH  21  22
ENDBRANCH  19  21
ENDBRANCH  16  19
ENDBRANCH   1  13
TORSDOF 4
