REMARK  5 active torsions:
REMARK  status: ('A' for Active; 'I' for Inactive)
REMARK    1  A    between atoms: C_8  and  N_1 
REMARK    2  A    between atoms: C_6  and  C_2 
REMARK    3  A    between atoms: C_9  and  C_6 
REMARK    4  A    between atoms: C_7  and  C_9 
REMARK    5  A    between atoms: C_14  and  C_8 
ROOT
ATOM      1  N   UNL d   1       2.197   3.545   0.000  0.00  0.00    -0.289 N 
ATOM      2  C   UNL d   1       2.691   4.201   0.000  0.00  0.00     0.148 A 
ATOM      3  N   UNL d   1       2.197   4.891   0.000  0.00  0.00    -0.227 NA
ATOM      4  C   UNL d   1       1.399   3.788   0.000  0.00  0.00     0.083 A 
ATOM      5  C   UNL d   1       1.429   4.643   0.000  0.00  0.00     0.099 A 
ATOM      6  C   UNL d   1       0.685   3.376   0.000  0.00  0.00     0.019 A 
ATOM      7  C   UNL d   1       0.685   5.055   0.000  0.00  0.00     0.021 A 
ATOM      8  C   UNL d   1       0.000   3.788   0.000  0.00  0.00     0.002 A 
ATOM      9  C   UNL d   1       0.000   4.614   0.000  0.00  0.00     0.002 A 
ENDROOT
BRANCH   1  10
ATOM     10  C   UNL d   1       2.610   2.853   0.000  0.00  0.00     0.082 C 
BRANCH  10  11
ATOM     11  C   UNL d   1       2.197   2.148   0.000  0.00  0.00     0.018 A 
ATOM     12  C   UNL d   1       1.373   2.148   0.000  0.00  0.00     0.002 A 
ATOM     13  C   UNL d   1       0.960   1.404   0.000  0.00  0.00     0.000 A 
ATOM     14  C   UNL d   1       1.373   0.690   0.000  0.00  0.00     0.000 A 
ATOM     15  C   UNL d   1       2.197   0.690   0.000  0.00  0.00     0.000 A 
ATOM     16  C   UNL d   1       0.960   0.000   0.000  0.00  0.00     0.000 C 
ATOM     17  C   UNL d   1       2.610   1.404   0.000  0.00  0.00     0.002 A 
ENDBRANCH  10  11
ENDBRANCH   1  10
BRANCH   2  18
ATOM     18  C   UNL d   1       3.486   4.422   0.000  0.00  0.00     0.039 C 
BRANCH  18  19
ATOM     19  C   UNL d   1       4.066   3.847   0.000  0.00  0.00     0.028 C 
BRANCH  19  20
ATOM     20  C   UNL d   1       4.864   4.066   0.000  0.00  0.00     0.100 A 
ATOM     21  O   UNL d   1       5.166   4.834   0.000  0.00  0.00    -0.305 OA
ATOM     22  C   UNL d   1       5.991   4.780   0.000  0.00  0.00     0.123 A 
ATOM     23  C   UNL d   1       6.209   3.985   0.000  0.00  0.00     0.029 A 
ATOM     24  C   UNL d   1       5.495   3.545   0.000  0.00  0.00     0.027 A 
ENDBRANCH  19  20
ENDBRANCH  18  19
ENDBRANCH   2  18
TORSDOF 5
