REMARK  3 active torsions:
REMARK  status: ('A' for Active; 'I' for Inactive)
REMARK    1  A    between atoms: C_6  and  C_2 
REMARK    2  A    between atoms: C_7  and  C_6 
REMARK    3  A    between atoms: C_8  and  C_7 
ROOT
ATOM      1  N   UNL d   1       2.198   1.515   0.000  0.00  0.00    -0.225 NA
ATOM      2  C   UNL d   1       2.691   0.825   0.000  0.00  0.00     0.163 A 
ATOM      3  N   UNL d   1       2.198   0.167   0.000  0.00  0.00    -0.225 NA
ATOM      4  C   UNL d   1       1.429   1.264   0.000  0.00  0.00     0.101 A 
ATOM      5  C   UNL d   1       1.400   0.412   0.000  0.00  0.00     0.101 A 
ATOM      6  C   UNL d   1       0.685   1.677   0.000  0.00  0.00     0.021 A 
ATOM      7  C   UNL d   1       0.685   0.000   0.000  0.00  0.00     0.021 A 
ATOM      8  C   UNL d   1       0.000   0.412   0.000  0.00  0.00     0.002 A 
ATOM      9  C   UNL d   1       0.000   1.238   0.000  0.00  0.00     0.002 A 
ENDROOT
BRANCH   2  10
ATOM     10  C   UNL d   1       3.487   1.046   0.000  0.00  0.00     0.039 C 
BRANCH  10  11
ATOM     11  C   UNL d   1       4.066   0.469   0.000  0.00  0.00     0.003 C 
BRANCH  11  12
ATOM     12  C   UNL d   1       4.864   0.690   0.000  0.00  0.00     0.000 A 
ATOM     13  C   UNL d   1       5.083   1.486   0.000  0.00  0.00     0.001 A 
ATOM     14  C   UNL d   1       5.881   1.677   0.000  0.00  0.00     0.011 A 
ATOM     15  C   UNL d   1       6.455   1.102   0.000  0.00  0.00     0.058 A 
ATOM     16  C   UNL d   1       6.234   0.307   0.000  0.00  0.00     0.011 A 
ATOM     17 CL   UNL d   1       7.256   1.323   0.000  0.00  0.00    -0.082 Cl
ATOM     18  C   UNL d   1       5.439   0.111   0.000  0.00  0.00     0.001 A 
ENDBRANCH  11  12
ENDBRANCH  10  11
ENDBRANCH   2  10
TORSDOF 3
