REMARK  10 active torsions:
REMARK  status: ('A' for Active; 'I' for Inactive)
REMARK    1  A    between atoms: C_5  and  C_1 
REMARK    2  A    between atoms: C_10  and  C_2 
REMARK    3  A    between atoms: S_11  and  C_3 
REMARK    4  A    between atoms: C_9  and  C_4 
REMARK       I    between atoms: N_8  and  C_5 
REMARK    5  A    between atoms: C_15  and  N_8 
REMARK    6  A    between atoms: C_26  and  S_11 
REMARK    7  A    between atoms: C_13  and  C_18 
REMARK    8  A    between atoms: C_16  and  C_26 
REMARK       I    between atoms: N_19  and  C_16 
REMARK    9  A    between atoms: C_29  and  N_19 
REMARK   10  A    between atoms: O_34  and  C_23 
ROOT
ATOM      1  C   UNL d   1      -3.149  -0.005   0.000  0.00  0.00     0.076 A 
ATOM      2  C   UNL d   1      -1.742   0.000   0.000  0.00  0.00     0.045 A 
ATOM      3  C   UNL d   1      -1.742  -0.847   0.000  0.00  0.00     0.112 A 
ATOM      4  C   UNL d   1      -2.437   0.404   0.000  0.00  0.00     0.016 A 
ATOM      5  C   UNL d   1      -3.149  -0.841   0.000  0.00  0.00     0.087 A 
ATOM      6  N   UNL d   1      -2.437  -1.251   0.000  0.00  0.00    -0.239 NA
ATOM      7  C   UNL d   1      -3.860  -1.267   0.000  0.00  0.00     0.021 C 
ENDROOT
BRANCH   3   8
ATOM      8  S   UNL d   1      -1.035  -1.316   0.000  0.00  0.00    -0.062 SA
BRANCH   8   9
ATOM      9  C   UNL d   1      -0.286  -0.954   0.000  0.00  0.00     0.099 C 
BRANCH   9  10
ATOM     10  C   UNL d   1       0.394  -1.423   0.000  0.00  0.00     0.286 C 
ATOM     11  N   UNL d   1       1.138  -1.073   0.000  0.00  0.00    -0.208 NA
ATOM     12  O   UNL d   1       0.324  -2.238   0.000  0.00  0.00    -0.265 OA
BRANCH  11  13
ATOM     13  C   UNL d   1       1.812  -1.553   0.000  0.00  0.00     0.085 A 
ATOM     14  C   UNL d   1       1.731  -2.367   0.000  0.00  0.00     0.019 A 
ATOM     15  C   UNL d   1       2.399  -2.847   0.000  0.00  0.00     0.008 A 
ATOM     16  C   UNL d   1       3.154  -2.496   0.000  0.00  0.00     0.065 A 
ATOM     17  C   UNL d   1       3.235  -1.682   0.000  0.00  0.00     0.008 A 
ATOM     18  C   UNL d   1       2.561  -1.202   0.000  0.00  0.00     0.019 A 
BRANCH  16  19
ATOM     19  C   UNL d   1       3.839  -2.976   0.000  0.00  0.00     0.211 C 
ATOM     20  O   UNL d   1       4.594  -2.626   0.000  0.00  0.00    -0.644 OA
ATOM     21  O   UNL d   1       3.758  -3.790   0.000  0.00  0.00    -0.644 OA
ENDBRANCH  16  19
ENDBRANCH  11  13
ENDBRANCH   9  10
ENDBRANCH   8   9
ENDBRANCH   3   8
BRANCH   2  22
ATOM     22  C   UNL d   1      -1.030   0.453   0.000  0.00  0.00     0.124 C 
ATOM     23  N   UNL d   1      -0.286   0.065   0.000  0.00  0.00    -0.146 N 
ENDBRANCH   2  22
BRANCH   4  24
ATOM     24  C   UNL d   1      -2.437   1.224   0.000  0.00  0.00     0.030 A 
ATOM     25  S   UNL d   1      -1.839   1.774   0.000  0.00  0.00    -0.086 SA
ATOM     26  C   UNL d   1      -2.178   2.502   0.000  0.00  0.00     0.035 A 
ATOM     27  C   UNL d   1      -2.971   2.421   0.000  0.00  0.00     0.007 A 
ATOM     28  C   UNL d   1      -3.149   1.634   0.000  0.00  0.00     0.007 A 
ENDBRANCH   4  24
BRANCH   1  29
ATOM     29  C   UNL d   1      -3.860   0.415   0.000  0.00  0.00     0.281 C 
ATOM     30  N   UNL d   1      -3.844   1.246   0.000  0.00  0.00    -0.206 NA
ATOM     31  O   UNL d   1      -4.572   0.016   0.000  0.00  0.00    -0.265 OA
BRANCH  30  32
ATOM     32  C   UNL d   1      -4.556   1.661   0.000  0.00  0.00     0.107 A 
ATOM     33  C   UNL d   1      -5.257   1.256   0.000  0.00  0.00     0.112 A 
ATOM     34  C   UNL d   1      -5.969   1.677   0.000  0.00  0.00     0.026 A 
ATOM     35  C   UNL d   1      -5.969   2.486   0.000  0.00  0.00     0.002 A 
ATOM     36  C   UNL d   1      -5.257   2.906   0.000  0.00  0.00     0.002 A 
ATOM     37  C   UNL d   1      -4.545   2.486   0.000  0.00  0.00     0.021 A 
BRANCH  33  38
ATOM     38  O   UNL d   1      -5.257   0.431   0.000  0.00  0.00    -0.327 OA
ATOM     39  C   UNL d   1      -5.969   0.016   0.000  0.00  0.00     0.181 C 
ENDBRANCH  33  38
ENDBRANCH  30  32
ENDBRANCH   1  29
TORSDOF 10
