REMARK  5 active torsions:
REMARK  status: ('A' for Active; 'I' for Inactive)
REMARK    1  A    between atoms: C_6  and  N_1 
REMARK    2  A    between atoms: C_7  and  C_6 
REMARK    3  A    between atoms: C_8  and  C_7 
REMARK       I    between atoms: N_11  and  C_8 
REMARK    4  A    between atoms: C_13  and  N_11 
REMARK    5  A    between atoms: C_16  and  C_13 
ROOT
ATOM      1  C   UNL d   1      -0.688   3.206   0.000  0.00  0.00     0.091 C 
ENDROOT
BRANCH   1   2
ATOM      2  N   UNL d   1      -1.545   3.206   0.000  0.00  0.00    -0.240 N 
ATOM      3  C   UNL d   1      -2.027   3.849   0.000  0.00  0.00     0.267 A 
ATOM      4  C   UNL d   1      -2.786   3.581   0.000  0.00  0.00     0.061 A 
ATOM      5  O   UNL d   1      -1.714   4.652   0.000  0.00  0.00    -0.267 OA
ATOM      6  C   UNL d   1      -3.527   4.009   0.000  0.00  0.00     0.005 A 
ATOM      7  C   UNL d   1      -2.786   2.777   0.000  0.00  0.00     0.061 A 
ATOM      8  C   UNL d   1      -4.250   3.581   0.000  0.00  0.00     0.000 A 
ATOM      9  C   UNL d   1      -4.250   2.777   0.000  0.00  0.00     0.000 A 
ATOM     10  C   UNL d   1      -3.527   2.348   0.000  0.00  0.00     0.005 A 
ATOM     11  C   UNL d   1      -2.027   2.509   0.000  0.00  0.00     0.267 A 
ATOM     12  O   UNL d   1      -1.714   1.706   0.000  0.00  0.00    -0.267 OA
ENDBRANCH   1   2
BRANCH   1  13
ATOM     13  C   UNL d   1      -0.312   2.509   0.000  0.00  0.00     0.082 C 
BRANCH  13  14
ATOM     14  C   UNL d   1       0.545   2.509   0.000  0.00  0.00     0.281 C 
ATOM     15  N   UNL d   1       0.938   1.741   0.000  0.00  0.00    -0.206 NA
ATOM     16  O   UNL d   1       0.938   3.206   0.000  0.00  0.00    -0.265 OA
BRANCH  15  17
ATOM     17  C   UNL d   1       1.795   1.741   0.000  0.00  0.00     0.102 C 
BRANCH  17  18
ATOM     18  C   UNL d   1       2.179   1.009   0.000  0.00  0.00     0.019 A 
ATOM     19  C   UNL d   1       1.795   0.322   0.000  0.00  0.00     0.002 A 
ATOM     20  C   UNL d   1       2.179  -0.402   0.000  0.00  0.00     0.000 A 
ATOM     21  C   UNL d   1       3.036  -0.402   0.000  0.00  0.00     0.000 A 
ATOM     22  C   UNL d   1       3.429   0.322   0.000  0.00  0.00     0.000 A 
ATOM     23  C   UNL d   1       3.036   1.009   0.000  0.00  0.00     0.002 A 
ENDBRANCH  17  18
ENDBRANCH  15  17
ENDBRANCH  13  14
ENDBRANCH   1  13
TORSDOF 5
