REMARK  9 active torsions:
REMARK  status: ('A' for Active; 'I' for Inactive)
REMARK    1  A    between atoms: C_6  and  C_1 
REMARK    2  A    between atoms: C_2  and  O_5 
REMARK    3  A    between atoms: C_4  and  C_2 
REMARK    4  A    between atoms: O_5  and  C_3 
REMARK    5  A    between atoms: C_7  and  C_6 
REMARK    6  A    between atoms: C_10  and  C_7 
REMARK    7  A    between atoms: O_25  and  C_8 
REMARK    8  A    between atoms: C_20  and  C_10 
REMARK    9  A    between atoms: O_27  and  C_14 
ROOT
ATOM      1  C   UNL d   1       0.668  -0.426   0.000  0.00  0.00     0.062 A 
ATOM      2  C   UNL d   1       0.668   0.409   0.000  0.00  0.00     0.106 A 
ATOM      3  C   UNL d   1      -0.050  -0.831   0.000  0.00  0.00     0.012 A 
ATOM      4  C   UNL d   1      -0.046   0.814   0.000  0.00  0.00     0.025 A 
ATOM      5  C   UNL d   1      -0.760  -0.418   0.000  0.00  0.00     0.035 A 
ATOM      6  C   UNL d   1      -0.760   0.409   0.000  0.00  0.00     0.009 A 
ATOM      7 BR   UNL d   1      -1.478  -0.827   0.000  0.00  0.00    -0.049 Br
ENDROOT
BRANCH   1   8
ATOM      8  C   UNL d   1       1.382  -0.839   0.000  0.00  0.00     0.198 C 
ATOM      9  O   UNL d   1       1.378  -1.666   0.000  0.00  0.00    -0.286 OA
BRANCH   8  10
ATOM     10  C   UNL d   1       2.096  -0.430   0.000  0.00  0.00     0.042 C 
BRANCH  10  11
ATOM     11  C   UNL d   1       2.810  -0.843   0.000  0.00  0.00     0.003 C 
BRANCH  11  12
ATOM     12  C   UNL d   1       3.532  -0.430   0.000  0.00  0.00     0.002 A 
ATOM     13  C   UNL d   1       4.238  -0.881   0.000  0.00  0.00     0.026 A 
ATOM     14  C   UNL d   1       4.960  -0.443   0.000  0.00  0.00     0.116 A 
ATOM     15  C   UNL d   1       4.965   0.384   0.000  0.00  0.00     0.116 A 
ATOM     16  C   UNL d   1       4.238   0.802   0.000  0.00  0.00     0.026 A 
ATOM     17  C   UNL d   1       3.524   0.388   0.000  0.00  0.00     0.002 A 
BRANCH  14  18
ATOM     18  O   UNL d   1       5.674  -0.843   0.000  0.00  0.00    -0.326 OA
ATOM     19  C   UNL d   1       6.388  -0.426   0.000  0.00  0.00     0.181 C 
ENDBRANCH  14  18
BRANCH  15  20
ATOM     20  O   UNL d   1       5.678   0.797   0.000  0.00  0.00    -0.326 OA
ATOM     21  C   UNL d   1       5.678   1.624   0.000  0.00  0.00     0.181 C 
ENDBRANCH  15  20
ENDBRANCH  11  12
ENDBRANCH  10  11
ENDBRANCH   8  10
ENDBRANCH   1   8
BRANCH   2  22
ATOM     22  O   UNL d   1       1.382   0.814   0.000  0.00  0.00    -0.271 OA
BRANCH  22  23
ATOM     23  C   UNL d   1       1.382   1.641   0.000  0.00  0.00     0.323 C 
ATOM     24  O   UNL d   1       0.668   2.063   0.000  0.00  0.00    -0.257 OA
BRANCH  23  25
ATOM     25  C   UNL d   1       2.096   2.054   0.000  0.00  0.00     0.163 A 
ATOM     26  O   UNL d   1       2.848   1.716   0.000  0.00  0.00    -0.300 OA
ATOM     27  C   UNL d   1       3.407   2.338   0.000  0.00  0.00     0.123 A 
ATOM     28  C   UNL d   1       2.994   3.052   0.000  0.00  0.00     0.029 A 
ATOM     29  C   UNL d   1       2.184   2.877   0.000  0.00  0.00     0.032 A 
ENDBRANCH  23  25
ENDBRANCH  22  23
ENDBRANCH   2  22
TORSDOF 9
