REMARK  4 active torsions:
REMARK  status: ('A' for Active; 'I' for Inactive)
REMARK    1  A    between atoms: N_3  and  S_1 
REMARK    2  A    between atoms: N_4  and  S_1 
REMARK    3  A    between atoms: N_2  and  C_7 
REMARK    4  A    between atoms: C_10  and  N_4 
ROOT
ATOM      1  N   UNL d   1       2.883   0.719   0.000  0.00  0.00    -0.144 NA
ENDROOT
BRANCH   1   2
ATOM      2  S   UNL d   1       2.470   1.434   0.000  0.00  0.00     0.351 S 
ATOM      3  O   UNL d   1       3.185   1.846   0.000  0.00  0.00    -0.180 OA
ATOM      4  O   UNL d   1       2.470   2.259   0.000  0.00  0.00    -0.180 OA
BRANCH   2   5
ATOM      5  N   UNL d   1       1.645   1.434   0.000  0.00  0.00    -0.215 N 
ATOM      6  C   UNL d   1       1.233   2.148   0.000  0.00  0.00     0.093 A 
ATOM      7  C   UNL d   1       0.408   2.148   0.000  0.00  0.00     0.020 A 
ATOM      8  C   UNL d   1       0.000   1.434   0.000  0.00  0.00     0.003 A 
ATOM      9  C   UNL d   1       0.408   0.719   0.000  0.00  0.00     0.020 A 
ATOM     10  C   UNL d   1       1.233   0.719   0.000  0.00  0.00     0.093 A 
ENDBRANCH   2   5
ENDBRANCH   1   2
BRANCH   1  11
ATOM     11  C   UNL d   1       3.708   0.719   0.000  0.00  0.00     0.095 A 
ATOM     12  C   UNL d   1       4.120   1.434   0.000  0.00  0.00     0.022 A 
ATOM     13  C   UNL d   1       4.945   1.434   0.000  0.00  0.00     0.025 A 
ATOM     14  C   UNL d   1       5.358   0.719   0.000  0.00  0.00     0.127 A 
ATOM     15  C   UNL d   1       4.945   0.000   0.000  0.00  0.00     0.025 A 
ATOM     16  C   UNL d   1       4.120   0.000   0.000  0.00  0.00     0.022 A 
BRANCH  14  17
ATOM     17  N   UNL d   1       6.183   0.719   0.000  0.00  0.00    -0.114 N 
ATOM     18  O   UNL d   1       6.595   0.000   0.000  0.00  0.00    -0.532 OA
ATOM     19  O   UNL d   1       6.595   1.434   0.000  0.00  0.00    -0.532 OA
ENDBRANCH  14  17
ENDBRANCH   1  11
TORSDOF 4
