REMARK  5 active torsions:
REMARK  status: ('A' for Active; 'I' for Inactive)
REMARK    1  A    between atoms: C_7  and  C_1 
REMARK    2  A    between atoms: C_8  and  C_2 
REMARK    3  A    between atoms: O_16  and  C_8 
REMARK    4  A    between atoms: O_17  and  C_12 
REMARK    5  A    between atoms: C_21  and  O_16 
ROOT
ATOM      1  C   UNL d   1       0.329  -0.417   0.000  0.00  0.00     0.069 A 
ATOM      2  C   UNL d   1       0.329   0.408   0.000  0.00  0.00     0.166 A 
ATOM      3  C   UNL d   1      -0.388  -0.829   0.000  0.00  0.00     0.200 A 
ATOM      4  O   UNL d   1      -0.383   0.833   0.000  0.00  0.00    -0.301 OA
ATOM      5  C   UNL d   1      -1.100  -0.412   0.000  0.00  0.00     0.062 A 
ATOM      6  C   UNL d   1      -1.096   0.412   0.000  0.00  0.00     0.106 A 
ATOM      7  C   UNL d   1      -1.821   0.833   0.000  0.00  0.00     0.067 A 
ATOM      8  C   UNL d   1      -1.821  -0.825   0.000  0.00  0.00     0.009 A 
ATOM      9  O   UNL d   1      -0.396  -1.654   0.000  0.00  0.00    -0.286 OA
ATOM     10  C   UNL d   1      -2.533   0.421   0.000  0.00  0.00     0.198 A 
ATOM     11  C   UNL d   1      -2.533  -0.412   0.000  0.00  0.00     0.042 A 
ATOM     12  O   UNL d   1      -3.245   0.833   0.000  0.00  0.00    -0.286 OA
ENDROOT
BRANCH   1  13
ATOM     13  C   UNL d   1       1.042  -0.829   0.000  0.00  0.00     0.028 A 
ATOM     14  C   UNL d   1       1.029  -1.654   0.000  0.00  0.00     0.094 A 
ATOM     15  C   UNL d   1       1.742  -2.067   0.000  0.00  0.00     0.024 A 
ATOM     16  C   UNL d   1       2.466  -1.662   0.000  0.00  0.00     0.002 A 
ATOM     17  C   UNL d   1       2.466  -0.837   0.000  0.00  0.00     0.000 A 
ATOM     18  C   UNL d   1       1.754  -0.417   0.000  0.00  0.00     0.002 A 
BRANCH  14  19
ATOM     19  O   UNL d   1       0.317  -2.054   0.000  0.00  0.00    -0.328 OA
ATOM     20  C   UNL d   1       0.312  -2.879   0.000  0.00  0.00     0.181 C 
ENDBRANCH  14  19
ENDBRANCH   1  13
BRANCH   2  21
ATOM     21  C   UNL d   1       1.050   0.821   0.000  0.00  0.00     0.323 C 
ATOM     22  O   UNL d   1       1.762   0.400   0.000  0.00  0.00    -0.257 OA
BRANCH  21  23
ATOM     23  O   UNL d   1       1.054   1.646   0.000  0.00  0.00    -0.270 OA
BRANCH  23  24
ATOM     24  C   UNL d   1       1.766   2.046   0.000  0.00  0.00     0.126 C 
ATOM     25  C   UNL d   1       1.779   2.870   0.000  0.00  0.00     0.029 C 
ENDBRANCH  23  24
ENDBRANCH  21  23
ENDBRANCH   2  21
TORSDOF 5
