REMARK  2 active torsions:
REMARK  status: ('A' for Active; 'I' for Inactive)
REMARK    1  A    between atoms: C_7  and  C_1 
REMARK    2  A    between atoms: O_16  and  C_12 
ROOT
ATOM      1  C   UNL d   1       2.612   1.246   0.000  0.00  0.00     0.105 A 
ATOM      2  C   UNL d   1       1.167   0.408   0.000  0.00  0.00     0.064 A 
ATOM      3  O   UNL d   1       1.892   1.663   0.000  0.00  0.00    -0.307 OA
ATOM      4  C   UNL d   1       1.887  -0.004   0.000  0.00  0.00     0.200 A 
ATOM      5  C   UNL d   1       1.175   1.246   0.000  0.00  0.00     0.103 A 
ATOM      6  C   UNL d   1       2.612   0.408   0.000  0.00  0.00     0.067 A 
ATOM      7  C   UNL d   1       0.454   0.000   0.000  0.00  0.00     0.029 A 
ATOM      8  O   UNL d   1       1.887  -0.829   0.000  0.00  0.00    -0.286 OA
ATOM      9  C   UNL d   1       0.454   1.658   0.000  0.00  0.00     0.027 A 
ATOM     10  C   UNL d   1      -0.258   0.412   0.000  0.00  0.00     0.094 A 
ATOM     11  C   UNL d   1      -0.258   1.238   0.000  0.00  0.00     0.026 A 
ENDROOT
BRANCH   1  12
ATOM     12  C   UNL d   1       3.325   1.650   0.000  0.00  0.00     0.050 A 
ATOM     13  C   UNL d   1       3.329   2.471   0.000  0.00  0.00     0.142 A 
ATOM     14  F   UNL d   1       2.604   2.883   0.000  0.00  0.00    -0.204 F 
ATOM     15  C   UNL d   1       4.042   2.883   0.000  0.00  0.00     0.030 A 
ATOM     16  C   UNL d   1       4.754   2.471   0.000  0.00  0.00     0.002 A 
ATOM     17  C   UNL d   1       4.754   1.646   0.000  0.00  0.00     0.000 A 
ATOM     18  C   UNL d   1       4.042   1.233   0.000  0.00  0.00     0.004 A 
ENDBRANCH   1  12
BRANCH  10  19
ATOM     19  O   UNL d   1      -0.971   0.000   0.000  0.00  0.00    -0.328 OA
ATOM     20  C   UNL d   1      -0.971  -0.825   0.000  0.00  0.00     0.181 C 
ENDBRANCH  10  19
TORSDOF 2
