REMARK  6 active torsions:
REMARK  status: ('A' for Active; 'I' for Inactive)
REMARK       I    between atoms: N_3  and  C_1 
REMARK    1  A    between atoms: O_5  and  C_1 
REMARK    2  A    between atoms: C_6  and  C_2 
REMARK    3  A    between atoms: C_4  and  O_5 
REMARK    4  A    between atoms: C_7  and  C_6 
REMARK    5  A    between atoms: C_9  and  C_7 
REMARK    6  A    between atoms: C_8  and  C_9 
ROOT
ATOM      1  C   UNL d   1       0.668  -0.426   0.000  0.00  0.00     0.063 A 
ATOM      2  C   UNL d   1       0.668   0.409   0.000  0.00  0.00     0.108 A 
ATOM      3  C   UNL d   1      -0.050  -0.831   0.000  0.00  0.00     0.017 A 
ATOM      4  C   UNL d   1      -0.046   0.814   0.000  0.00  0.00     0.026 A 
ATOM      5  C   UNL d   1      -0.760  -0.418   0.000  0.00  0.00     0.058 A 
ATOM      6  C   UNL d   1      -0.760   0.409   0.000  0.00  0.00     0.013 A 
ATOM      7 CL   UNL d   1      -1.478  -0.827   0.000  0.00  0.00    -0.082 Cl
ENDROOT
BRANCH   1   8
ATOM      8  C   UNL d   1       1.382  -0.839   0.000  0.00  0.00     0.198 C 
ATOM      9  O   UNL d   1       1.378  -1.666   0.000  0.00  0.00    -0.286 OA
BRANCH   8  10
ATOM     10  C   UNL d   1       2.096  -0.430   0.000  0.00  0.00     0.043 C 
BRANCH  10  11
ATOM     11  C   UNL d   1       2.810  -0.843   0.000  0.00  0.00     0.010 C 
BRANCH  11  12
ATOM     12  C   UNL d   1       3.532  -0.430   0.000  0.00  0.00     0.030 A 
ATOM     13  S   UNL d   1       4.284  -0.777   0.000  0.00  0.00    -0.086 SA
ATOM     14  C   UNL d   1       4.839  -0.154   0.000  0.00  0.00     0.035 A 
ATOM     15  C   UNL d   1       4.426   0.559   0.000  0.00  0.00     0.007 A 
ATOM     16  C   UNL d   1       3.620   0.384   0.000  0.00  0.00     0.007 A 
ENDBRANCH  11  12
ENDBRANCH  10  11
ENDBRANCH   8  10
ENDBRANCH   1   8
BRANCH   2  17
ATOM     17  O   UNL d   1       1.382   0.814   0.000  0.00  0.00    -0.259 OA
BRANCH  17  18
ATOM     18  C   UNL d   1       1.382   1.641   0.000  0.00  0.00     0.378 C 
ATOM     19  N   UNL d   1       2.096   2.054   0.000  0.00  0.00    -0.247 N 
ATOM     20  C   UNL d   1       2.096   2.877   0.000  0.00  0.00     0.112 A 
ATOM     21  C   UNL d   1       2.818   1.637   0.000  0.00  0.00     0.112 A 
ATOM     22  C   UNL d   1       2.822   3.290   0.000  0.00  0.00     0.142 A 
ATOM     23  O   UNL d   1       3.537   2.868   0.000  0.00  0.00    -0.300 OA
ATOM     24  C   UNL d   1       3.532   2.042   0.000  0.00  0.00     0.142 A 
ATOM     25  O   UNL d   1       0.668   2.063   0.000  0.00  0.00    -0.237 OA
ENDBRANCH  17  18
ENDBRANCH   2  17
TORSDOF 6
