REMARK  3 active torsions:
REMARK  status: ('A' for Active; 'I' for Inactive)
REMARK    1  A    between atoms: C_2  and  C_1 
REMARK    2  A    between atoms: C_6  and  C_2 
REMARK    3  A    between atoms: C_9  and  C_6 
ROOT
ATOM      1  C   UNL d   1      -0.200   1.211   0.000  0.00  0.00     0.199 C 
ATOM      2  O   UNL d   1      -0.209   0.384   0.000  0.00  0.00    -0.286 OA
ENDROOT
BRANCH   1   3
ATOM      3  C   UNL d   1      -0.914   1.624   0.000  0.00  0.00     0.078 A 
ATOM      4  C   UNL d   1      -0.914   2.463   0.000  0.00  0.00     0.202 A 
ATOM      5  C   UNL d   1      -1.637   2.868   0.000  0.00  0.00     0.084 A 
ATOM      6  O   UNL d   1      -0.196   2.868   0.000  0.00  0.00    -0.286 OA
ATOM      7  C   UNL d   1      -2.351   2.463   0.000  0.00  0.00     0.199 A 
ATOM      8  C   UNL d   1      -2.351   1.624   0.000  0.00  0.00     0.042 A 
ATOM      9  O   UNL d   1      -3.065   2.868   0.000  0.00  0.00    -0.286 OA
ATOM     10  C   UNL d   1      -1.637   1.211   0.000  0.00  0.00     0.010 A 
ENDBRANCH   1   3
BRANCH   1  11
ATOM     11  C   UNL d   1       0.518   1.616   0.000  0.00  0.00     0.042 C 
BRANCH  11  12
ATOM     12  C   UNL d   1       1.232   1.202   0.000  0.00  0.00     0.003 A 
ATOM     13  C   UNL d   1       1.219   0.384   0.000  0.00  0.00     0.001 A 
ATOM     14  C   UNL d   1       1.933  -0.029   0.000  0.00  0.00     0.007 A 
ATOM     15  C   UNL d   1       2.660   0.372   0.000  0.00  0.00     0.035 A 
ATOM     16  C   UNL d   1       2.660   1.198   0.000  0.00  0.00     0.007 A 
ATOM     17 BR   UNL d   1       3.369  -0.042   0.000  0.00  0.00    -0.049 Br
ATOM     18  C   UNL d   1       1.946   1.616   0.000  0.00  0.00     0.001 A 
ENDBRANCH  11  12
ENDBRANCH   1  11
TORSDOF 3
