REMARK  5 active torsions:
REMARK  status: ('A' for Active; 'I' for Inactive)
REMARK    1  A    between atoms: C_3  and  C_1 
REMARK    2  A    between atoms: C_6  and  C_9 
REMARK    3  A    between atoms: C_7  and  C_12 
REMARK    4  A    between atoms: C_9  and  C_11 
REMARK       I    between atoms: C_11  and  N_16 
REMARK    5  A    between atoms: N_16  and  C_18 
ROOT
ATOM      1  N   UNL d   1       1.038  -0.049   0.000  0.00  0.00    -0.207 NA
ATOM      2  C   UNL d   1       1.763  -0.468   0.000  0.00  0.00     0.285 A 
ATOM      3  S   UNL d   1       1.038  -1.714   0.000  0.00  0.00    -0.080 SA
ATOM      4  C   UNL d   1       1.763  -1.296   0.000  0.00  0.00     0.092 A 
ATOM      5  C   UNL d   1       0.324  -0.468   0.000  0.00  0.00     0.090 A 
ATOM      6  C   UNL d   1       0.320  -1.296   0.000  0.00  0.00     0.047 A 
ATOM      7  C   UNL d   1      -1.103  -0.468   0.000  0.00  0.00     0.073 A 
ATOM      8  C   UNL d   1      -0.390  -0.053   0.000  0.00  0.00     0.024 A 
ATOM      9  O   UNL d   1       2.477  -0.061   0.000  0.00  0.00    -0.265 OA
ATOM     10  C   UNL d   1      -0.390  -1.710   0.000  0.00  0.00     0.008 A 
ATOM     11  C   UNL d   1      -1.103  -1.296   0.000  0.00  0.00     0.004 A 
ENDROOT
BRANCH   4  12
ATOM     12  C   UNL d   1       2.465  -1.714   0.000  0.00  0.00     0.074 C 
BRANCH  12  13
ATOM     13  C   UNL d   1       3.190  -1.304   0.000  0.00  0.00     0.280 C 
ATOM     14  N   UNL d   1       3.904  -1.722   0.000  0.00  0.00    -0.208 NA
ATOM     15  O   UNL d   1       3.203  -0.742   0.000  0.00  0.00    -0.265 OA
BRANCH  14  16
ATOM     16  C   UNL d   1       4.617  -1.308   0.000  0.00  0.00     0.085 A 
ATOM     17  C   UNL d   1       5.327  -1.722   0.000  0.00  0.00     0.024 A 
ATOM     18  C   UNL d   1       6.040  -1.308   0.000  0.00  0.00     0.084 A 
ATOM     19  C   UNL d   1       6.040  -0.484   0.000  0.00  0.00     0.062 A 
ATOM     20  C   UNL d   1       5.319  -0.074   0.000  0.00  0.00     0.013 A 
ATOM     21 CL   UNL d   1       6.742  -0.078   0.000  0.00  0.00    -0.082 Cl
ATOM     22  C   UNL d   1       4.613  -0.484   0.000  0.00  0.00     0.020 A 
BRANCH  18  23
ATOM     23  C   UNL d   1       6.742  -1.714   0.000  0.00  0.00     0.420 C 
ATOM     24  F   UNL d   1       7.385  -2.091   0.000  0.00  0.00    -0.166 F 
ATOM     25  F   UNL d   1       6.877  -2.551   0.000  0.00  0.00    -0.166 F 
ATOM     26  F   UNL d   1       7.533  -1.415   0.000  0.00  0.00    -0.166 F 
ENDBRANCH  18  23
ENDBRANCH  14  16
ENDBRANCH  12  13
ENDBRANCH   4  12
BRANCH   7  27
ATOM     27  C   UNL d   1      -1.804  -0.061   0.000  0.00  0.00     0.419 C 
ATOM     28  F   UNL d   1      -1.940   0.775   0.000  0.00  0.00    -0.166 F 
ATOM     29  F   UNL d   1      -2.604  -0.361   0.000  0.00  0.00    -0.166 F 
ATOM     30  F   UNL d   1      -2.448   0.316   0.000  0.00  0.00    -0.166 F 
ENDBRANCH   7  27
TORSDOF 5
