REMARK  2 active torsions:
REMARK  status: ('A' for Active; 'I' for Inactive)
REMARK    1  A    between atoms: C_10  and  C_3 
REMARK    2  A    between atoms: O_20  and  C_16 
ROOT
ATOM      1  C   UNL d   1       1.887  -0.004   0.000  0.00  0.00     0.203 A 
ATOM      2  C   UNL d   1       1.167   0.408   0.000  0.00  0.00     0.101 A 
ATOM      3  C   UNL d   1       2.612   0.408   0.000  0.00  0.00     0.064 A 
ATOM      4  C   UNL d   1       1.175   1.246   0.000  0.00  0.00     0.109 A 
ATOM      5  C   UNL d   1       2.612   1.246   0.000  0.00  0.00     0.126 A 
ATOM      6  C   UNL d   1       0.454   0.000   0.000  0.00  0.00     0.204 A 
ATOM      7  O   UNL d   1       1.892   1.663   0.000  0.00  0.00    -0.305 OA
ATOM      8  C   UNL d   1       0.454   1.658   0.000  0.00  0.00     0.067 A 
ATOM      9  C   UNL d   1      -0.258   0.412   0.000  0.00  0.00     0.084 A 
ATOM     10  O   UNL d   1       1.887  -0.829   0.000  0.00  0.00    -0.286 OA
ATOM     11  C   UNL d   1      -0.258   1.238   0.000  0.00  0.00     0.201 A 
ATOM     12  O   UNL d   1       0.454  -0.825   0.000  0.00  0.00    -0.286 OA
ATOM     13  O   UNL d   1      -0.971   1.650   0.000  0.00  0.00    -0.286 OA
ENDROOT
BRANCH   3  14
ATOM     14  C   UNL d   1       3.325  -0.004   0.000  0.00  0.00     0.005 A 
ATOM     15  C   UNL d   1       3.317  -0.829   0.000  0.00  0.00     0.002 A 
ATOM     16  C   UNL d   1       4.029  -1.242   0.000  0.00  0.00     0.024 A 
ATOM     17  C   UNL d   1       4.742  -0.838   0.000  0.00  0.00     0.094 A 
ATOM     18  C   UNL d   1       4.742  -0.004   0.000  0.00  0.00     0.024 A 
ATOM     19  C   UNL d   1       4.029   0.408   0.000  0.00  0.00     0.002 A 
BRANCH  17  20
ATOM     20  O   UNL d   1       5.454  -1.250   0.000  0.00  0.00    -0.328 OA
ATOM     21  C   UNL d   1       6.175  -0.838   0.000  0.00  0.00     0.181 C 
ENDBRANCH  17  20
ENDBRANCH   3  14
TORSDOF 2
