REMARK  8 active torsions:
REMARK  status: ('A' for Active; 'I' for Inactive)
REMARK    1  A    between atoms: C_6  and  N_1 
REMARK    2  A    between atoms: C_7  and  C_2 
REMARK    3  A    between atoms: C_3  and  C_9 
REMARK    4  A    between atoms: O_5  and  C_3 
REMARK    5  A    between atoms: C_4  and  O_5 
REMARK    6  A    between atoms: C_8  and  C_7 
REMARK    7  A    between atoms: C_12  and  C_8 
REMARK    8  A    between atoms: C_10  and  C_12 
ROOT
ATOM      1  C   UNL d   1       0.802  -3.173   0.000  0.00  0.00     0.064 A 
ATOM      2  C   UNL d   1       0.802  -2.347   0.000  0.00  0.00     0.106 A 
ATOM      3  C   UNL d   1       0.079  -3.587   0.000  0.00  0.00     0.035 A 
ATOM      4  C   UNL d   1       0.079  -1.933   0.000  0.00  0.00     0.027 A 
ATOM      5  C   UNL d   1      -0.635  -3.173   0.000  0.00  0.00     0.140 A 
ATOM      6  C   UNL d   1      -0.635  -2.347   0.000  0.00  0.00     0.032 A 
ATOM      7  F   UNL d   1      -1.349  -3.587   0.000  0.00  0.00    -0.204 F 
ENDROOT
BRANCH   2   8
ATOM      8  O   UNL d   1       1.516  -1.929   0.000  0.00  0.00    -0.273 OA
BRANCH   8   9
ATOM      9  C   UNL d   1       1.507  -1.102   0.000  0.00  0.00     0.300 C 
ATOM     10  O   UNL d   1       0.793  -0.693   0.000  0.00  0.00    -0.259 OA
BRANCH   9  11
ATOM     11  C   UNL d   1       2.221  -0.689   0.000  0.00  0.00     0.065 A 
ATOM     12  C   UNL d   1       2.217   0.134   0.000  0.00  0.00     0.029 A 
ATOM     13  C   UNL d   1       2.923   0.551   0.000  0.00  0.00     0.127 A 
ATOM     14  C   UNL d   1       3.649   0.113   0.000  0.00  0.00     0.024 A 
ATOM     15  C   UNL d   1       3.649  -0.681   0.000  0.00  0.00     0.002 A 
ATOM     16  C   UNL d   1       2.935  -1.102   0.000  0.00  0.00     0.005 A 
BRANCH  13  17
ATOM     17  N   UNL d   1       2.935   1.386   0.000  0.00  0.00    -0.114 N 
ATOM     18  O   UNL d   1       3.649   1.787   0.000  0.00  0.00    -0.532 OA
ATOM     19  O   UNL d   1       2.221   1.800   0.000  0.00  0.00    -0.532 OA
ENDBRANCH  13  17
ENDBRANCH   9  11
ENDBRANCH   8   9
ENDBRANCH   2   8
BRANCH   1  20
ATOM     20  C   UNL d   1       1.520  -3.587   0.000  0.00  0.00     0.198 C 
ATOM     21  O   UNL d   1       1.520  -4.413   0.000  0.00  0.00    -0.286 OA
BRANCH  20  22
ATOM     22  C   UNL d   1       2.234  -3.173   0.000  0.00  0.00     0.043 C 
BRANCH  22  23
ATOM     23  C   UNL d   1       2.948  -3.587   0.000  0.00  0.00     0.010 C 
BRANCH  23  24
ATOM     24  C   UNL d   1       3.662  -3.173   0.000  0.00  0.00     0.030 A 
ATOM     25  S   UNL d   1       4.422  -3.499   0.000  0.00  0.00    -0.086 SA
ATOM     26  C   UNL d   1       4.973  -2.885   0.000  0.00  0.00     0.035 A 
ATOM     27  C   UNL d   1       4.559  -2.171   0.000  0.00  0.00     0.007 A 
ATOM     28  C   UNL d   1       3.749  -2.347   0.000  0.00  0.00     0.007 A 
ENDBRANCH  23  24
ENDBRANCH  22  23
ENDBRANCH  20  22
ENDBRANCH   1  20
TORSDOF 8
