REMARK  3 active torsions:
REMARK  status: ('A' for Active; 'I' for Inactive)
REMARK    1  A    between atoms: C_2  and  N_1 
REMARK    2  A    between atoms: N_6  and  C_5 
REMARK    3  A    between atoms: C_12  and  N_6 
ROOT
ATOM      1  C   UNL d   1       1.429   1.238   0.000  0.00  0.00     0.128 A 
ATOM      2  C   UNL d   1       2.143   0.825   0.000  0.00  0.00     0.046 A 
ATOM      3  C   UNL d   1       2.858   1.238   0.000  0.00  0.00     0.122 A 
ATOM      4  C   UNL d   1       2.858   2.062   0.000  0.00  0.00     0.101 A 
ATOM      5  C   UNL d   1       1.429   2.062   0.000  0.00  0.00     0.025 A 
ATOM      6  C   UNL d   1       2.143   2.470   0.000  0.00  0.00     0.022 A 
ATOM      7  N   UNL d   1       3.572   0.825   0.000  0.00  0.00    -0.146 N 
ENDROOT
BRANCH   4   8
ATOM      8  N   UNL d   1       3.572   2.470   0.000  0.00  0.00    -0.244 NA
BRANCH   8   9
ATOM      9  C   UNL d   1       3.572   3.295   0.000  0.00  0.00     0.081 A 
ATOM     10  C   UNL d   1       4.287   3.708   0.000  0.00  0.00     0.019 A 
ATOM     11  C   UNL d   1       4.287   4.532   0.000  0.00  0.00     0.002 A 
ATOM     12  C   UNL d   1       3.572   4.945   0.000  0.00  0.00     0.000 A 
ATOM     13  C   UNL d   1       2.858   4.532   0.000  0.00  0.00     0.002 A 
ATOM     14  C   UNL d   1       2.858   3.708   0.000  0.00  0.00     0.019 A 
ENDBRANCH   8   9
ENDBRANCH   4   8
BRANCH   1  15
ATOM     15  N   UNL d   1       0.715   0.825   0.000  0.00  0.00    -0.114 N 
ATOM     16  O   UNL d   1       0.000   1.238   0.000  0.00  0.00    -0.532 OA
ATOM     17  O   UNL d   1       0.715   0.000   0.000  0.00  0.00    -0.532 OA
ENDBRANCH   1  15
TORSDOF 3
