REMARK  5 active torsions:
REMARK  status: ('A' for Active; 'I' for Inactive)
REMARK    1  A    between atoms: C_2  and  C_1 
REMARK    2  A    between atoms: C_8  and  C_2 
REMARK    3  A    between atoms: O_18  and  C_7 
REMARK    4  A    between atoms: C_13  and  C_8 
REMARK    5  A    between atoms: O_20  and  C_11 
ROOT
ATOM      1  C   UNL d   1       0.329   1.262   0.000  0.00  0.00     0.202 C 
ATOM      2  O   UNL d   1       0.325   2.087   0.000  0.00  0.00    -0.286 OA
ENDROOT
BRANCH   1   3
ATOM      3  C   UNL d   1      -0.383   0.846   0.000  0.00  0.00     0.117 A 
ATOM      4  C   UNL d   1      -1.100   1.258   0.000  0.00  0.00     0.205 A 
ATOM      5  C   UNL d   1      -1.812   0.846   0.000  0.00  0.00     0.084 A 
ATOM      6  O   UNL d   1      -1.108   2.083   0.000  0.00  0.00    -0.286 OA
ATOM      7  C   UNL d   1      -1.812   0.021   0.000  0.00  0.00     0.202 A 
ATOM      8  C   UNL d   1      -1.100  -0.392   0.000  0.00  0.00     0.084 A 
ATOM      9  O   UNL d   1      -2.533  -0.392   0.000  0.00  0.00    -0.286 OA
ATOM     10  C   UNL d   1      -0.383   0.021   0.000  0.00  0.00     0.205 A 
ATOM     11  O   UNL d   1       0.329  -0.392   0.000  0.00  0.00    -0.286 OA
ENDBRANCH   1   3
BRANCH   1  12
ATOM     12  C   UNL d   1       1.042   0.858   0.000  0.00  0.00     0.042 C 
BRANCH  12  13
ATOM     13  C   UNL d   1       1.754   1.271   0.000  0.00  0.00     0.005 A 
ATOM     14  C   UNL d   1       2.467   0.858   0.000  0.00  0.00     0.026 A 
ATOM     15  C   UNL d   1       3.179   1.271   0.000  0.00  0.00     0.116 A 
ATOM     16  C   UNL d   1       3.179   2.096   0.000  0.00  0.00     0.116 A 
ATOM     17  C   UNL d   1       2.462   2.508   0.000  0.00  0.00     0.026 A 
ATOM     18  C   UNL d   1       1.750   2.087   0.000  0.00  0.00     0.002 A 
BRANCH  15  19
ATOM     19  O   UNL d   1       3.900   0.858   0.000  0.00  0.00    -0.326 OA
ATOM     20  C   UNL d   1       4.612   1.271   0.000  0.00  0.00     0.181 C 
ENDBRANCH  15  19
BRANCH  16  21
ATOM     21  O   UNL d   1       3.892   2.521   0.000  0.00  0.00    -0.326 OA
ATOM     22  C   UNL d   1       3.892   3.337   0.000  0.00  0.00     0.181 C 
ENDBRANCH  16  21
ENDBRANCH  12  13
ENDBRANCH   1  12
TORSDOF 5
