REMARK  3 active torsions:
REMARK  status: ('A' for Active; 'I' for Inactive)
REMARK    1  A    between atoms: N_2  and  S_1 
REMARK    2  A    between atoms: N_3  and  S_1 
REMARK    3  A    between atoms: C_6  and  N_2 
ROOT
ATOM      1  C   UNL d   1       2.467   1.542   0.000  0.00  0.00     0.095 A 
ATOM      2  C   UNL d   1       4.139   1.542   0.000  0.00  0.00     0.000 A 
ATOM      3  C   UNL d   1       2.881   0.825   0.000  0.00  0.00     0.020 A 
ATOM      4  C   UNL d   1       2.881   2.251   0.000  0.00  0.00     0.020 A 
ATOM      5  C   UNL d   1       3.731   0.825   0.000  0.00  0.00     0.002 A 
ATOM      6  C   UNL d   1       3.731   2.251   0.000  0.00  0.00     0.002 A 
ATOM      7  C   UNL d   1       4.965   1.542   0.000  0.00  0.00     0.000 C 
ENDROOT
BRANCH   1   8
ATOM      8  N   UNL d   1       1.643   1.542   0.000  0.00  0.00    -0.144 NA
BRANCH   8   9
ATOM      9  S   UNL d   1       1.234   0.825   0.000  0.00  0.00     0.351 S 
ATOM     10  O   UNL d   1       1.945   0.414   0.000  0.00  0.00    -0.180 OA
ATOM     11  O   UNL d   1       1.234   0.000   0.000  0.00  0.00    -0.180 OA
BRANCH   9  12
ATOM     12  N   UNL d   1       0.409   0.825   0.000  0.00  0.00    -0.212 N 
ATOM     13  C   UNL d   1       0.000   1.542   0.000  0.00  0.00     0.113 C 
ATOM     14  C   UNL d   1       0.000   0.111   0.000  0.00  0.00     0.113 C 
ENDBRANCH   9  12
ENDBRANCH   8   9
ENDBRANCH   1   8
TORSDOF 3
