REMARK  3 active torsions:
REMARK  status: ('A' for Active; 'I' for Inactive)
REMARK    1  A    between atoms: C_6  and  N_1 
REMARK    2  A    between atoms: C_5  and  C_9 
REMARK    3  A    between atoms: C_14  and  C_6 
ROOT
ATOM      1  C   UNL d   1      -0.975  -0.029   0.000  0.00  0.00     0.064 A 
ATOM      2  C   UNL d   1      -0.975  -0.854   0.000  0.00  0.00     0.006 A 
ATOM      3  C   UNL d   1      -0.263   0.383   0.000  0.00  0.00     0.006 A 
ATOM      4  C   UNL d   1       0.454  -0.854   0.000  0.00  0.00     0.018 A 
ATOM      5  C   UNL d   1      -0.263  -1.267   0.000  0.00  0.00     0.002 A 
ATOM      6  C   UNL d   1       0.454  -0.029   0.000  0.00  0.00     0.002 A 
ENDROOT
BRANCH   4   7
ATOM      7  C   UNL d   1       1.167  -1.267   0.000  0.00  0.00     0.084 C 
BRANCH   7   8
ATOM      8  N   UNL d   1       1.167  -2.092   0.000  0.00  0.00    -0.259 N 
ATOM      9  C   UNL d   1       1.842  -2.575   0.000  0.00  0.00     0.153 A 
ATOM     10  S   UNL d   1       1.587  -3.354   0.000  0.00  0.00    -0.053 SA
ATOM     11  S   UNL d   1       2.625  -2.312   0.000  0.00  0.00    -0.052 SA
ATOM     12  C   UNL d   1       0.762  -3.354   0.000  0.00  0.00     0.099 A 
ATOM     13  C   UNL d   1       0.504  -2.575   0.000  0.00  0.00     0.272 A 
ATOM     14  O   UNL d   1      -0.283  -2.317   0.000  0.00  0.00    -0.266 OA
ENDBRANCH   7   8
ENDBRANCH   4   7
BRANCH   1  15
ATOM     15  C   UNL d   1      -1.696   0.383   0.000  0.00  0.00     0.211 C 
ATOM     16  O   UNL d   1      -2.408  -0.029   0.000  0.00  0.00    -0.644 OA
ATOM     17  O   UNL d   1      -1.696   1.208   0.000  0.00  0.00    -0.644 OA
ENDBRANCH   1  15
TORSDOF 3
