REMARK  6 active torsions:
REMARK  status: ('A' for Active; 'I' for Inactive)
REMARK       I    between atoms: C_3  and  N_1 
REMARK    1  A    between atoms: C_5  and  N_1 
REMARK    2  A    between atoms: C_2  and  C_3 
REMARK    3  A    between atoms: N_9  and  C_5 
REMARK    4  A    between atoms: C_13  and  N_9 
REMARK    5  A    between atoms: C_11  and  C_13 
REMARK    6  A    between atoms: C_15  and  C_11 
ROOT
ATOM      1  C   UNL d   1      -3.173   4.223   0.000  0.00  0.00     0.224 C 
ATOM      2  S   UNL d   1      -3.173   5.052   0.000  0.00  0.00    -0.037 SA
ENDROOT
BRANCH   1   3
ATOM      3  N   UNL d   1      -2.457   3.813   0.000  0.00  0.00    -0.177 NA
ATOM      4  C   UNL d   1      -1.741   4.236   0.000  0.00  0.00     0.304 C 
ATOM      5  O   UNL d   1      -1.745   5.052   0.000  0.00  0.00    -0.263 OA
BRANCH   4   6
ATOM      6  C   UNL d   1      -1.026   3.826   0.000  0.00  0.00     0.158 A 
ATOM      7  O   UNL d   1      -0.272   4.161   0.000  0.00  0.00    -0.296 OA
ATOM      8  C   UNL d   1       0.281   3.562   0.000  0.00  0.00     0.134 A 
ATOM      9 BR   UNL d   1       1.097   3.650   0.000  0.00  0.00    -0.022 Br
ATOM     10  C   UNL d   1      -0.126   2.846   0.000  0.00  0.00     0.034 A 
ATOM     11  C   UNL d   1      -0.942   3.010   0.000  0.00  0.00     0.032 A 
ENDBRANCH   4   6
ENDBRANCH   1   3
BRANCH   1  12
ATOM     12  N   UNL d   1      -3.889   3.817   0.000  0.00  0.00    -0.212 NA
BRANCH  12  13
ATOM     13  C   UNL d   1      -3.889   3.001   0.000  0.00  0.00     0.143 C 
BRANCH  13  14
ATOM     14  C   UNL d   1      -3.173   2.595   0.000  0.00  0.00     0.215 C 
ATOM     15  O   UNL d   1      -2.457   2.997   0.000  0.00  0.00    -0.285 OA
BRANCH  14  16
ATOM     16  C   UNL d   1      -3.164   1.766   0.000  0.00  0.00     0.041 A 
ATOM     17  C   UNL d   1      -3.880   1.352   0.000  0.00  0.00     0.003 A 
ATOM     18  C   UNL d   1      -3.880   0.527   0.000  0.00  0.00     0.000 A 
ATOM     19  C   UNL d   1      -3.160   0.113   0.000  0.00  0.00     0.000 A 
ATOM     20  C   UNL d   1      -2.444   0.527   0.000  0.00  0.00     0.000 A 
ATOM     21  C   UNL d   1      -2.449   1.356   0.000  0.00  0.00     0.003 A 
ENDBRANCH  14  16
ENDBRANCH  13  14
ENDBRANCH  12  13
ENDBRANCH   1  12
TORSDOF 6
