REMARK  3 active torsions:
REMARK  status: ('A' for Active; 'I' for Inactive)
REMARK    1  A    between atoms: C_5  and  C_1 
REMARK    2  A    between atoms: C_4  and  C_2 
REMARK       I    between atoms: N_8  and  C_4 
REMARK    3  A    between atoms: C_10  and  N_8 
ROOT
ATOM      1  C   UNL d   1      -2.502   5.537   0.000  0.00  0.00     0.118 A 
ATOM      2  C   UNL d   1      -3.177   5.059   0.000  0.00  0.00     0.103 A 
ATOM      3  N   UNL d   1      -2.762   6.317   0.000  0.00  0.00    -0.126 NA
ATOM      4  O   UNL d   1      -3.580   6.330   0.000  0.00  0.00    -0.211 OA
ATOM      5  C   UNL d   1      -3.836   5.546   0.000  0.00  0.00     0.131 A 
ATOM      6  C   UNL d   1      -4.623   5.286   0.000  0.00  0.00     0.029 C 
ENDROOT
BRANCH   2   7
ATOM      7  C   UNL d   1      -3.177   4.230   0.000  0.00  0.00     0.283 C 
ATOM      8  N   UNL d   1      -3.894   3.823   0.000  0.00  0.00    -0.204 NA
ATOM      9  O   UNL d   1      -2.461   3.831   0.000  0.00  0.00    -0.265 OA
BRANCH   8  10
ATOM     10  C   UNL d   1      -3.894   3.001   0.000  0.00  0.00     0.130 A 
ATOM     11  C   UNL d   1      -4.561   2.523   0.000  0.00  0.00     0.243 A 
ATOM     12  S   UNL d   1      -4.313   1.731   0.000  0.00  0.00    -0.044 SA
ATOM     13  O   UNL d   1      -5.340   2.775   0.000  0.00  0.00    -0.278 OA
ATOM     14  C   UNL d   1      -3.492   1.723   0.000  0.00  0.00     0.040 A 
ATOM     15  C   UNL d   1      -3.228   2.515   0.000  0.00  0.00     0.030 A 
ENDBRANCH   8  10
ENDBRANCH   2   7
BRANCH   1  16
ATOM     16  C   UNL d   1      -1.723   5.286   0.000  0.00  0.00     0.058 A 
ATOM     17  C   UNL d   1      -1.102   5.839   0.000  0.00  0.00     0.142 A 
ATOM     18  F   UNL d   1      -1.283   6.644   0.000  0.00  0.00    -0.204 F 
ATOM     19  C   UNL d   1      -0.327   5.575   0.000  0.00  0.00     0.030 A 
ATOM     20  C   UNL d   1      -0.151   4.770   0.000  0.00  0.00     0.003 A 
ATOM     21  C   UNL d   1      -0.775   4.217   0.000  0.00  0.00     0.012 A 
ATOM     22  C   UNL d   1      -1.555   4.477   0.000  0.00  0.00     0.061 A 
ATOM     23 CL   UNL d   1      -1.958   3.743   0.000  0.00  0.00    -0.082 Cl
ENDBRANCH   1  16
TORSDOF 3
