REMARK  5 active torsions:
REMARK  status: ('A' for Active; 'I' for Inactive)
REMARK       I    between atoms: C_3  and  N_1 
REMARK    1  A    between atoms: C_5  and  N_1 
REMARK    2  A    between atoms: C_2  and  C_3 
REMARK    3  A    between atoms: N_10  and  C_5 
REMARK    4  A    between atoms: C_13  and  N_10 
REMARK    5  A    between atoms: C_14  and  C_13 
ROOT
ATOM      1  C   UNL d   1      -3.165   4.213   0.000  0.00  0.00     0.224 C 
ATOM      2  S   UNL d   1      -3.165   5.040   0.000  0.00  0.00    -0.037 SA
ENDROOT
BRANCH   1   3
ATOM      3  N   UNL d   1      -2.451   3.804   0.000  0.00  0.00    -0.177 NA
ATOM      4  C   UNL d   1      -1.737   4.225   0.000  0.00  0.00     0.304 C 
ATOM      5  O   UNL d   1      -1.741   5.040   0.000  0.00  0.00    -0.263 OA
BRANCH   4   6
ATOM      6  C   UNL d   1      -1.023   3.816   0.000  0.00  0.00     0.158 A 
ATOM      7  O   UNL d   1      -0.271   4.150   0.000  0.00  0.00    -0.296 OA
ATOM      8  C   UNL d   1       0.280   3.553   0.000  0.00  0.00     0.134 A 
ATOM      9 BR   UNL d   1       1.094   3.641   0.000  0.00  0.00    -0.022 Br
ATOM     10  C   UNL d   1      -0.125   2.839   0.000  0.00  0.00     0.034 A 
ATOM     11  C   UNL d   1      -0.939   3.002   0.000  0.00  0.00     0.032 A 
ENDBRANCH   4   6
ENDBRANCH   1   3
BRANCH   1  12
ATOM     12  N   UNL d   1      -3.879   3.808   0.000  0.00  0.00    -0.216 NA
BRANCH  12  13
ATOM     13  C   UNL d   1      -3.879   2.994   0.000  0.00  0.00     0.101 C 
BRANCH  13  14
ATOM     14  C   UNL d   1      -3.165   2.589   0.000  0.00  0.00     0.019 A 
ATOM     15  C   UNL d   1      -2.451   3.002   0.000  0.00  0.00     0.002 A 
ATOM     16  C   UNL d   1      -1.737   2.589   0.000  0.00  0.00     0.000 A 
ATOM     17  C   UNL d   1      -1.737   1.762   0.000  0.00  0.00     0.000 A 
ATOM     18  C   UNL d   1      -2.451   1.349   0.000  0.00  0.00     0.000 A 
ATOM     19  C   UNL d   1      -3.165   1.762   0.000  0.00  0.00     0.002 A 
ENDBRANCH  13  14
ENDBRANCH  12  13
ENDBRANCH   1  12
TORSDOF 5
