REMARK  5 active torsions:
REMARK  status: ('A' for Active; 'I' for Inactive)
REMARK    1  A    between atoms: N_2  and  C_14 
REMARK    2  A    between atoms: C_17  and  N_4 
REMARK    3  A    between atoms: C_15  and  C_9 
REMARK    4  A    between atoms: C_14  and  O_16 
REMARK    5  A    between atoms: O_16  and  C_15 
ROOT
ATOM      1  C   UNL d   1       0.856   5.077   0.000  0.00  0.00     0.114 A 
ATOM      2  C   UNL d   1       1.570   4.664   0.000  0.00  0.00     0.044 A 
ATOM      3  N   UNL d   1       1.031   5.879   0.000  0.00  0.00    -0.224 N 
ATOM      4  N   UNL d   1       1.845   5.966   0.000  0.00  0.00    -0.165 NA
ATOM      5  S   UNL d   1       0.255   4.534   0.000  0.00  0.00    -0.062 SA
ATOM      6  C   UNL d   1       0.580   3.779   0.000  0.00  0.00     0.094 A 
ATOM      7  C   UNL d   1       1.403   3.870   0.000  0.00  0.00     0.015 A 
ATOM      8  C   UNL d   1       2.184   5.223   0.000  0.00  0.00     0.103 A 
ATOM      9  C   UNL d   1       2.985   5.052   0.000  0.00  0.00     0.022 C 
ENDROOT
BRANCH   6  10
ATOM     10  C   UNL d   1       0.167   3.069   0.000  0.00  0.00     0.307 C 
ATOM     11  O   UNL d   1       0.580   2.351   0.000  0.00  0.00    -0.258 OA
BRANCH  10  12
ATOM     12  O   UNL d   1      -0.660   3.069   0.000  0.00  0.00    -0.252 OA
BRANCH  12  13
ATOM     13  C   UNL d   1      -1.073   2.351   0.000  0.00  0.00     0.216 C 
BRANCH  13  14
ATOM     14  N   UNL d   1      -1.900   2.351   0.000  0.00  0.00    -0.218 N 
ATOM     15  C   UNL d   1      -2.380   1.687   0.000  0.00  0.00     0.269 A 
ATOM     16  C   UNL d   1      -3.169   1.937   0.000  0.00  0.00     0.061 A 
ATOM     17  O   UNL d   1      -2.125   0.898   0.000  0.00  0.00    -0.267 OA
ATOM     18  C   UNL d   1      -3.883   1.528   0.000  0.00  0.00     0.005 A 
ATOM     19  C   UNL d   1      -3.169   2.764   0.000  0.00  0.00     0.061 A 
ATOM     20  C   UNL d   1      -4.593   1.937   0.000  0.00  0.00     0.000 A 
ATOM     21  C   UNL d   1      -4.593   2.764   0.000  0.00  0.00     0.000 A 
ATOM     22  C   UNL d   1      -3.883   3.182   0.000  0.00  0.00     0.005 A 
ATOM     23  C   UNL d   1      -2.380   3.027   0.000  0.00  0.00     0.269 A 
ATOM     24  O   UNL d   1      -2.125   3.808   0.000  0.00  0.00    -0.267 OA
ENDBRANCH  13  14
ENDBRANCH  12  13
ENDBRANCH  10  12
ENDBRANCH   6  10
BRANCH   3  25
ATOM     25  C   UNL d   1       0.480   6.493   0.000  0.00  0.00     0.083 A 
ATOM     26  C   UNL d   1      -0.322   6.317   0.000  0.00  0.00     0.019 A 
ATOM     27  C   UNL d   1      -0.873   6.931   0.000  0.00  0.00     0.002 A 
ATOM     28  C   UNL d   1      -0.622   7.720   0.000  0.00  0.00     0.000 A 
ATOM     29  C   UNL d   1       0.192   7.891   0.000  0.00  0.00     0.002 A 
ATOM     30  C   UNL d   1       0.743   7.282   0.000  0.00  0.00     0.019 A 
ENDBRANCH   3  25
TORSDOF 5
