REMARK  6 active torsions:
REMARK  status: ('A' for Active; 'I' for Inactive)
REMARK    1  A    between atoms: C_3  and  C_1 
REMARK    2  A    between atoms: C_7  and  C_2 
REMARK       I    between atoms: N_5  and  C_3 
REMARK    3  A    between atoms: C_6  and  N_5 
REMARK    4  A    between atoms: N_10  and  C_6 
REMARK    5  A    between atoms: C_11  and  N_10 
REMARK    6  A    between atoms: O_18  and  C_15 
ROOT
ATOM      1  C   UNL d   1      -1.737   4.213   0.000  0.00  0.00     0.285 C 
ATOM      2  N   UNL d   1      -2.451   3.816   0.000  0.00  0.00    -0.179 NA
ATOM      3  O   UNL d   1      -1.737   5.040   0.000  0.00  0.00    -0.265 OA
ENDROOT
BRANCH   1   4
ATOM      4  C   UNL d   1      -1.023   3.816   0.000  0.00  0.00     0.103 A 
ATOM      5  C   UNL d   1      -0.939   2.994   0.000  0.00  0.00     0.116 A 
ATOM      6  N   UNL d   1      -0.134   2.827   0.000  0.00  0.00    -0.126 NA
ATOM      7  O   UNL d   1       0.280   3.541   0.000  0.00  0.00    -0.211 OA
ATOM      8  C   UNL d   1      -0.271   4.138   0.000  0.00  0.00     0.131 A 
ATOM      9  C   UNL d   1      -0.100   4.939   0.000  0.00  0.00     0.029 C 
BRANCH   5  10
ATOM     10  C   UNL d   1      -1.549   2.443   0.000  0.00  0.00     0.031 A 
ATOM     11  C   UNL d   1      -1.378   1.641   0.000  0.00  0.00     0.059 A 
ATOM     12 CL   UNL d   1      -0.597   1.390   0.000  0.00  0.00    -0.082 Cl
ATOM     13  C   UNL d   1      -1.987   1.098   0.000  0.00  0.00     0.011 A 
ATOM     14  C   UNL d   1      -2.776   1.349   0.000  0.00  0.00     0.001 A 
ATOM     15  C   UNL d   1      -2.939   2.155   0.000  0.00  0.00     0.000 A 
ATOM     16  C   UNL d   1      -2.330   2.714   0.000  0.00  0.00     0.002 A 
ENDBRANCH   5  10
ENDBRANCH   1   4
BRANCH   2  17
ATOM     17  C   UNL d   1      -3.165   4.213   0.000  0.00  0.00     0.224 C 
ATOM     18  S   UNL d   1      -3.165   5.040   0.000  0.00  0.00    -0.037 SA
BRANCH  17  19
ATOM     19  N   UNL d   1      -3.879   3.808   0.000  0.00  0.00    -0.215 NA
BRANCH  19  20
ATOM     20  C   UNL d   1      -3.879   2.990   0.000  0.00  0.00     0.106 A 
ATOM     21  C   UNL d   1      -4.605   2.576   0.000  0.00  0.00     0.112 A 
ATOM     22  C   UNL d   1      -4.605   1.749   0.000  0.00  0.00     0.026 A 
ATOM     23  C   UNL d   1      -3.891   1.336   0.000  0.00  0.00     0.002 A 
ATOM     24  C   UNL d   1      -3.169   1.741   0.000  0.00  0.00     0.002 A 
ATOM     25  C   UNL d   1      -3.165   2.568   0.000  0.00  0.00     0.021 A 
BRANCH  21  26
ATOM     26  O   UNL d   1      -5.311   2.994   0.000  0.00  0.00    -0.327 OA
ATOM     27  C   UNL d   1      -6.025   2.589   0.000  0.00  0.00     0.181 C 
ENDBRANCH  21  26
ENDBRANCH  19  20
ENDBRANCH  17  19
ENDBRANCH   2  17
TORSDOF 6
