REMARK  5 active torsions:
REMARK  status: ('A' for Active; 'I' for Inactive)
REMARK    1  A    between atoms: C_3  and  C_1 
REMARK    2  A    between atoms: C_7  and  C_2 
REMARK       I    between atoms: N_5  and  C_3 
REMARK    3  A    between atoms: C_6  and  N_5 
REMARK    4  A    between atoms: N_10  and  C_6 
REMARK    5  A    between atoms: C_11  and  N_10 
ROOT
ATOM      1  C   UNL d   1      -1.023   3.816   0.000  0.00  0.00     0.103 A 
ATOM      2  C   UNL d   1      -0.939   2.994   0.000  0.00  0.00     0.116 A 
ATOM      3  N   UNL d   1      -0.134   2.827   0.000  0.00  0.00    -0.126 NA
ATOM      4  O   UNL d   1       0.280   3.541   0.000  0.00  0.00    -0.211 OA
ATOM      5  C   UNL d   1      -0.271   4.138   0.000  0.00  0.00     0.131 A 
ATOM      6  C   UNL d   1      -0.100   4.939   0.000  0.00  0.00     0.029 C 
ENDROOT
BRANCH   1   7
ATOM      7  C   UNL d   1      -1.737   4.213   0.000  0.00  0.00     0.285 C 
ATOM      8  N   UNL d   1      -2.451   3.816   0.000  0.00  0.00    -0.179 NA
ATOM      9  O   UNL d   1      -1.737   5.040   0.000  0.00  0.00    -0.265 OA
BRANCH   8  10
ATOM     10  C   UNL d   1      -3.165   4.213   0.000  0.00  0.00     0.224 C 
ATOM     11  S   UNL d   1      -3.165   5.040   0.000  0.00  0.00    -0.037 SA
BRANCH  10  12
ATOM     12  N   UNL d   1      -3.879   3.808   0.000  0.00  0.00    -0.215 NA
BRANCH  12  13
ATOM     13  C   UNL d   1      -3.879   3.002   0.000  0.00  0.00     0.111 A 
ATOM     14  C   UNL d   1      -4.593   2.589   0.000  0.00  0.00     0.158 A 
ATOM     15  F   UNL d   1      -5.307   3.002   0.000  0.00  0.00    -0.203 F 
ATOM     16  C   UNL d   1      -4.593   1.762   0.000  0.00  0.00     0.031 A 
ATOM     17  C   UNL d   1      -3.883   1.349   0.000  0.00  0.00     0.002 A 
ATOM     18  C   UNL d   1      -3.165   1.762   0.000  0.00  0.00     0.002 A 
ATOM     19  C   UNL d   1      -3.165   2.589   0.000  0.00  0.00     0.021 A 
ENDBRANCH  12  13
ENDBRANCH  10  12
ENDBRANCH   8  10
ENDBRANCH   1   7
BRANCH   2  20
ATOM     20  C   UNL d   1      -1.549   2.443   0.000  0.00  0.00     0.031 A 
ATOM     21  C   UNL d   1      -1.378   1.641   0.000  0.00  0.00     0.059 A 
ATOM     22 CL   UNL d   1      -0.597   1.390   0.000  0.00  0.00    -0.082 Cl
ATOM     23  C   UNL d   1      -1.987   1.098   0.000  0.00  0.00     0.011 A 
ATOM     24  C   UNL d   1      -2.776   1.349   0.000  0.00  0.00     0.001 A 
ATOM     25  C   UNL d   1      -2.939   2.155   0.000  0.00  0.00     0.000 A 
ATOM     26  C   UNL d   1      -2.330   2.714   0.000  0.00  0.00     0.002 A 
ENDBRANCH   2  20
TORSDOF 5
