REMARK  5 active torsions:
REMARK  status: ('A' for Active; 'I' for Inactive)
REMARK    1  A    between atoms: C_10  and  N_1 
REMARK    2  A    between atoms: C_7  and  C_2 
REMARK    3  A    between atoms: C_3  and  C_11 
REMARK    4  A    between atoms: O_14  and  C_10 
REMARK    5  A    between atoms: C_11  and  O_14 
ROOT
ATOM      1  C   UNL d   1       3.296  -0.803   0.000  0.00  0.00     0.305 C 
ATOM      2  O   UNL d   1       3.708  -1.523   0.000  0.00  0.00    -0.259 OA
ENDROOT
BRANCH   1   3
ATOM      3  C   UNL d   1       3.708  -0.092   0.000  0.00  0.00     0.108 A 
ATOM      4  C   UNL d   1       4.532  -0.004   0.000  0.00  0.00     0.118 A 
ATOM      5  N   UNL d   1       4.711   0.795   0.000  0.00  0.00    -0.126 NA
ATOM      6  O   UNL d   1       3.987   1.207   0.000  0.00  0.00    -0.211 OA
ATOM      7  C   UNL d   1       3.375   0.657   0.000  0.00  0.00     0.132 A 
ATOM      8  C   UNL d   1       2.576   0.832   0.000  0.00  0.00     0.029 C 
BRANCH   4   9
ATOM      9  C   UNL d   1       5.085  -0.616   0.000  0.00  0.00     0.058 A 
ATOM     10  C   UNL d   1       4.836  -1.398   0.000  0.00  0.00     0.061 A 
ATOM     11 CL   UNL d   1       4.170  -1.960   0.000  0.00  0.00    -0.082 Cl
ATOM     12  C   UNL d   1       5.381  -2.010   0.000  0.00  0.00     0.012 A 
ATOM     13  C   UNL d   1       6.184  -1.835   0.000  0.00  0.00     0.003 A 
ATOM     14  C   UNL d   1       6.446  -1.040   0.000  0.00  0.00     0.030 A 
ATOM     15  C   UNL d   1       5.893  -0.441   0.000  0.00  0.00     0.142 A 
ATOM     16  F   UNL d   1       6.134   0.345   0.000  0.00  0.00    -0.204 F 
ENDBRANCH   4   9
ENDBRANCH   1   3
BRANCH   1  17
ATOM     17  O   UNL d   1       2.464  -0.803   0.000  0.00  0.00    -0.252 OA
BRANCH  17  18
ATOM     18  C   UNL d   1       2.052  -1.523   0.000  0.00  0.00     0.216 C 
BRANCH  18  19
ATOM     19  N   UNL d   1       1.224  -1.523   0.000  0.00  0.00    -0.218 N 
ATOM     20  C   UNL d   1       0.741  -2.185   0.000  0.00  0.00     0.269 A 
ATOM     21  C   UNL d   1      -0.046  -1.935   0.000  0.00  0.00     0.061 A 
ATOM     22  O   UNL d   1       0.999  -2.976   0.000  0.00  0.00    -0.267 OA
ATOM     23  C   UNL d   1      -0.762  -2.347   0.000  0.00  0.00     0.005 A 
ATOM     24  C   UNL d   1      -0.046  -1.103   0.000  0.00  0.00     0.061 A 
ATOM     25  C   UNL d   1      -1.473  -1.935   0.000  0.00  0.00     0.000 A 
ATOM     26  C   UNL d   1      -1.473  -1.103   0.000  0.00  0.00     0.000 A 
ATOM     27  C   UNL d   1      -0.762  -0.691   0.000  0.00  0.00     0.005 A 
ATOM     28  C   UNL d   1       0.741  -0.841   0.000  0.00  0.00     0.269 A 
ATOM     29  O   UNL d   1       0.999  -0.062   0.000  0.00  0.00    -0.267 OA
ENDBRANCH  18  19
ENDBRANCH  17  18
ENDBRANCH   1  17
TORSDOF 5
