REMARK  7 active torsions:
REMARK  status: ('A' for Active; 'I' for Inactive)
REMARK    1  A    between atoms: C_3  and  C_1 
REMARK    2  A    between atoms: C_6  and  C_2 
REMARK       I    between atoms: N_5  and  C_3 
REMARK    3  A    between atoms: C_9  and  N_5 
REMARK    4  A    between atoms: N_10  and  C_9 
REMARK    5  A    between atoms: C_15  and  N_10 
REMARK    6  A    between atoms: C_13  and  C_15 
REMARK    7  A    between atoms: C_17  and  C_13 
ROOT
ATOM      1  C   UNL d   1       2.649   0.732   0.000  0.00  0.00     0.285 C 
ATOM      2  N   UNL d   1       1.909   0.370   0.000  0.00  0.00    -0.179 NA
ATOM      3  O   UNL d   1       2.711   1.555   0.000  0.00  0.00    -0.265 OA
ENDROOT
BRANCH   1   4
ATOM      4  C   UNL d   1       3.335   0.258   0.000  0.00  0.00     0.103 A 
ATOM      5  C   UNL d   1       3.356  -0.561   0.000  0.00  0.00     0.116 A 
ATOM      6  N   UNL d   1       4.142  -0.798   0.000  0.00  0.00    -0.126 NA
ATOM      7  O   UNL d   1       4.608  -0.117   0.000  0.00  0.00    -0.211 OA
ATOM      8  C   UNL d   1       4.109   0.532   0.000  0.00  0.00     0.131 A 
ATOM      9  C   UNL d   1       4.354   1.322   0.000  0.00  0.00     0.029 C 
BRANCH   5  10
ATOM     10  C   UNL d   1       2.724  -1.090   0.000  0.00  0.00     0.031 A 
ATOM     11  C   UNL d   1       2.861  -1.901   0.000  0.00  0.00     0.059 A 
ATOM     12 CL   UNL d   1       3.643  -2.196   0.000  0.00  0.00    -0.082 Cl
ATOM     13  C   UNL d   1       2.237  -2.425   0.000  0.00  0.00     0.011 A 
ATOM     14  C   UNL d   1       1.464  -2.138   0.000  0.00  0.00     0.001 A 
ATOM     15  C   UNL d   1       1.322  -1.335   0.000  0.00  0.00     0.000 A 
ATOM     16  C   UNL d   1       1.950  -0.803   0.000  0.00  0.00     0.002 A 
ENDBRANCH   5  10
ENDBRANCH   1   4
BRANCH   2  17
ATOM     17  C   UNL d   1       1.227   0.832   0.000  0.00  0.00     0.224 C 
ATOM     18  S   UNL d   1       1.289   1.655   0.000  0.00  0.00    -0.037 SA
BRANCH  17  19
ATOM     19  N   UNL d   1       0.487   0.470   0.000  0.00  0.00    -0.212 NA
BRANCH  19  20
ATOM     20  C   UNL d   1      -0.195   0.936   0.000  0.00  0.00     0.143 C 
BRANCH  20  21
ATOM     21  C   UNL d   1      -0.944   0.582   0.000  0.00  0.00     0.215 C 
ATOM     22  O   UNL d   1      -1.622   1.044   0.000  0.00  0.00    -0.285 OA
BRANCH  21  23
ATOM     23  C   UNL d   1      -1.006  -0.241   0.000  0.00  0.00     0.041 A 
ATOM     24  C   UNL d   1      -1.742  -0.603   0.000  0.00  0.00     0.003 A 
ATOM     25  C   UNL d   1      -1.805  -1.426   0.000  0.00  0.00     0.000 A 
ATOM     26  C   UNL d   1      -1.119  -1.888   0.000  0.00  0.00     0.000 A 
ATOM     27  C   UNL d   1      -0.383  -1.526   0.000  0.00  0.00     0.000 A 
ATOM     28  C   UNL d   1      -0.320  -0.703   0.000  0.00  0.00     0.003 A 
ENDBRANCH  21  23
ENDBRANCH  20  21
ENDBRANCH  19  20
ENDBRANCH  17  19
ENDBRANCH   2  17
TORSDOF 7
