REMARK  8 active torsions:
REMARK  status: ('A' for Active; 'I' for Inactive)
REMARK    1  A    between atoms: C_6  and  C_1 
REMARK    2  A    between atoms: C_7  and  C_2 
REMARK    3  A    between atoms: C_14  and  N_4 
REMARK    4  A    between atoms: C_8  and  C_6 
REMARK    5  A    between atoms: C_9  and  C_8 
REMARK    6  A    between atoms: C_12  and  C_9 
REMARK    7  A    between atoms: C_10  and  C_11 
REMARK    8  A    between atoms: C_11  and  C_14 
ROOT
ATOM      1  C   UNL d   1       0.667   1.200   0.000  0.00  0.00     0.039 A 
ATOM      2  C   UNL d   1      -0.033   0.796   0.000  0.00  0.00     0.103 A 
ATOM      3  N   UNL d   1      -0.033  -0.013   0.000  0.00  0.00    -0.165 NA
ATOM      4  N   UNL d   1       1.375  -0.013   0.000  0.00  0.00    -0.227 N 
ATOM      5  C   UNL d   1       1.375   0.796   0.000  0.00  0.00     0.102 A 
ENDROOT
BRANCH   1   6
ATOM      6  C   UNL d   1       0.675   2.025   0.000  0.00  0.00     0.006 C 
BRANCH   6   7
ATOM      7  C   UNL d   1       1.392   2.438   0.000  0.00  0.00     0.042 C 
BRANCH   7   8
ATOM      8  C   UNL d   1       2.117   2.025   0.000  0.00  0.00     0.196 C 
ATOM      9  O   UNL d   1       2.112   1.200   0.000  0.00  0.00    -0.287 OA
BRANCH   8  10
ATOM     10  C   UNL d   1       2.704   2.608   0.000  0.00  0.00     0.039 A 
ATOM     11  C   UNL d   1       3.504   2.400   0.000  0.00  0.00     0.004 A 
ATOM     12  C   UNL d   1       4.092   2.983   0.000  0.00  0.00     0.011 A 
ATOM     13  C   UNL d   1       3.879   3.783   0.000  0.00  0.00     0.058 A 
ATOM     14  C   UNL d   1       3.067   3.987   0.000  0.00  0.00     0.011 A 
ATOM     15 CL   UNL d   1       4.463   4.367   0.000  0.00  0.00    -0.082 Cl
ATOM     16  C   UNL d   1       2.479   3.408   0.000  0.00  0.00     0.004 A 
ENDBRANCH   8  10
ENDBRANCH   7   8
ENDBRANCH   6   7
ENDBRANCH   1   6
BRANCH   2  17
ATOM     17  C   UNL d   1      -0.746   1.196   0.000  0.00  0.00     0.020 A 
ATOM     18  C   UNL d   1      -1.446   0.787   0.000  0.00  0.00     0.008 A 
ATOM     19  C   UNL d   1      -2.158   1.196   0.000  0.00  0.00     0.035 A 
ATOM     20 BR   UNL d   1      -2.862   0.775   0.000  0.00  0.00    -0.049 Br
ATOM     21  C   UNL d   1      -2.158   2.000   0.000  0.00  0.00     0.007 A 
ATOM     22  C   UNL d   1      -1.450   2.408   0.000  0.00  0.00     0.001 A 
ATOM     23  C   UNL d   1      -0.746   2.008   0.000  0.00  0.00     0.002 A 
ENDBRANCH   2  17
BRANCH   4  24
ATOM     24  C   UNL d   1       1.950  -0.588   0.000  0.00  0.00     0.107 C 
BRANCH  24  25
ATOM     25  C   UNL d   1       2.667  -0.167   0.000  0.00  0.00     0.091 C 
BRANCH  25  26
ATOM     26  C   UNL d   1       3.254  -0.750   0.000  0.00  0.00     0.213 C 
ATOM     27  O   UNL d   1       4.067  -0.537   0.000  0.00  0.00    -0.644 OA
ATOM     28  O   UNL d   1       3.042  -1.542   0.000  0.00  0.00    -0.644 OA
ENDBRANCH  25  26
ENDBRANCH  24  25
ENDBRANCH   4  24
TORSDOF 8
