REMARK  4 active torsions:
REMARK  status: ('A' for Active; 'I' for Inactive)
REMARK    1  A    between atoms: C_8  and  C_2 
REMARK    2  A    between atoms: O_6  and  C_8 
REMARK    3  A    between atoms: C_7  and  O_6 
REMARK    4  A    between atoms: O_10  and  C_9 
ROOT
ATOM      1  C   UNL d   1       3.381   1.294   0.000  0.00  0.00     0.161 C 
ENDROOT
BRANCH   1   2
ATOM      2  O   UNL d   1       4.039   1.679   0.000  0.00  0.00    -0.300 OA
BRANCH   2   3
ATOM      3  C   UNL d   1       4.783   1.267   0.000  0.00  0.00     0.122 A 
ATOM      4  C   UNL d   1       5.468   1.679   0.000  0.00  0.00     0.117 A 
ATOM      5  C   UNL d   1       6.188   1.267   0.000  0.00  0.00     0.026 A 
ATOM      6  C   UNL d   1       6.188   0.442   0.000  0.00  0.00     0.002 A 
ATOM      7  C   UNL d   1       5.468   0.000   0.000  0.00  0.00     0.002 A 
ATOM      8  C   UNL d   1       4.754   0.442   0.000  0.00  0.00     0.027 A 
BRANCH   4   9
ATOM      9  O   UNL d   1       5.468   2.500   0.000  0.00  0.00    -0.326 OA
ATOM     10  C   UNL d   1       6.158   2.912   0.000  0.00  0.00     0.181 C 
ENDBRANCH   4   9
ENDBRANCH   2   3
ENDBRANCH   1   2
BRANCH   1  11
ATOM     11  C   UNL d   1       2.691   1.706   0.000  0.00  0.00     0.188 A 
ATOM     12  N   UNL d   1       2.198   2.365   0.000  0.00  0.00    -0.224 NA
ATOM     13  C   UNL d   1       1.429   2.119   0.000  0.00  0.00     0.101 A 
ATOM     14  C   UNL d   1       1.429   1.294   0.000  0.00  0.00     0.101 A 
ATOM     15  C   UNL d   1       0.715   2.500   0.000  0.00  0.00     0.021 A 
ATOM     16  C   UNL d   1       0.715   0.881   0.000  0.00  0.00     0.021 A 
ATOM     17  N   UNL d   1       2.198   1.046   0.000  0.00  0.00    -0.224 NA
ATOM     18  C   UNL d   1       0.000   1.294   0.000  0.00  0.00     0.002 A 
ATOM     19  C   UNL d   1       0.000   2.119   0.000  0.00  0.00     0.002 A 
ENDBRANCH   1  11
TORSDOF 4
