REMARK  4 active torsions:
REMARK  status: ('A' for Active; 'I' for Inactive)
REMARK    1  A    between atoms: C_9  and  C_3 
REMARK    2  A    between atoms: C_6  and  C_10 
REMARK    3  A    between atoms: S_7  and  C_9 
REMARK    4  A    between atoms: C_10  and  S_7 
ROOT
ATOM      1  N   UNL d   1       2.198   2.092   0.000  0.00  0.00    -0.218 NA
ATOM      2  N   UNL d   1       2.198   0.771   0.000  0.00  0.00    -0.218 NA
ATOM      3  C   UNL d   1       2.691   1.434   0.000  0.00  0.00     0.206 A 
ATOM      4  C   UNL d   1       1.429   1.846   0.000  0.00  0.00     0.101 A 
ATOM      5  C   UNL d   1       1.429   1.021   0.000  0.00  0.00     0.101 A 
ATOM      6  C   UNL d   1       0.715   2.229   0.000  0.00  0.00     0.021 A 
ATOM      7  C   UNL d   1       0.715   0.609   0.000  0.00  0.00     0.021 A 
ATOM      8  C   UNL d   1       0.000   1.846   0.000  0.00  0.00     0.002 A 
ATOM      9  C   UNL d   1       0.000   1.021   0.000  0.00  0.00     0.002 A 
ENDROOT
BRANCH   3  10
ATOM     10  C   UNL d   1       3.516   1.434   0.000  0.00  0.00    -0.027 C 
BRANCH  10  11
ATOM     11  S   UNL d   1       4.341   1.434   0.000  0.00  0.00    -0.041 SA
BRANCH  11  12
ATOM     12  C   UNL d   1       4.754   0.719   0.000  0.00  0.00     0.043 C 
BRANCH  12  13
ATOM     13  C   UNL d   1       5.579   0.719   0.000  0.00  0.00     0.007 C 
ATOM     14  C   UNL d   1       5.991   0.000   0.000  0.00  0.00     0.001 C 
ATOM     15  C   UNL d   1       5.991   1.434   0.000  0.00  0.00     0.001 C 
ENDBRANCH  12  13
ENDBRANCH  11  12
ENDBRANCH  10  11
ENDBRANCH   3  10
TORSDOF 4
