REMARK  4 active torsions:
REMARK  status: ('A' for Active; 'I' for Inactive)
REMARK    1  A    between atoms: C_6  and  C_1 
REMARK    2  A    between atoms: C_8  and  N_3 
REMARK    3  A    between atoms: C_7  and  C_4 
REMARK    4  A    between atoms: O_16  and  C_13 
ROOT
ATOM      1  C   UNL d   1       0.438   1.746   0.000  0.00  0.00     0.103 A 
ATOM      2  N   UNL d   1      -0.272   0.506   0.000  0.00  0.00    -0.165 NA
ATOM      3  N   UNL d   1       1.149   0.506   0.000  0.00  0.00    -0.228 N 
ATOM      4  C   UNL d   1      -0.272   1.326   0.000  0.00  0.00     0.109 A 
ATOM      5  C   UNL d   1       1.149   1.326   0.000  0.00  0.00     0.108 A 
ENDROOT
BRANCH   4   6
ATOM      6  C   UNL d   1      -0.983   1.736   0.000  0.00  0.00     0.020 A 
ATOM      7  C   UNL d   1      -0.983   2.563   0.000  0.00  0.00     0.004 A 
ATOM      8  C   UNL d   1      -1.704   2.977   0.000  0.00  0.00     0.024 A 
ATOM      9  C   UNL d   1      -2.415   2.563   0.000  0.00  0.00     0.094 A 
ATOM     10  C   UNL d   1      -2.415   1.736   0.000  0.00  0.00     0.024 A 
ATOM     11  C   UNL d   1      -1.694   1.322   0.000  0.00  0.00     0.004 A 
BRANCH   9  12
ATOM     12  O   UNL d   1      -3.157   2.987   0.000  0.00  0.00    -0.328 OA
ATOM     13  C   UNL d   1      -3.157   3.833   0.000  0.00  0.00     0.181 C 
ENDBRANCH   9  12
ENDBRANCH   4   6
BRANCH   1  14
ATOM     14  C   UNL d   1       0.438   2.567   0.000  0.00  0.00     0.214 C 
ATOM     15  O   UNL d   1      -0.272   2.987   0.000  0.00  0.00    -0.644 OA
ATOM     16  O   UNL d   1       1.181   2.998   0.000  0.00  0.00    -0.644 OA
ENDBRANCH   1  14
BRANCH   3  17
ATOM     17  C   UNL d   1       1.732  -0.078   0.000  0.00  0.00     0.083 A 
ATOM     18  C   UNL d   1       1.520  -0.873   0.000  0.00  0.00     0.019 A 
ATOM     19  C   UNL d   1       2.104  -1.457   0.000  0.00  0.00     0.002 A 
ATOM     20  C   UNL d   1       2.899  -1.244   0.000  0.00  0.00     0.000 A 
ATOM     21  C   UNL d   1       3.111  -0.449   0.000  0.00  0.00     0.002 A 
ATOM     22  C   UNL d   1       2.528   0.134   0.000  0.00  0.00     0.019 A 
ENDBRANCH   3  17
TORSDOF 4
