REMARK  4 active torsions:
REMARK  status: ('A' for Active; 'I' for Inactive)
REMARK    1  A    between atoms: C_6  and  N_1 
REMARK    2  A    between atoms: C_10  and  C_4 
REMARK    3  A    between atoms: C_8  and  C_6 
REMARK    4  A    between atoms: C_9  and  C_8 
ROOT
ATOM      1  N   UNL d   1      -0.891  -0.434   0.000  0.00  0.00    -0.305 N 
ATOM      2  C   UNL d   1      -1.677   0.653   0.000  0.00  0.00     0.057 A 
ATOM      3  C   UNL d   1      -1.677  -0.182   0.000  0.00  0.00     0.067 A 
ATOM      4  C   UNL d   1      -0.412   0.223   0.000  0.00  0.00     0.064 A 
ATOM      5  C   UNL d   1      -0.891   0.902   0.000  0.00  0.00     0.022 A 
ATOM      6  C   UNL d   1      -2.390   1.065   0.000  0.00  0.00     0.197 A 
ATOM      7  O   UNL d   1      -2.390   1.900   0.000  0.00  0.00    -0.286 OA
ATOM      8  C   UNL d   1      -2.390  -0.594   0.000  0.00  0.00     0.018 A 
ATOM      9  C   UNL d   1      -3.102   0.653   0.000  0.00  0.00     0.042 A 
ATOM     10  C   UNL d   1      -3.102  -0.167   0.000  0.00  0.00     0.005 A 
ENDROOT
BRANCH   4  11
ATOM     11  C   UNL d   1       0.390   0.475   0.000  0.00  0.00     0.016 A 
ATOM     12  C   UNL d   1       0.568   1.276   0.000  0.00  0.00     0.001 A 
ATOM     13  C   UNL d   1       1.351   1.525   0.000  0.00  0.00     0.000 A 
ATOM     14  C   UNL d   1       1.952   0.954   0.000  0.00  0.00     0.000 A 
ATOM     15  C   UNL d   1       1.781   0.152   0.000  0.00  0.00     0.000 A 
ATOM     16  C   UNL d   1       0.995  -0.093   0.000  0.00  0.00     0.001 A 
ENDBRANCH   4  11
BRANCH   1  17
ATOM     17  C   UNL d   1      -0.609  -1.217   0.000  0.00  0.00     0.086 C 
BRANCH  17  18
ATOM     18  C   UNL d   1      -1.158  -1.841   0.000  0.00  0.00     0.089 C 
BRANCH  18  19
ATOM     19  C   UNL d   1      -0.909  -2.627   0.000  0.00  0.00     0.213 C 
ATOM     20  O   UNL d   1      -0.108  -2.805   0.000  0.00  0.00    -0.644 OA
ATOM     21  O   UNL d   1      -1.443  -3.251   0.000  0.00  0.00    -0.644 OA
ENDBRANCH  18  19
ENDBRANCH  17  18
ENDBRANCH   1  17
TORSDOF 4
