REMARK  2 active torsions:
REMARK  status: ('A' for Active; 'I' for Inactive)
REMARK    1  A    between atoms: C_9  and  C_4 
REMARK    2  A    between atoms: C_13  and  C_6 
ROOT
ATOM      1  N   UNL d   1       4.707  -2.173   0.000  0.00  0.00    -0.185 N 
ATOM      2  C   UNL d   1       4.961  -1.386   0.000  0.00  0.00     0.219 A 
ATOM      3  N   UNL d   1       5.369  -2.651   0.000  0.00  0.00    -0.153 NA
ATOM      4  C   UNL d   1       6.035  -2.173   0.000  0.00  0.00     0.156 A 
ATOM      5  S   UNL d   1       5.785  -1.390   0.000  0.00  0.00    -0.024 SA
ATOM      6  C   UNL d   1       3.883  -2.173   0.000  0.00  0.00     0.187 A 
ATOM      7  N   UNL d   1       3.625  -1.386   0.000  0.00  0.00    -0.127 NA
ATOM      8  N   UNL d   1       4.295  -0.903   0.000  0.00  0.00    -0.120 NA
ENDROOT
BRANCH   6   9
ATOM      9  C   UNL d   1       3.396  -2.834   0.000  0.00  0.00     0.038 A 
ATOM     10  C   UNL d   1       2.576  -2.747   0.000  0.00  0.00     0.004 A 
ATOM     11  C   UNL d   1       2.089  -3.409   0.000  0.00  0.00     0.011 A 
ATOM     12  C   UNL d   1       2.426  -4.162   0.000  0.00  0.00     0.058 A 
ATOM     13  C   UNL d   1       3.251  -4.250   0.000  0.00  0.00     0.011 A 
ATOM     14 CL   UNL d   1       1.940  -4.832   0.000  0.00  0.00    -0.082 Cl
ATOM     15  C   UNL d   1       3.725  -3.583   0.000  0.00  0.00     0.004 A 
ENDBRANCH   6   9
BRANCH   4  16
ATOM     16  C   UNL d   1       6.822  -2.426   0.000  0.00  0.00     0.126 A 
ATOM     17  O   UNL d   1       7.071  -3.213   0.000  0.00  0.00    -0.298 OA
ATOM     18  C   UNL d   1       7.895  -3.213   0.000  0.00  0.00     0.134 A 
ATOM     19 BR   UNL d   1       8.382  -3.875   0.000  0.00  0.00    -0.022 Br
ATOM     20  C   UNL d   1       8.158  -2.426   0.000  0.00  0.00     0.034 A 
ATOM     21  C   UNL d   1       7.492  -1.940   0.000  0.00  0.00     0.029 A 
ENDBRANCH   4  16
TORSDOF 2
