REMARK  4 active torsions:
REMARK  status: ('A' for Active; 'I' for Inactive)
REMARK    1  A    between atoms: C_11  and  C_4 
REMARK    2  A    between atoms: C_9  and  C_5 
REMARK    3  A    between atoms: O_21  and  C_16 
REMARK    4  A    between atoms: O_22  and  C_17 
ROOT
ATOM      1  N   UNL d   1       4.743  -2.530   0.000  0.00  0.00    -0.185 N 
ATOM      2  C   UNL d   1       5.001  -1.742   0.000  0.00  0.00     0.219 A 
ATOM      3  N   UNL d   1       5.406  -3.013   0.000  0.00  0.00    -0.153 NA
ATOM      4  C   UNL d   1       3.918  -2.530   0.000  0.00  0.00     0.187 A 
ATOM      5  C   UNL d   1       6.081  -2.530   0.000  0.00  0.00     0.156 A 
ATOM      6  S   UNL d   1       5.827  -1.742   0.000  0.00  0.00    -0.024 SA
ATOM      7  N   UNL d   1       3.668  -1.742   0.000  0.00  0.00    -0.127 NA
ATOM      8  N   UNL d   1       4.330  -1.254   0.000  0.00  0.00    -0.120 NA
ENDROOT
BRANCH   4   9
ATOM      9  C   UNL d   1       3.430  -3.192   0.000  0.00  0.00     0.040 A 
ATOM     10  C   UNL d   1       3.768  -3.943   0.000  0.00  0.00     0.029 A 
ATOM     11  C   UNL d   1       3.288  -4.605   0.000  0.00  0.00     0.116 A 
ATOM     12  C   UNL d   1       2.463  -4.526   0.000  0.00  0.00     0.116 A 
ATOM     13  C   UNL d   1       2.126  -3.768   0.000  0.00  0.00     0.026 A 
ATOM     14  C   UNL d   1       2.613  -3.105   0.000  0.00  0.00     0.005 A 
BRANCH  11  15
ATOM     15  O   UNL d   1       3.618  -5.364   0.000  0.00  0.00    -0.326 OA
ATOM     16  C   UNL d   1       3.138  -6.031   0.000  0.00  0.00     0.181 C 
ENDBRANCH  11  15
BRANCH  12  17
ATOM     17  O   UNL d   1       1.967  -5.193   0.000  0.00  0.00    -0.326 OA
ATOM     18  C   UNL d   1       2.305  -5.943   0.000  0.00  0.00     0.181 C 
ENDBRANCH  12  17
ENDBRANCH   4   9
BRANCH   5  19
ATOM     19  C   UNL d   1       6.864  -2.788   0.000  0.00  0.00     0.126 A 
ATOM     20  O   UNL d   1       7.119  -3.568   0.000  0.00  0.00    -0.298 OA
ATOM     21  C   UNL d   1       7.944  -3.568   0.000  0.00  0.00     0.134 A 
ATOM     22 BR   UNL d   1       8.427  -4.239   0.000  0.00  0.00    -0.022 Br
ATOM     23  C   UNL d   1       8.202  -2.788   0.000  0.00  0.00     0.034 A 
ATOM     24  C   UNL d   1       7.531  -2.301   0.000  0.00  0.00     0.029 A 
ENDBRANCH   5  19
TORSDOF 4
