REMARK  3 active torsions:
REMARK  status: ('A' for Active; 'I' for Inactive)
REMARK    1  A    between atoms: C_8  and  C_2 
REMARK    2  A    between atoms: O_6  and  C_8 
REMARK    3  A    between atoms: C_7  and  O_6 
ROOT
ATOM      1  N   UNL d   1       2.198   2.365   0.000  0.00  0.00    -0.224 NA
ATOM      2  C   UNL d   1       2.691   1.706   0.000  0.00  0.00     0.188 A 
ATOM      3  N   UNL d   1       2.198   1.046   0.000  0.00  0.00    -0.224 NA
ATOM      4  C   UNL d   1       1.429   2.119   0.000  0.00  0.00     0.101 A 
ATOM      5  C   UNL d   1       1.429   1.294   0.000  0.00  0.00     0.101 A 
ATOM      6  C   UNL d   1       0.715   2.500   0.000  0.00  0.00     0.021 A 
ATOM      7  C   UNL d   1       0.715   0.881   0.000  0.00  0.00     0.021 A 
ATOM      8  C   UNL d   1       0.000   1.294   0.000  0.00  0.00     0.002 A 
ATOM      9  C   UNL d   1       0.000   2.119   0.000  0.00  0.00     0.002 A 
ENDROOT
BRANCH   2  10
ATOM     10  C   UNL d   1       3.381   1.294   0.000  0.00  0.00     0.161 C 
BRANCH  10  11
ATOM     11  O   UNL d   1       4.039   1.679   0.000  0.00  0.00    -0.302 OA
BRANCH  11  12
ATOM     12  C   UNL d   1       4.783   1.267   0.000  0.00  0.00     0.100 A 
ATOM     13  C   UNL d   1       5.468   1.679   0.000  0.00  0.00     0.023 A 
ATOM     14  C   UNL d   1       5.468   2.500   0.000  0.00  0.00     0.002 C 
ATOM     15  C   UNL d   1       6.188   1.267   0.000  0.00  0.00     0.002 A 
ATOM     16  C   UNL d   1       6.188   0.442   0.000  0.00  0.00     0.000 A 
ATOM     17  C   UNL d   1       5.468   0.000   0.000  0.00  0.00     0.002 A 
ATOM     18  C   UNL d   1       4.754   0.442   0.000  0.00  0.00     0.025 A 
ENDBRANCH  11  12
ENDBRANCH  10  11
ENDBRANCH   2  10
TORSDOF 3
