REMARK  7 active torsions:
REMARK  status: ('A' for Active; 'I' for Inactive)
REMARK    1  A    between atoms: N_9  and  C_1 
REMARK    2  A    between atoms: C_10  and  C_2 
REMARK    3  A    between atoms: C_5  and  S_14 
REMARK       I    between atoms: C_13  and  N_9 
REMARK    4  A    between atoms: O_18  and  C_10 
REMARK    5  A    between atoms: C_17  and  C_13 
REMARK    6  A    between atoms: S_14  and  C_17 
REMARK    7  A    between atoms: C_23  and  O_18 
ROOT
ATOM      1  N   UNL d   1       0.575   1.062   0.000  0.00  0.00    -0.201 NA
ATOM      2  C   UNL d   1       0.154   0.346   0.000  0.00  0.00     0.286 C 
ATOM      3  O   UNL d   1       0.575  -0.375   0.000  0.00  0.00    -0.265 OA
ENDROOT
BRANCH   1   4
ATOM      4  C   UNL d   1       1.400   1.062   0.000  0.00  0.00     0.119 A 
ATOM      5  C   UNL d   1       1.879   1.733   0.000  0.00  0.00     0.088 A 
ATOM      6  C   UNL d   1       2.663   1.475   0.000  0.00  0.00     0.013 A 
ATOM      7  C   UNL d   1       3.329   1.962   0.000  0.00  0.00     0.001 C 
ATOM      8  C   UNL d   1       2.667   0.650   0.000  0.00  0.00     0.031 A 
ATOM      9  S   UNL d   1       1.879   0.396   0.000  0.00  0.00    -0.068 SA
ATOM     10  C   UNL d   1       3.329   0.171   0.000  0.00  0.00     0.007 C 
BRANCH   5  11
ATOM     11  C   UNL d   1       1.625   2.521   0.000  0.00  0.00     0.302 C 
ATOM     12  O   UNL d   1       2.175   3.125   0.000  0.00  0.00    -0.259 OA
BRANCH  11  13
ATOM     13  O   UNL d   1       0.817   2.683   0.000  0.00  0.00    -0.271 OA
BRANCH  13  14
ATOM     14  C   UNL d   1       0.267   2.071   0.000  0.00  0.00     0.126 C 
ATOM     15  C   UNL d   1      -0.546   2.237   0.000  0.00  0.00     0.029 C 
ENDBRANCH  13  14
ENDBRANCH  11  13
ENDBRANCH   5  11
ENDBRANCH   1   4
BRANCH   2  16
ATOM     16  C   UNL d   1      -0.671   0.346   0.000  0.00  0.00     0.100 C 
BRANCH  16  17
ATOM     17  S   UNL d   1      -1.087   1.062   0.000  0.00  0.00    -0.056 SA
BRANCH  17  18
ATOM     18  C   UNL d   1      -1.921   1.062   0.000  0.00  0.00     0.141 A 
ATOM     19  N   UNL d   1      -2.400   1.738   0.000  0.00  0.00    -0.232 NA
ATOM     20  C   UNL d   1      -3.196   1.483   0.000  0.00  0.00     0.088 A 
ATOM     21  C   UNL d   1      -3.908   1.896   0.000  0.00  0.00     0.020 A 
ATOM     22  C   UNL d   1      -3.196   0.650   0.000  0.00  0.00     0.049 A 
ATOM     23  C   UNL d   1      -4.621   1.483   0.000  0.00  0.00     0.002 A 
ATOM     24  C   UNL d   1      -4.621   0.650   0.000  0.00  0.00     0.001 A 
ATOM     25  C   UNL d   1      -3.908   0.237   0.000  0.00  0.00     0.008 A 
ATOM     26  S   UNL d   1      -2.400   0.396   0.000  0.00  0.00    -0.060 SA
ENDBRANCH  17  18
ENDBRANCH  16  17
ENDBRANCH   2  16
TORSDOF 7
