REMARK  2 active torsions:
REMARK  status: ('A' for Active; 'I' for Inactive)
REMARK    1  A    between atoms: C_6  and  N_1 
REMARK    2  A    between atoms: C_7  and  C_6 
ROOT
ATOM      1  N   UNL d   1       2.198   3.575   0.000  0.00  0.00    -0.287 N 
ATOM      2  N   UNL d   1       2.198   4.920   0.000  0.00  0.00    -0.224 NA
ATOM      3  C   UNL d   1       2.667   4.260   0.000  0.00  0.00     0.183 A 
ATOM      4  C   UNL d   1       1.402   3.818   0.000  0.00  0.00     0.083 A 
ATOM      5  C   UNL d   1       1.402   4.673   0.000  0.00  0.00     0.099 A 
ATOM      6  C   UNL d   1       0.688   3.435   0.000  0.00  0.00     0.019 A 
ATOM      7  C   UNL d   1       0.688   5.056   0.000  0.00  0.00     0.021 A 
ATOM      8  C   UNL d   1       0.000   3.818   0.000  0.00  0.00     0.002 A 
ATOM      9  C   UNL d   1       0.000   4.673   0.000  0.00  0.00     0.002 A 
ENDROOT
BRANCH   1  10
ATOM     10  C   UNL d   1       2.581   2.853   0.000  0.00  0.00     0.082 C 
BRANCH  10  11
ATOM     11  C   UNL d   1       2.198   2.148   0.000  0.00  0.00     0.018 A 
ATOM     12  C   UNL d   1       2.581   1.434   0.000  0.00  0.00     0.002 A 
ATOM     13  C   UNL d   1       2.198   0.719   0.000  0.00  0.00     0.000 A 
ATOM     14  C   UNL d   1       2.610   0.000   0.000  0.00  0.00     0.000 C 
ATOM     15  C   UNL d   1       1.373   0.719   0.000  0.00  0.00     0.000 A 
ATOM     16  C   UNL d   1       0.960   1.434   0.000  0.00  0.00     0.000 A 
ATOM     17  C   UNL d   1       1.373   2.148   0.000  0.00  0.00     0.002 A 
ENDBRANCH  10  11
ENDBRANCH   1  10
TORSDOF 2
