REMARK  4 active torsions:
REMARK  status: ('A' for Active; 'I' for Inactive)
REMARK    1  A    between atoms: C_9  and  C_3 
REMARK    2  A    between atoms: C_6  and  C_10 
REMARK    3  A    between atoms: S_8  and  C_9 
REMARK    4  A    between atoms: C_10  and  S_8 
ROOT
ATOM      1  C   UNL d   1       3.487   0.825   0.000  0.00  0.00     0.074 C 
ENDROOT
BRANCH   1   2
ATOM      2  S   UNL d   1       3.899   1.540   0.000  0.00  0.00    -0.083 SA
BRANCH   2   3
ATOM      3  C   UNL d   1       4.724   1.515   0.000  0.00  0.00     0.035 C 
BRANCH   3   4
ATOM      4  C   UNL d   1       5.136   2.229   0.000  0.00  0.00     0.006 A 
ATOM      5  C   UNL d   1       5.962   2.200   0.000  0.00  0.00     0.001 A 
ATOM      6  C   UNL d   1       6.374   1.485   0.000  0.00  0.00     0.000 C 
ATOM      7  C   UNL d   1       6.404   2.912   0.000  0.00  0.00     0.000 A 
ATOM      8  C   UNL d   1       6.013   3.627   0.000  0.00  0.00     0.000 A 
ATOM      9  C   UNL d   1       5.193   3.627   0.000  0.00  0.00     0.000 A 
ATOM     10  C   UNL d   1       4.753   2.912   0.000  0.00  0.00     0.001 A 
ENDBRANCH   3   4
ENDBRANCH   2   3
ENDBRANCH   1   2
BRANCH   1  11
ATOM     11  C   UNL d   1       2.662   0.825   0.000  0.00  0.00     0.169 A 
ATOM     12  N   UNL d   1       2.197   0.138   0.000  0.00  0.00    -0.225 NA
ATOM     13  C   UNL d   1       1.399   0.388   0.000  0.00  0.00     0.101 A 
ATOM     14  C   UNL d   1       1.399   1.238   0.000  0.00  0.00     0.101 A 
ATOM     15  C   UNL d   1       0.685   0.000   0.000  0.00  0.00     0.021 A 
ATOM     16  N   UNL d   1       2.197   1.485   0.000  0.00  0.00    -0.225 NA
ATOM     17  C   UNL d   1       0.685   1.625   0.000  0.00  0.00     0.021 A 
ATOM     18  C   UNL d   1       0.000   1.238   0.000  0.00  0.00     0.002 A 
ATOM     19  C   UNL d   1       0.000   0.388   0.000  0.00  0.00     0.002 A 
ENDBRANCH   1  11
TORSDOF 4
