REMARK  3 active torsions:
REMARK  status: ('A' for Active; 'I' for Inactive)
REMARK    1  A    between atoms: N_2  and  S_1 
REMARK    2  A    between atoms: C_5  and  S_1 
REMARK    3  A    between atoms: C_3  and  N_4 
ROOT
ATOM      1  N   UNL d   1       1.504  -0.167   0.000  0.00  0.00    -0.226 N 
ATOM      2  N   UNL d   1       2.929  -0.992   0.000  0.00  0.00    -0.134 N 
ATOM      3  C   UNL d   1       2.217   0.246   0.000  0.00  0.00     0.111 A 
ATOM      4  C   UNL d   1       1.504  -0.992   0.000  0.00  0.00     0.111 A 
ATOM      5  C   UNL d   1       2.217  -1.404   0.000  0.00  0.00     0.118 A 
ATOM      6  C   UNL d   1       2.929  -0.167   0.000  0.00  0.00     0.118 A 
ENDROOT
BRANCH   1   7
ATOM      7  S   UNL d   1       0.787   0.258   0.000  0.00  0.00     0.271 S 
ATOM      8  O   UNL d   1       1.212   0.971   0.000  0.00  0.00    -0.200 OA
ATOM      9  O   UNL d   1       0.367  -0.463   0.000  0.00  0.00    -0.200 OA
BRANCH   7  10
ATOM     10  C   UNL d   1       0.067   0.675   0.000  0.00  0.00     0.104 A 
ATOM     11  C   UNL d   1       0.087   1.512   0.000  0.00  0.00     0.015 A 
ATOM     12  C   UNL d   1      -0.633   1.938   0.000  0.00  0.00     0.030 A 
ATOM     13  C   UNL d   1      -1.358   1.525   0.000  0.00  0.00     0.140 A 
ATOM     14  C   UNL d   1      -1.371   0.688   0.000  0.00  0.00     0.030 A 
ATOM     15  F   UNL d   1      -2.071   1.946   0.000  0.00  0.00    -0.204 F 
ATOM     16  C   UNL d   1      -0.646   0.271   0.000  0.00  0.00     0.015 A 
ENDBRANCH   7  10
ENDBRANCH   1   7
BRANCH   2  17
ATOM     17  C   UNL d   1       3.629  -1.404   0.000  0.00  0.00     0.735 A 
ATOM     18  N   UNL d   1       3.629  -2.229   0.000  0.00  0.00    -0.059 NA
ATOM     19  C   UNL d   1       4.338  -2.642   0.000  0.00  0.00     0.120 A 
ATOM     20  C   UNL d   1       5.050  -2.229   0.000  0.00  0.00     0.043 A 
ATOM     21  C   UNL d   1       5.050  -1.404   0.000  0.00  0.00     0.120 A 
ATOM     22  N   UNL d   1       4.342  -1.000   0.000  0.00  0.00    -0.059 NA
ENDBRANCH   2  17
TORSDOF 3
