REMARK  5 active torsions:
REMARK  status: ('A' for Active; 'I' for Inactive)
REMARK       I    between atoms: C_5  and  N_1 
REMARK    1  A    between atoms: S_13  and  C_2 
REMARK    2  A    between atoms: S_3  and  C_9 
REMARK    3  A    between atoms: N_7  and  S_3 
REMARK    4  A    between atoms: C_12  and  C_5 
REMARK    5  A    between atoms: C_23  and  S_13 
ROOT
ATOM      1  C   UNL d   1      -1.675  -1.843   0.000  0.00  0.00     0.104 A 
ATOM      2  C   UNL d   1      -0.063  -1.494   0.000  0.00  0.00     0.057 A 
ATOM      3  C   UNL d   1      -1.119  -2.453   0.000  0.00  0.00     0.013 A 
ATOM      4  C   UNL d   1      -1.422  -1.052   0.000  0.00  0.00     0.013 A 
ATOM      5  C   UNL d   1      -0.614  -0.875   0.000  0.00  0.00     0.005 A 
ATOM      6  C   UNL d   1      -0.316  -2.276   0.000  0.00  0.00     0.005 A 
ENDROOT
BRANCH   2   7
ATOM      7  C   UNL d   1       0.736  -1.317   0.000  0.00  0.00     0.266 C 
ATOM      8  N   UNL d   1       0.997  -0.530   0.000  0.00  0.00    -0.253 N 
ATOM      9  C   UNL d   1       0.509   0.135   0.000  0.00  0.00     0.182 A 
ATOM     10  C   UNL d   1       1.784  -0.278   0.000  0.00  0.00     0.086 A 
ATOM     11  N   UNL d   1       0.997   0.804   0.000  0.00  0.00    -0.221 NA
ATOM     12  C   UNL d   1       1.780   0.551   0.000  0.00  0.00     0.100 A 
ATOM     13  C   UNL d   1       2.491   0.959   0.000  0.00  0.00     0.021 A 
ATOM     14  C   UNL d   1       3.206   0.551   0.000  0.00  0.00     0.002 A 
ATOM     15  C   UNL d   1       3.206  -0.278   0.000  0.00  0.00     0.002 A 
ATOM     16  C   UNL d   1       2.491  -0.686   0.000  0.00  0.00     0.019 A 
ATOM     17  O   UNL d   1       1.292  -1.931   0.000  0.00  0.00    -0.267 OA
BRANCH   9  18
ATOM     18  S   UNL d   1      -0.311   0.126   0.000  0.00  0.00    -0.049 SA
BRANCH  18  19
ATOM     19  C   UNL d   1      -0.846   0.980   0.000  0.00  0.00     0.038 C 
ATOM     20  C   UNL d   1      -1.788   1.043   0.000  0.00  0.00     0.008 C 
ENDBRANCH  18  19
ENDBRANCH   9  18
ENDBRANCH   2   7
BRANCH   1  21
ATOM     21  S   UNL d   1      -2.482  -2.024   0.000  0.00  0.00     0.271 S 
ATOM     22  O   UNL d   1      -2.672  -1.216   0.000  0.00  0.00    -0.200 OA
ATOM     23  O   UNL d   1      -2.305  -2.832   0.000  0.00  0.00    -0.200 OA
BRANCH  21  24
ATOM     24  N   UNL d   1      -3.290  -2.209   0.000  0.00  0.00    -0.229 N 
ATOM     25  C   UNL d   1      -3.858  -1.603   0.000  0.00  0.00     0.092 A 
ATOM     26  C   UNL d   1      -4.653  -1.784   0.000  0.00  0.00     0.020 A 
ATOM     27  C   UNL d   1      -4.893  -2.567   0.000  0.00  0.00     0.003 A 
ATOM     28  C   UNL d   1      -4.338  -3.181   0.000  0.00  0.00     0.020 A 
ATOM     29  C   UNL d   1      -3.534  -2.991   0.000  0.00  0.00     0.092 A 
ENDBRANCH  21  24
ENDBRANCH   1  21
TORSDOF 5
