REMARK  5 active torsions:
REMARK  status: ('A' for Active; 'I' for Inactive)
REMARK    1  A    between atoms: N_2  and  S_1 
REMARK    2  A    between atoms: C_4  and  S_1 
REMARK    3  A    between atoms: C_5  and  N_3 
REMARK    4  A    between atoms: C_11  and  C_4 
REMARK    5  A    between atoms: C_15  and  C_11 
ROOT
ATOM      1  N   UNL d   1       1.315  -1.410   0.000  0.00  0.00    -0.226 N 
ATOM      2  N   UNL d   1       2.733  -2.234   0.000  0.00  0.00    -0.301 N 
ATOM      3  C   UNL d   1       2.022  -0.999   0.000  0.00  0.00     0.111 A 
ATOM      4  C   UNL d   1       1.315  -2.234   0.000  0.00  0.00     0.111 A 
ATOM      5  C   UNL d   1       2.022  -2.638   0.000  0.00  0.00     0.100 A 
ATOM      6  C   UNL d   1       2.733  -1.410   0.000  0.00  0.00     0.100 A 
ENDROOT
BRANCH   1   7
ATOM      7  S   UNL d   1       0.591  -0.986   0.000  0.00  0.00     0.272 S 
ATOM      8  O   UNL d   1       1.015  -0.266   0.000  0.00  0.00    -0.200 OA
ATOM      9  O   UNL d   1       0.175  -1.702   0.000  0.00  0.00    -0.200 OA
BRANCH   7  10
ATOM     10  C   UNL d   1      -0.121  -0.566   0.000  0.00  0.00     0.116 C 
BRANCH  10  11
ATOM     11  C   UNL d   1      -0.108   0.270   0.000  0.00  0.00     0.014 C 
BRANCH  11  12
ATOM     12  C   UNL d   1      -0.820   0.695   0.000  0.00  0.00     0.001 A 
ATOM     13  C   UNL d   1      -1.548   0.283   0.000  0.00  0.00     0.000 A 
ATOM     14  C   UNL d   1      -2.267   0.707   0.000  0.00  0.00     0.000 A 
ATOM     15  C   UNL d   1      -2.259   1.535   0.000  0.00  0.00     0.000 A 
ATOM     16  C   UNL d   1      -1.531   1.955   0.000  0.00  0.00     0.000 A 
ATOM     17  C   UNL d   1      -0.811   1.531   0.000  0.00  0.00     0.000 A 
ENDBRANCH  11  12
ENDBRANCH  10  11
ENDBRANCH   7  10
ENDBRANCH   1   7
BRANCH   2  18
ATOM     18  C   UNL d   1       3.437  -2.646   0.000  0.00  0.00     0.065 A 
ATOM     19  C   UNL d   1       4.144  -2.238   0.000  0.00  0.00     0.029 A 
ATOM     20  C   UNL d   1       4.847  -2.646   0.000  0.00  0.00     0.059 A 
ATOM     21 CL   UNL d   1       5.567  -2.234   0.000  0.00  0.00    -0.082 Cl
ATOM     22  C   UNL d   1       4.847  -3.470   0.000  0.00  0.00     0.011 A 
ATOM     23  C   UNL d   1       4.136  -3.873   0.000  0.00  0.00     0.002 A 
ATOM     24  C   UNL d   1       3.432  -3.462   0.000  0.00  0.00     0.018 A 
ENDBRANCH   2  18
TORSDOF 5
