REMARK  3 active torsions:
REMARK  status: ('A' for Active; 'I' for Inactive)
REMARK    1  A    between atoms: N_2  and  S_1 
REMARK    2  A    between atoms: C_3  and  S_1 
REMARK    3  A    between atoms: C_5  and  N_4 
ROOT
ATOM      1  N   UNL d   1       2.232   0.033   0.000  0.00  0.00    -0.226 N 
ATOM      2  N   UNL d   1       3.652  -0.788   0.000  0.00  0.00    -0.286 N 
ATOM      3  C   UNL d   1       2.232  -0.788   0.000  0.00  0.00     0.111 A 
ATOM      4  C   UNL d   1       2.942   0.444   0.000  0.00  0.00     0.111 A 
ATOM      5  C   UNL d   1       3.652   0.033   0.000  0.00  0.00     0.101 A 
ATOM      6  C   UNL d   1       2.942  -1.199   0.000  0.00  0.00     0.101 A 
ENDROOT
BRANCH   1   7
ATOM      7  S   UNL d   1       1.510   0.456   0.000  0.00  0.00     0.277 S 
ATOM      8  O   UNL d   1       1.087  -0.261   0.000  0.00  0.00    -0.199 OA
ATOM      9  O   UNL d   1       1.934   1.178   0.000  0.00  0.00    -0.199 OA
BRANCH   7  10
ATOM     10  C   UNL d   1       0.788   0.880   0.000  0.00  0.00     0.133 A 
ATOM     11  S   UNL d   1       0.029   0.548   0.000  0.00  0.00    -0.074 SA
ATOM     12  C   UNL d   1      -0.523   1.178   0.000  0.00  0.00     0.036 A 
ATOM     13  C   UNL d   1      -0.095   1.892   0.000  0.00  0.00     0.008 A 
ATOM     14  C   UNL d   1       0.714   1.714   0.000  0.00  0.00     0.020 A 
ENDBRANCH   7  10
ENDBRANCH   1   7
BRANCH   2  15
ATOM     15  C   UNL d   1       4.357  -1.208   0.000  0.00  0.00     0.148 A 
ATOM     16  N   UNL d   1       5.067  -0.797   0.000  0.00  0.00    -0.227 NA
ATOM     17  C   UNL d   1       5.776  -1.208   0.000  0.00  0.00     0.101 A 
ATOM     18  C   UNL d   1       5.776  -2.033   0.000  0.00  0.00     0.021 A 
ATOM     19  C   UNL d   1       5.058  -2.440   0.000  0.00  0.00     0.005 A 
ATOM     20  C   UNL d   1       4.349  -2.029   0.000  0.00  0.00     0.037 A 
ENDBRANCH   2  15
TORSDOF 3
