REMARK  4 active torsions:
REMARK  status: ('A' for Active; 'I' for Inactive)
REMARK    1  A    between atoms: C_2  and  C_1 
REMARK       I    between atoms: N_6  and  C_2 
REMARK    2  A    between atoms: C_4  and  C_11 
REMARK    3  A    between atoms: N_8  and  N_6 
REMARK    4  A    between atoms: C_11  and  N_8 
ROOT
ATOM      1  C   UNL d   1       1.655  -2.698   0.000  0.00  0.00     0.300 C 
ATOM      2  O   UNL d   1       1.639  -3.523   0.000  0.00  0.00    -0.264 OA
ATOM      3  N   UNL d   1       2.380  -2.293   0.000  0.00  0.00    -0.105 NA
ENDROOT
BRANCH   3   4
ATOM      4  N   UNL d   1       2.398  -1.468   0.000  0.00  0.00    -0.143 NA
BRANCH   4   5
ATOM      5  C   UNL d   1       3.131  -1.059   0.000  0.00  0.00     0.126 C 
BRANCH   5   6
ATOM      6  C   UNL d   1       3.147  -0.239   0.000  0.00  0.00     0.060 A 
ATOM      7  C   UNL d   1       3.872   0.171   0.000  0.00  0.00     0.197 A 
ATOM      8  O   UNL d   1       4.573  -0.252   0.000  0.00  0.00    -0.286 OA
ATOM      9  C   UNL d   1       3.888   0.990   0.000  0.00  0.00     0.042 A 
ATOM     10  C   UNL d   1       3.186   1.416   0.000  0.00  0.00     0.003 A 
ATOM     11  C   UNL d   1       2.446   1.009   0.000  0.00  0.00     0.000 A 
ATOM     12  C   UNL d   1       2.430   0.186   0.000  0.00  0.00     0.005 A 
ENDBRANCH   5   6
ENDBRANCH   4   5
ENDBRANCH   3   4
BRANCH   1  13
ATOM     13  C   UNL d   1       0.948  -2.272   0.000  0.00  0.00     0.098 A 
ATOM     14  C   UNL d   1       0.231  -2.682   0.000  0.00  0.00     0.200 A 
ATOM     15  O   UNL d   1       0.231  -3.502   0.000  0.00  0.00    -0.286 OA
ATOM     16  C   UNL d   1      -0.489  -2.272   0.000  0.00  0.00     0.042 A 
ATOM     17  C   UNL d   1      -0.489  -1.450   0.000  0.00  0.00     0.003 A 
ATOM     18  C   UNL d   1       0.231  -1.027   0.000  0.00  0.00     0.000 A 
ATOM     19  C   UNL d   1       0.948  -1.429   0.000  0.00  0.00     0.008 A 
ENDBRANCH   1  13
TORSDOF 4
