REMARK  2 active torsions:
REMARK  status: ('A' for Active; 'I' for Inactive)
REMARK    1  A    between atoms: C_7  and  C_1 
REMARK    2  A    between atoms: C_8  and  C_7 
ROOT
ATOM      1  C   UNL d   1       3.511  -1.340   0.000  0.00  0.00     0.033 A 
ATOM      2  C   UNL d   1       4.050  -2.555   0.000  0.00  0.00     0.100 A 
ATOM      3  C   UNL d   1       3.336  -2.146   0.000  0.00  0.00     0.025 A 
ATOM      4  O   UNL d   1       4.664  -2.004   0.000  0.00  0.00    -0.305 OA
ATOM      5  C   UNL d   1       4.326  -1.253   0.000  0.00  0.00     0.123 A 
ATOM      6  C   UNL d   1       2.630  -2.559   0.000  0.00  0.00     0.002 A 
ATOM      7  C   UNL d   1       4.063  -3.386   0.000  0.00  0.00     0.025 A 
ATOM      8  C   UNL d   1       2.630  -3.386   0.000  0.00  0.00     0.000 A 
ATOM      9  C   UNL d   1       3.349  -3.800   0.000  0.00  0.00     0.002 A 
ATOM     10  C   UNL d   1       1.908  -2.146   0.000  0.00  0.00     0.000 C 
ATOM     11  C   UNL d   1       3.349  -4.626   0.000  0.00  0.00     0.000 C 
ENDROOT
BRANCH   1  12
ATOM     12  C   UNL d   1       2.956  -0.731   0.000  0.00  0.00     0.072 C 
BRANCH  12  13
ATOM     13  C   UNL d   1       3.207   0.058   0.000  0.00  0.00     0.211 C 
ATOM     14  O   UNL d   1       2.647   0.672   0.000  0.00  0.00    -0.644 OA
ATOM     15  O   UNL d   1       4.013   0.234   0.000  0.00  0.00    -0.644 OA
ENDBRANCH  12  13
ENDBRANCH   1  12
TORSDOF 2
