REMARK  1 active torsions:
REMARK  status: ('A' for Active; 'I' for Inactive)
REMARK    1  A    between atoms: C_12  and  C_1 
ROOT
ATOM      1  C   UNL d   1       3.987  -1.617   0.000  0.00  0.00     0.019 A 
ATOM      2  C   UNL d   1       3.279  -2.862   0.000  0.00  0.00     0.103 A 
ATOM      3  C   UNL d   1       3.279  -2.038   0.000  0.00  0.00     0.024 A 
ATOM      4  O   UNL d   1       3.992  -3.275   0.000  0.00  0.00    -0.273 OA
ATOM      5  C   UNL d   1       4.704  -2.854   0.000  0.00  0.00     0.300 A 
ATOM      6  C   UNL d   1       4.704  -2.029   0.000  0.00  0.00     0.070 A 
ATOM      7  C   UNL d   1       2.562  -1.629   0.000  0.00  0.00     0.002 A 
ATOM      8  C   UNL d   1       2.562  -3.279   0.000  0.00  0.00     0.025 A 
ATOM      9  C   UNL d   1       1.850  -2.038   0.000  0.00  0.00     0.000 A 
ATOM     10  O   UNL d   1       5.425  -3.267   0.000  0.00  0.00    -0.259 OA
ATOM     11  C   UNL d   1       1.850  -2.867   0.000  0.00  0.00     0.002 A 
ATOM     12  C   UNL d   1       2.554  -0.804   0.000  0.00  0.00     0.000 C 
ATOM     13  C   UNL d   1       1.129  -3.279   0.000  0.00  0.00     0.000 C 
ENDROOT
BRANCH   1  14
ATOM     14  C   UNL d   1       3.979  -0.792   0.000  0.00  0.00     0.069 C 
ATOM     15 CL   UNL d   1       4.692  -0.379   0.000  0.00  0.00    -0.082 Cl
ENDBRANCH   1  14
TORSDOF 1
