REMARK  2 active torsions:
REMARK  status: ('A' for Active; 'I' for Inactive)
REMARK    1  A    between atoms: C_9  and  C_3 
REMARK    2  A    between atoms: C_12  and  N_4 
ROOT
ATOM      1  C   UNL d   1       2.799  -1.986   0.000  0.00  0.00     0.035 A 
ATOM      2  C   UNL d   1       2.429  -2.723   0.000  0.00  0.00     0.065 A 
ATOM      3  C   UNL d   1       3.609  -2.109   0.000  0.00  0.00     0.166 A 
ATOM      4  N   UNL d   1       3.017  -3.298   0.000  0.00  0.00    -0.233 N 
ATOM      5  N   UNL d   1       3.745  -2.918   0.000  0.00  0.00    -0.159 NA
ATOM      6  C   UNL d   1       1.781  -2.377   0.000  0.00  0.00     0.057 A 
ATOM      7  C   UNL d   1       2.109  -1.572   0.000  0.00  0.00    -0.020 A 
ATOM      8  C   UNL d   1       1.921  -0.831   0.000  0.00  0.00     0.027 A 
ATOM      9  C   UNL d   1       1.035  -2.659   0.000  0.00  0.00    -0.021 A 
ATOM     10  C   UNL d   1       1.359  -1.973   0.000  0.00  0.00    -0.008 A 
ATOM     11  C   UNL d   1       1.589  -3.098   0.000  0.00  0.00     0.011 C 
ATOM     12  C   UNL d   1       2.446  -0.298   0.000  0.00  0.00     0.005 C 
ATOM     13  C   UNL d   1       1.393  -0.298   0.000  0.00  0.00     0.005 C 
ENDROOT
BRANCH   4  14
ATOM     14  C   UNL d   1       2.893  -4.133   0.000  0.00  0.00     0.083 A 
ATOM     15  C   UNL d   1       2.100  -4.439   0.000  0.00  0.00     0.019 A 
ATOM     16  C   UNL d   1       1.981  -5.270   0.000  0.00  0.00     0.002 A 
ATOM     17  C   UNL d   1       2.637  -5.794   0.000  0.00  0.00     0.000 A 
ATOM     18  C   UNL d   1       3.430  -5.483   0.000  0.00  0.00     0.002 A 
ATOM     19  C   UNL d   1       3.545  -4.652   0.000  0.00  0.00     0.019 A 
ENDBRANCH   4  14
BRANCH   3  20
ATOM     20  C   UNL d   1       4.197  -1.508   0.000  0.00  0.00     0.231 C 
ATOM     21  O   UNL d   1       3.979  -0.690   0.000  0.00  0.00    -0.643 OA
ATOM     22  O   UNL d   1       5.015  -1.726   0.000  0.00  0.00    -0.643 OA
ENDBRANCH   3  20
TORSDOF 2
