REMARK  4 active torsions:
REMARK  status: ('A' for Active; 'I' for Inactive)
REMARK    1  A    between atoms: C_2  and  S_1 
REMARK    2  A    between atoms: N_5  and  S_1 
REMARK    3  A    between atoms: C_13  and  N_5 
REMARK    4  A    between atoms: C_11  and  C_13 
ROOT
ATOM      1  C   UNL d   1       1.770  -0.091   0.000  0.00  0.00     0.105 A 
ATOM      2  C   UNL d   1       1.363   0.619   0.000  0.00  0.00     0.012 A 
ATOM      3  C   UNL d   1       1.350  -0.802   0.000  0.00  0.00     0.012 A 
ATOM      4  C   UNL d   1       0.523  -0.798   0.000  0.00  0.00     0.001 A 
ATOM      5  C   UNL d   1       0.540   0.631   0.000  0.00  0.00     0.001 A 
ATOM      6  C   UNL d   1       0.116  -0.079   0.000  0.00  0.00     0.000 A 
ATOM      7  C   UNL d   1       1.782   1.329   0.000  0.00  0.00     0.001 C 
ATOM      8  C   UNL d   1       1.761  -1.520   0.000  0.00  0.00     0.001 C 
ATOM      9  C   UNL d   1       0.129   1.346   0.000  0.00  0.00     0.000 C 
ATOM     10  C   UNL d   1       0.104  -1.508   0.000  0.00  0.00     0.000 C 
ENDROOT
BRANCH   1  11
ATOM     11  S   UNL d   1       2.592  -0.091   0.000  0.00  0.00     0.285 S 
ATOM     12  O   UNL d   1       2.584  -0.922   0.000  0.00  0.00    -0.198 OA
ATOM     13  O   UNL d   1       2.592   0.723   0.000  0.00  0.00    -0.198 OA
BRANCH  11  14
ATOM     14  N   UNL d   1       3.415  -0.104   0.000  0.00  0.00    -0.155 NA
BRANCH  14  15
ATOM     15  C   UNL d   1       3.818  -0.823   0.000  0.00  0.00     0.137 C 
BRANCH  15  16
ATOM     16  C   UNL d   1       4.640  -0.827   0.000  0.00  0.00     0.120 A 
ATOM     17  O   UNL d   1       5.288  -1.333   0.000  0.00  0.00    -0.304 OA
ATOM     18  C   UNL d   1       5.974  -0.872   0.000  0.00  0.00     0.123 A 
ATOM     19  C   UNL d   1       5.749  -0.079   0.000  0.00  0.00     0.029 A 
ATOM     20  C   UNL d   1       4.923  -0.050   0.000  0.00  0.00     0.028 A 
ENDBRANCH  15  16
ENDBRANCH  14  15
ENDBRANCH  11  14
ENDBRANCH   1  11
TORSDOF 4
