REMARK  7 active torsions:
REMARK  status: ('A' for Active; 'I' for Inactive)
REMARK    1  A    between atoms: C_3  and  C_1 
REMARK    2  A    between atoms: N_2  and  C_9 
REMARK    3  A    between atoms: C_14  and  N_2 
REMARK    4  A    between atoms: O_6  and  C_8 
REMARK    5  A    between atoms: C_10  and  O_6 
REMARK    6  A    between atoms: C_7  and  C_10 
REMARK    7  A    between atoms: C_9  and  C_7 
ROOT
ATOM      1  C   UNL d   1       0.342  -1.367   0.000  0.00  0.00     0.000 A 
ATOM      2  C   UNL d   1       0.342  -0.542   0.000  0.00  0.00     0.002 A 
ATOM      3  C   UNL d   1       1.062  -1.779   0.000  0.00  0.00     0.002 A 
ATOM      4  C   UNL d   1       1.767  -0.537   0.000  0.00  0.00     0.100 A 
ATOM      5  C   UNL d   1       1.775  -1.367   0.000  0.00  0.00     0.025 A 
ATOM      6  C   UNL d   1       1.050  -0.129   0.000  0.00  0.00     0.025 A 
ENDROOT
BRANCH   4   7
ATOM      7  O   UNL d   1       2.479  -0.125   0.000  0.00  0.00    -0.302 OA
BRANCH   7   8
ATOM      8  C   UNL d   1       3.200  -0.529   0.000  0.00  0.00     0.166 C 
BRANCH   8   9
ATOM      9  C   UNL d   1       3.913  -0.117   0.000  0.00  0.00     0.239 C 
ATOM     10  O   UNL d   1       3.904   0.708   0.000  0.00  0.00    -0.283 OA
BRANCH   9  11
ATOM     11  C   UNL d   1       4.629  -0.525   0.000  0.00  0.00     0.143 C 
BRANCH  11  12
ATOM     12  N   UNL d   1       5.342  -0.104   0.000  0.00  0.00    -0.241 NA
BRANCH  12  13
ATOM     13  C   UNL d   1       6.054  -0.525   0.000  0.00  0.00     0.082 C 
ATOM     14  C   UNL d   1       6.767  -0.113   0.000  0.00  0.00     0.021 C 
ATOM     15  C   UNL d   1       6.054  -1.350   0.000  0.00  0.00     0.021 C 
ENDBRANCH  12  13
ENDBRANCH  11  12
ENDBRANCH   9  11
ENDBRANCH   8   9
ENDBRANCH   7   8
ENDBRANCH   4   7
BRANCH   1  16
ATOM     16  C   UNL d   1      -0.362  -1.779   0.000  0.00  0.00     0.000 A 
ATOM     17  C   UNL d   1      -1.083  -1.367   0.000  0.00  0.00     0.000 A 
ATOM     18  C   UNL d   1      -1.796  -1.788   0.000  0.00  0.00     0.000 A 
ATOM     19  C   UNL d   1      -1.796  -2.612   0.000  0.00  0.00     0.000 A 
ATOM     20  C   UNL d   1      -1.083  -3.025   0.000  0.00  0.00     0.000 A 
ATOM     21  C   UNL d   1      -0.362  -2.612   0.000  0.00  0.00     0.000 A 
ENDBRANCH   1  16
TORSDOF 7
