REMARK  3 active torsions:
REMARK  status: ('A' for Active; 'I' for Inactive)
REMARK       I    between atoms: N_3  and  C_1 
REMARK       I    between atoms: N_5  and  C_1 
REMARK    1  A    between atoms: C_2  and  O_6 
REMARK       I    between atoms: N_4  and  C_2 
REMARK    2  A    between atoms: C_10  and  N_5 
REMARK    3  A    between atoms: O_6  and  C_11 
ROOT
ATOM      1  C   UNL d   1       4.317  -5.079   0.000  0.00  0.00     0.086 A 
ATOM      2  C   UNL d   1       2.667  -5.079   0.000  0.00  0.00     0.105 A 
ATOM      3  C   UNL d   1       3.892  -5.804   0.000  0.00  0.00     0.021 A 
ATOM      4  C   UNL d   1       3.892  -4.354   0.000  0.00  0.00     0.021 A 
ATOM      5  C   UNL d   1       3.079  -5.804   0.000  0.00  0.00     0.026 A 
ATOM      6  C   UNL d   1       3.079  -4.354   0.000  0.00  0.00     0.026 A 
ENDROOT
BRANCH   1   7
ATOM      7  N   UNL d   1       5.129  -5.079   0.000  0.00  0.00    -0.192 NA
ATOM      8  C   UNL d   1       5.554  -4.379   0.000  0.00  0.00     0.354 C 
ATOM      9  N   UNL d   1       6.379  -4.379   0.000  0.00  0.00    -0.252 N 
ATOM     10  O   UNL d   1       5.129  -3.654   0.000  0.00  0.00    -0.244 OA
ATOM     11  C   UNL d   1       6.792  -3.654   0.000  0.00  0.00     0.111 A 
ATOM     12  C   UNL d   1       6.804  -5.092   0.000  0.00  0.00     0.111 A 
ATOM     13  C   UNL d   1       7.629  -3.654   0.000  0.00  0.00     0.142 A 
ATOM     14  O   UNL d   1       8.042  -4.379   0.000  0.00  0.00    -0.300 OA
ATOM     15  C   UNL d   1       7.629  -5.092   0.000  0.00  0.00     0.142 A 
ENDBRANCH   1   7
BRANCH   2  16
ATOM     16  O   UNL d   1       1.842  -5.079   0.000  0.00  0.00    -0.259 OA
BRANCH  16  17
ATOM     17  C   UNL d   1       1.429  -4.367   0.000  0.00  0.00     0.377 C 
ATOM     18  N   UNL d   1       0.604  -4.367   0.000  0.00  0.00    -0.252 N 
ATOM     19  C   UNL d   1       0.192  -3.654   0.000  0.00  0.00     0.085 A 
ATOM     20  C   UNL d   1       0.192  -5.079   0.000  0.00  0.00     0.085 A 
ATOM     21  C   UNL d   1      -0.633  -3.650   0.000  0.00  0.00     0.019 A 
ATOM     22  C   UNL d   1      -1.046  -4.362   0.000  0.00  0.00     0.003 A 
ATOM     23  C   UNL d   1      -0.637  -5.079   0.000  0.00  0.00     0.019 A 
ATOM     24  O   UNL d   1       1.837  -3.654   0.000  0.00  0.00    -0.237 OA
ENDBRANCH  16  17
ENDBRANCH   2  16
TORSDOF 3
