REMARK  4 active torsions:
REMARK  status: ('A' for Active; 'I' for Inactive)
REMARK       I    between atoms: N_3  and  C_1 
REMARK    1  A    between atoms: O_5  and  C_1 
REMARK    2  A    between atoms: C_2  and  O_8 
REMARK       I    between atoms: N_4  and  C_2 
REMARK    3  A    between atoms: C_6  and  O_5 
REMARK    4  A    between atoms: O_8  and  C_12 
ROOT
ATOM      1  C   UNL d   1       2.904  -2.292   0.000  0.00  0.00     0.105 A 
ATOM      2  C   UNL d   1       3.617  -2.704   0.000  0.00  0.00     0.025 A 
ATOM      3  C   UNL d   1       4.329  -2.292   0.000  0.00  0.00     0.027 A 
ATOM      4  C   UNL d   1       5.062  -2.704   0.000  0.00  0.00     0.105 A 
ATOM      5  C   UNL d   1       3.617  -3.517   0.000  0.00  0.00     0.002 A 
ATOM      6  C   UNL d   1       4.329  -3.938   0.000  0.00  0.00     0.002 A 
ATOM      7  C   UNL d   1       5.062  -3.517   0.000  0.00  0.00     0.025 A 
ATOM      8  C   UNL d   1       2.192  -2.704   0.000  0.00  0.00     0.025 A 
ATOM      9  C   UNL d   1       2.192  -3.517   0.000  0.00  0.00     0.002 A 
ATOM     10  C   UNL d   1       2.904  -3.938   0.000  0.00  0.00     0.000 A 
ENDROOT
BRANCH   1  11
ATOM     11  O   UNL d   1       2.904  -1.467   0.000  0.00  0.00    -0.259 OA
BRANCH  11  12
ATOM     12  C   UNL d   1       2.188  -1.054   0.000  0.00  0.00     0.378 C 
ATOM     13  N   UNL d   1       2.179  -0.217   0.000  0.00  0.00    -0.247 N 
ATOM     14  C   UNL d   1       1.454   0.188   0.000  0.00  0.00     0.112 A 
ATOM     15  C   UNL d   1       2.892   0.196   0.000  0.00  0.00     0.112 A 
ATOM     16  C   UNL d   1       1.454   1.021   0.000  0.00  0.00     0.142 A 
ATOM     17  O   UNL d   1       2.179   1.438   0.000  0.00  0.00    -0.300 OA
ATOM     18  C   UNL d   1       2.892   1.021   0.000  0.00  0.00     0.142 A 
ATOM     19  O   UNL d   1       1.467  -1.462   0.000  0.00  0.00    -0.237 OA
ENDBRANCH  11  12
ENDBRANCH   1  11
BRANCH   4  20
ATOM     20  O   UNL d   1       5.775  -2.288   0.000  0.00  0.00    -0.259 OA
BRANCH  20  21
ATOM     21  C   UNL d   1       6.487  -2.692   0.000  0.00  0.00     0.378 C 
ATOM     22  N   UNL d   1       7.204  -2.279   0.000  0.00  0.00    -0.247 N 
ATOM     23  C   UNL d   1       7.912  -2.704   0.000  0.00  0.00     0.112 A 
ATOM     24  C   UNL d   1       7.200  -1.462   0.000  0.00  0.00     0.112 A 
ATOM     25  C   UNL d   1       8.625  -2.292   0.000  0.00  0.00     0.142 A 
ATOM     26  O   UNL d   1       8.629  -1.467   0.000  0.00  0.00    -0.300 OA
ATOM     27  C   UNL d   1       7.917  -1.054   0.000  0.00  0.00     0.142 A 
ATOM     28  O   UNL d   1       6.479  -3.517   0.000  0.00  0.00    -0.237 OA
ENDBRANCH  20  21
ENDBRANCH   4  20
TORSDOF 4
