REMARK  4 active torsions:
REMARK  status: ('A' for Active; 'I' for Inactive)
REMARK    1  A    between atoms: N_3  and  S_1 
REMARK    2  A    between atoms: C_6  and  S_1 
REMARK       I    between atoms: C_2  and  N_4 
REMARK       I    between atoms: N_5  and  C_2 
REMARK    3  A    between atoms: C_14  and  N_5 
REMARK    4  A    between atoms: C_15  and  N_5 
ROOT
ATOM      1  C   UNL d   1       2.429  -0.967   0.000  0.00  0.00     0.339 C 
ATOM      2  N   UNL d   1       4.904  -0.967   0.000  0.00  0.00    -0.226 N 
ATOM      3  N   UNL d   1       3.267  -0.967   0.000  0.00  0.00    -0.254 N 
ATOM      4  N   UNL d   1       2.004  -1.667   0.000  0.00  0.00    -0.260 N 
ATOM      5  C   UNL d   1       4.492  -0.242   0.000  0.00  0.00     0.111 A 
ATOM      6  C   UNL d   1       4.492  -1.679   0.000  0.00  0.00     0.111 A 
ATOM      7  O   UNL d   1       2.029  -0.242   0.000  0.00  0.00    -0.245 OA
ATOM      8  C   UNL d   1       3.675  -1.679   0.000  0.00  0.00     0.104 A 
ATOM      9  C   UNL d   1       3.675  -0.242   0.000  0.00  0.00     0.104 A 
ENDROOT
BRANCH   4  10
ATOM     10  C   UNL d   1       2.417  -2.400   0.000  0.00  0.00     0.068 A 
ATOM     11  C   UNL d   1       1.979  -3.112   0.000  0.00  0.00     0.018 A 
ATOM     12  C   UNL d   1       2.379  -3.842   0.000  0.00  0.00     0.002 A 
ATOM     13  C   UNL d   1       3.217  -3.854   0.000  0.00  0.00     0.000 A 
ATOM     14  C   UNL d   1       3.650  -3.138   0.000  0.00  0.00     0.002 A 
ATOM     15  C   UNL d   1       3.242  -2.404   0.000  0.00  0.00     0.018 A 
ENDBRANCH   4  10
BRANCH   4  16
ATOM     16  C   UNL d   1       1.192  -1.654   0.000  0.00  0.00     0.068 A 
ATOM     17  C   UNL d   1       0.792  -0.929   0.000  0.00  0.00     0.018 A 
ATOM     18  C   UNL d   1      -0.025  -0.912   0.000  0.00  0.00     0.002 A 
ATOM     19  C   UNL d   1      -0.450  -1.617   0.000  0.00  0.00     0.000 A 
ATOM     20  C   UNL d   1      -0.050  -2.337   0.000  0.00  0.00     0.002 A 
ATOM     21  C   UNL d   1       0.767  -2.350   0.000  0.00  0.00     0.018 A 
ENDBRANCH   4  16
BRANCH   2  22
ATOM     22  S   UNL d   1       5.729  -0.967   0.000  0.00  0.00     0.271 S 
ATOM     23  O   UNL d   1       6.142  -0.254   0.000  0.00  0.00    -0.200 OA
ATOM     24  O   UNL d   1       6.142  -1.679   0.000  0.00  0.00    -0.200 OA
BRANCH  22  25
ATOM     25  C   UNL d   1       6.554  -0.967   0.000  0.00  0.00     0.104 A 
ATOM     26  C   UNL d   1       6.967  -1.688   0.000  0.00  0.00     0.013 A 
ATOM     27  C   UNL d   1       7.792  -1.688   0.000  0.00  0.00     0.001 A 
ATOM     28  C   UNL d   1       8.204  -0.967   0.000  0.00  0.00     0.000 A 
ATOM     29  C   UNL d   1       7.787  -0.254   0.000  0.00  0.00     0.001 A 
ATOM     30  C   UNL d   1       9.029  -0.967   0.000  0.00  0.00     0.000 C 
ATOM     31  C   UNL d   1       6.967  -0.254   0.000  0.00  0.00     0.013 A 
ENDBRANCH  22  25
ENDBRANCH   2  22
TORSDOF 4
