REMARK  1 active torsions:
REMARK  status: ('A' for Active; 'I' for Inactive)
REMARK       I    between atoms: N_2  and  C_1 
REMARK       I    between atoms: N_4  and  C_1 
REMARK    1  A    between atoms: C_5  and  N_2 
ROOT
ATOM      1  N   UNL d   1       5.692  -5.404   0.004  0.00  0.00    -0.242 NA
ATOM      2  C   UNL d   1       5.079  -4.092  -0.117  0.00  0.00     0.105 A 
ATOM      3  C   UNL d   1       4.267  -5.275  -0.279  0.00  0.00     0.019 A 
ATOM      4  C   UNL d   1       4.942  -5.754  -0.142  0.00  0.00     0.082 A 
ATOM      5  C   UNL d   1       4.342  -4.442  -0.263  0.00  0.00     0.022 A 
ATOM      6  C   UNL d   1       5.754  -4.575   0.013  0.00  0.00     0.118 A 
ATOM      7  C   UNL d   1       3.529  -5.629  -0.417  0.00  0.00     0.002 A 
ATOM      8  C   UNL d   1       4.875  -6.579  -0.154  0.00  0.00     0.019 A 
ATOM      9  C   UNL d   1       3.462  -6.463  -0.429  0.00  0.00     0.000 A 
ATOM     10  C   UNL d   1       4.129  -6.938  -0.300  0.00  0.00     0.002 A 
ENDROOT
BRANCH   2  11
ATOM     11  N   UNL d   1       5.154  -3.267  -0.113  0.00  0.00    -0.191 NA
ATOM     12  C   UNL d   1       5.892  -2.913   0.025  0.00  0.00     0.354 C 
ATOM     13  N   UNL d   1       6.567  -3.388   0.154  0.00  0.00    -0.253 N 
ATOM     14  O   UNL d   1       5.967  -2.075   0.037  0.00  0.00    -0.244 OA
ATOM     15  C   UNL d   1       6.492  -4.217   0.154  0.00  0.00     0.104 C 
ATOM     16  C   UNL d   1       7.304  -3.029   0.300  0.00  0.00     0.104 C 
ENDBRANCH   2  11
TORSDOF 1
