REMARK  10 active torsions:
REMARK  status: ('A' for Active; 'I' for Inactive)
REMARK    1  A    between atoms: C_14  and  N_1 
REMARK    2  A    between atoms: N_9  and  C_2 
REMARK    3  A    between atoms: C_6  and  C_5 
REMARK    4  A    between atoms: C_7  and  C_6 
REMARK       I    between atoms: N_8  and  C_7 
REMARK    5  A    between atoms: C_10  and  N_8 
REMARK    6  A    between atoms: C_16  and  N_9 
REMARK    7  A    between atoms: O_15  and  C_13 
REMARK    8  A    between atoms: C_19  and  O_15 
REMARK    9  A    between atoms: C_21  and  C_19 
REMARK   10  A    between atoms: C_22  and  C_21 
ROOT
ATOM      1  C   UNL d   1       1.427  -2.408   0.000  0.00  0.00     0.280 C 
ATOM      2  N   UNL d   1       1.427  -1.585   0.000  0.00  0.00    -0.206 NA
ATOM      3  O   UNL d   1       0.716  -2.820   0.000  0.00  0.00    -0.265 OA
ENDROOT
BRANCH   1   4
ATOM      4  C   UNL d   1       2.146  -2.812   0.000  0.00  0.00     0.074 C 
BRANCH   4   5
ATOM      5  C   UNL d   1       2.858  -2.400   0.000  0.00  0.00     0.093 A 
ATOM      6  C   UNL d   1       3.611  -2.733   0.000  0.00  0.00     0.272 A 
ATOM      7  N   UNL d   1       4.160  -2.121   0.000  0.00  0.00    -0.252 N 
ATOM      8  O   UNL d   1       3.785  -3.536   0.000  0.00  0.00    -0.266 OA
ATOM      9  C   UNL d   1       3.748  -1.410   0.000  0.00  0.00     0.182 A 
ATOM     10  S   UNL d   1       2.937  -1.577   0.000  0.00  0.00    -0.045 SA
BRANCH   7  11
ATOM     11  C   UNL d   1       4.979  -2.200   0.000  0.00  0.00     0.085 C 
ATOM     12  C   UNL d   1       5.316  -2.958   0.000  0.00  0.00     0.021 C 
ENDBRANCH   7  11
BRANCH   9  13
ATOM     13  N   UNL d   1       4.081  -0.653   0.000  0.00  0.00    -0.221 NA
BRANCH  13  14
ATOM     14  C   UNL d   1       4.896  -0.566   0.000  0.00  0.00     0.101 C 
ATOM     15  C   UNL d   1       5.233   0.183   0.000  0.00  0.00     0.022 C 
ENDBRANCH  13  14
ENDBRANCH   9  13
ENDBRANCH   4   5
ENDBRANCH   1   4
BRANCH   2  16
ATOM     16  C   UNL d   1       0.716  -1.173   0.000  0.00  0.00     0.107 A 
ATOM     17  C   UNL d   1       0.716  -0.341   0.000  0.00  0.00     0.118 A 
ATOM     18  C   UNL d   1       0.000   0.071   0.000  0.00  0.00     0.026 A 
ATOM     19  C   UNL d   1      -0.711  -0.349   0.000  0.00  0.00     0.002 A 
ATOM     20  C   UNL d   1      -0.711  -1.173   0.000  0.00  0.00     0.002 A 
ATOM     21  C   UNL d   1       0.000  -1.585   0.000  0.00  0.00     0.021 A 
BRANCH  17  22
ATOM     22  O   UNL d   1       1.427   0.071   0.000  0.00  0.00    -0.304 OA
BRANCH  22  23
ATOM     23  C   UNL d   1       1.423   0.894   0.000  0.00  0.00     0.123 C 
BRANCH  23  24
ATOM     24  C   UNL d   1       2.126   1.310   0.000  0.00  0.00     0.027 C 
BRANCH  24  25
ATOM     25  C   UNL d   1       2.126   2.142   0.000  0.00  0.00     0.002 C 
ATOM     26  C   UNL d   1       2.845   2.546   0.000  0.00  0.00     0.000 C 
ENDBRANCH  24  25
ENDBRANCH  23  24
ENDBRANCH  22  23
ENDBRANCH  17  22
ENDBRANCH   2  16
TORSDOF 10
