REMARK  3 active torsions:
REMARK  status: ('A' for Active; 'I' for Inactive)
REMARK    1  A    between atoms: C_2  and  C_4 
REMARK    2  A    between atoms: N_3  and  C_2 
REMARK    3  A    between atoms: C_5  and  N_3 
ROOT
ATOM      1  C   UNL d   1       2.486  -1.151   0.000  0.00  0.00     0.153 C 
ATOM      2  S   UNL d   1       3.197  -0.736   0.000  0.00  0.00    -0.056 SA
ENDROOT
BRANCH   1   3
ATOM      3  C   UNL d   1       1.771  -0.740   0.000  0.00  0.00     0.109 A 
ATOM      4  N   UNL d   1       1.771   0.096   0.000  0.00  0.00    -0.243 NA
ATOM      5  C   UNL d   1       1.052   0.507   0.000  0.00  0.00     0.081 A 
ATOM      6  C   UNL d   1       0.337   0.087   0.000  0.00  0.00     0.018 A 
ATOM      7  C   UNL d   1       1.048   1.330   0.000  0.00  0.00     0.019 A 
ATOM      8  C   UNL d   1       0.337  -0.740   0.000  0.00  0.00     0.003 A 
ATOM      9  C   UNL d   1      -0.374   0.499   0.000  0.00  0.00     0.002 A 
ATOM     10  C   UNL d   1       1.052  -1.151   0.000  0.00  0.00     0.021 A 
ATOM     11  C   UNL d   1      -0.382   1.318   0.000  0.00  0.00     0.000 A 
ATOM     12  C   UNL d   1       0.328   1.733   0.000  0.00  0.00     0.002 A 
ENDBRANCH   1   3
BRANCH   1  13
ATOM     13  N   UNL d   1       2.486  -1.975   0.000  0.00  0.00    -0.233 NA
BRANCH  13  14
ATOM     14  C   UNL d   1       3.205  -2.386   0.000  0.00  0.00     0.082 A 
ATOM     15  C   UNL d   1       3.197  -3.217   0.000  0.00  0.00     0.018 A 
ATOM     16  C   UNL d   1       3.920  -3.621   0.000  0.00  0.00     0.002 A 
ATOM     17  C   UNL d   1       2.486  -3.629   0.000  0.00  0.00     0.002 C 
ATOM     18  C   UNL d   1       4.631  -3.209   0.000  0.00  0.00     0.000 A 
ATOM     19  C   UNL d   1       4.631  -2.382   0.000  0.00  0.00     0.002 A 
ATOM     20  C   UNL d   1       5.350  -3.621   0.000  0.00  0.00     0.000 C 
ATOM     21  C   UNL d   1       3.916  -1.970   0.000  0.00  0.00     0.019 A 
ENDBRANCH  13  14
ENDBRANCH   1  13
TORSDOF 3
