REMARK  6 active torsions:
REMARK  status: ('A' for Active; 'I' for Inactive)
REMARK    1  A    between atoms: S_6  and  C_1 
REMARK    2  A    between atoms: C_7  and  S_6 
REMARK    3  A    between atoms: C_8  and  C_7 
REMARK    4  A    between atoms: O_14  and  C_9 
REMARK    5  A    between atoms: C_17  and  O_14 
REMARK    6  A    between atoms: C_18  and  C_17 
ROOT
ATOM      1  C   UNL d   1       3.929   1.404   0.000  0.00  0.00     0.038 C 
ENDROOT
BRANCH   1   2
ATOM      2  S   UNL d   1       3.516   2.119   0.000  0.00  0.00    -0.048 SA
BRANCH   2   3
ATOM      3  C   UNL d   1       2.691   2.119   0.000  0.00  0.00     0.194 A 
ATOM      4  N   UNL d   1       2.198   2.777   0.000  0.00  0.00    -0.220 NA
ATOM      5  C   UNL d   1       1.402   2.500   0.000  0.00  0.00     0.101 A 
ATOM      6  C   UNL d   1       0.688   2.912   0.000  0.00  0.00     0.021 A 
ATOM      7  C   UNL d   1       1.402   1.679   0.000  0.00  0.00     0.101 A 
ATOM      8  C   UNL d   1       0.000   2.500   0.000  0.00  0.00     0.002 A 
ATOM      9  C   UNL d   1       0.000   1.679   0.000  0.00  0.00     0.002 A 
ATOM     10  C   UNL d   1       0.688   1.267   0.000  0.00  0.00     0.021 A 
ATOM     11  N   UNL d   1       2.198   1.434   0.000  0.00  0.00    -0.220 NA
ENDBRANCH   2   3
ENDBRANCH   1   2
BRANCH   1  12
ATOM     12  C   UNL d   1       4.754   1.434   0.000  0.00  0.00     0.007 A 
ATOM     13  C   UNL d   1       5.166   0.719   0.000  0.00  0.00     0.003 A 
ATOM     14  C   UNL d   1       5.991   0.719   0.000  0.00  0.00     0.025 A 
ATOM     15  C   UNL d   1       6.404   1.434   0.000  0.00  0.00     0.100 A 
ATOM     16  C   UNL d   1       5.991   2.119   0.000  0.00  0.00     0.025 A 
ATOM     17  C   UNL d   1       5.166   2.119   0.000  0.00  0.00     0.003 A 
BRANCH  15  18
ATOM     18  O   UNL d   1       7.229   1.434   0.000  0.00  0.00    -0.305 OA
BRANCH  18  19
ATOM     19  C   UNL d   1       7.641   0.719   0.000  0.00  0.00     0.123 C 
BRANCH  19  20
ATOM     20  C   UNL d   1       8.466   0.719   0.000  0.00  0.00     0.027 C 
ATOM     21  C   UNL d   1       8.879   0.000   0.000  0.00  0.00     0.002 C 
ENDBRANCH  19  20
ENDBRANCH  18  19
ENDBRANCH  15  18
ENDBRANCH   1  12
TORSDOF 6
