REMARK  2 active torsions:
REMARK  status: ('A' for Active; 'I' for Inactive)
REMARK    1  A    between atoms: N_7  and  C_2 
REMARK    2  A    between atoms: C_10  and  N_7 
ROOT
ATOM      1  N   UNL d   1      -1.439   1.019   0.000  0.00  0.00     0.002 N 
ATOM      2  C   UNL d   1      -0.727   0.602   0.000  0.00  0.00     0.773 A 
ATOM      3  C   UNL d   1      -2.148   0.602   0.000  0.00  0.00     0.317 A 
ATOM      4  N   UNL d   1      -0.727  -0.231   0.000  0.00  0.00     0.046 NA
ATOM      5  N   UNL d   1      -1.439  -0.636   0.000  0.00  0.00    -0.127 NA
ATOM      6  C   UNL d   1      -2.148  -0.231   0.000  0.00  0.00     0.162 A 
ATOM      7  O   UNL d   1      -2.875   1.042   0.000  0.00  0.00    -0.263 OA
ATOM      8  N   UNL d   1      -1.439   1.837   0.000  0.00  0.00    -0.023 N 
ATOM      9  C   UNL d   1      -2.875  -0.651   0.000  0.00  0.00     0.028 C 
ENDROOT
BRANCH   2  10
ATOM     10  N   UNL d   1       0.000   1.042   0.000  0.00  0.00    -0.058 NA
BRANCH  10  11
ATOM     11  C   UNL d   1       0.000   1.875   0.000  0.00  0.00     0.100 A 
ATOM     12  C   UNL d   1      -0.712   2.273   0.000  0.00  0.00     0.020 A 
ATOM     13  C   UNL d   1      -0.712   3.110   0.000  0.00  0.00     0.002 A 
ATOM     14  C   UNL d   1       0.000   3.511   0.000  0.00  0.00     0.000 A 
ATOM     15  C   UNL d   1       0.708   3.110   0.000  0.00  0.00     0.002 A 
ATOM     16  C   UNL d   1       0.708   2.273   0.000  0.00  0.00     0.020 A 
ENDBRANCH  10  11
ENDBRANCH   2  10
TORSDOF 2
