REMARK  3 active torsions:
REMARK  status: ('A' for Active; 'I' for Inactive)
REMARK    1  A    between atoms: N_2  and  C_1 
REMARK    2  A    between atoms: C_5  and  C_1 
REMARK    3  A    between atoms: C_3  and  N_2 
ROOT
ATOM      1  N   UNL d   1       6.167  -0.029   0.000  0.00  0.00    -0.233 NA
ENDROOT
BRANCH   1   2
ATOM      2  C   UNL d   1       6.167   0.787   0.000  0.00  0.00     0.153 C 
ATOM      3  S   UNL d   1       6.879   1.208   0.000  0.00  0.00    -0.056 SA
BRANCH   2   4
ATOM      4  C   UNL d   1       5.454   1.200   0.000  0.00  0.00     0.109 A 
ATOM      5  N   UNL d   1       4.737   0.787   0.000  0.00  0.00    -0.242 NA
ATOM      6  C   UNL d   1       4.025   1.200   0.000  0.00  0.00     0.099 A 
ATOM      7  C   UNL d   1       4.025   2.025   0.000  0.00  0.00     0.021 A 
ATOM      8  C   UNL d   1       4.737   2.446   0.000  0.00  0.00     0.003 A 
ATOM      9  C   UNL d   1       5.454   2.033   0.000  0.00  0.00     0.021 A 
ENDBRANCH   2   4
ENDBRANCH   1   2
BRANCH   1  10
ATOM     10  C   UNL d   1       6.888  -0.442   0.000  0.00  0.00     0.082 A 
ATOM     11  C   UNL d   1       6.879  -1.267   0.000  0.00  0.00     0.018 A 
ATOM     12  C   UNL d   1       7.600  -1.679   0.000  0.00  0.00     0.002 A 
ATOM     13  C   UNL d   1       6.167  -1.679   0.000  0.00  0.00     0.002 C 
ATOM     14  C   UNL d   1       8.312  -1.267   0.000  0.00  0.00     0.000 A 
ATOM     15  C   UNL d   1       8.304  -0.438   0.000  0.00  0.00     0.002 A 
ATOM     16  C   UNL d   1       7.592  -0.029   0.000  0.00  0.00     0.019 A 
ATOM     17  C   UNL d   1       9.017  -0.017   0.000  0.00  0.00     0.000 C 
ENDBRANCH   1  10
TORSDOF 3
