REMARK  3 active torsions:
REMARK  status: ('A' for Active; 'I' for Inactive)
REMARK    1  A    between atoms: C_2  and  C_4 
REMARK    2  A    between atoms: N_3  and  C_2 
REMARK    3  A    between atoms: C_5  and  N_3 
ROOT
ATOM      1  N   UNL d   1       2.124   0.096   0.000  0.00  0.00    -0.243 NA
ATOM      2  C   UNL d   1       2.124  -0.740   0.000  0.00  0.00     0.109 A 
ATOM      3  C   UNL d   1       1.409   0.507   0.000  0.00  0.00     0.081 A 
ATOM      4  C   UNL d   1       1.409  -1.151   0.000  0.00  0.00     0.021 A 
ATOM      5  C   UNL d   1       0.690   0.087   0.000  0.00  0.00     0.018 A 
ATOM      6  C   UNL d   1       0.690  -0.740   0.000  0.00  0.00     0.003 A 
ATOM      7  C   UNL d   1       1.401   1.330   0.000  0.00  0.00     0.019 A 
ATOM      8  C   UNL d   1      -0.021   0.499   0.000  0.00  0.00     0.002 A 
ATOM      9  C   UNL d   1       0.690   1.733   0.000  0.00  0.00     0.002 A 
ATOM     10  C   UNL d   1      -0.021   1.318   0.000  0.00  0.00     0.000 A 
ENDROOT
BRANCH   2  11
ATOM     11  C   UNL d   1       2.843  -1.151   0.000  0.00  0.00     0.153 C 
ATOM     12  S   UNL d   1       3.558  -0.736   0.000  0.00  0.00    -0.056 SA
BRANCH  11  13
ATOM     13  N   UNL d   1       2.843  -1.975   0.000  0.00  0.00    -0.233 NA
BRANCH  13  14
ATOM     14  C   UNL d   1       3.558  -2.386   0.000  0.00  0.00     0.082 A 
ATOM     15  C   UNL d   1       3.558  -3.217   0.000  0.00  0.00     0.018 A 
ATOM     16  C   UNL d   1       2.848  -3.629   0.000  0.00  0.00     0.002 C 
ATOM     17  C   UNL d   1       4.277  -3.621   0.000  0.00  0.00     0.002 A 
ATOM     18  C   UNL d   1       4.992  -3.209   0.000  0.00  0.00     0.000 A 
ATOM     19  C   UNL d   1       4.988  -2.382   0.000  0.00  0.00     0.002 A 
ATOM     20  C   UNL d   1       4.269  -1.970   0.000  0.00  0.00     0.019 A 
ENDBRANCH  13  14
ENDBRANCH  11  13
ENDBRANCH   2  11
TORSDOF 3
