REMARK  4 active torsions:
REMARK  status: ('A' for Active; 'I' for Inactive)
REMARK    1  A    between atoms: N_2  and  C_1 
REMARK    2  A    between atoms: C_4  and  C_1 
REMARK    3  A    between atoms: C_6  and  N_2 
REMARK    4  A    between atoms: O_12  and  C_7 
ROOT
ATOM      1  N   UNL d   1       1.929  -1.102   0.000  0.00  0.00    -0.235 NA
ENDROOT
BRANCH   1   2
ATOM      2  C   UNL d   1       1.929  -0.276   0.000  0.00  0.00     0.136 C 
ATOM      3  S   UNL d   1       2.643   0.146   0.000  0.00  0.00    -0.057 SA
BRANCH   2   4
ATOM      4  C   UNL d   1       1.207   0.138   0.000  0.00  0.00     0.031 A 
ATOM      5  C   UNL d   1       1.207   0.973   0.000  0.00  0.00     0.023 A 
ATOM      6  C   UNL d   1       0.493   1.386   0.000  0.00  0.00     0.099 A 
ATOM      7  N   UNL d   1      -0.221   0.965   0.000  0.00  0.00    -0.242 NA
ATOM      8  C   UNL d   1      -0.221   0.138   0.000  0.00  0.00     0.099 A 
ATOM      9  C   UNL d   1       0.493  -0.276   0.000  0.00  0.00     0.023 A 
ENDBRANCH   2   4
ENDBRANCH   1   2
BRANCH   1  10
ATOM     10  C   UNL d   1       2.647  -1.507   0.000  0.00  0.00     0.082 A 
ATOM     11  C   UNL d   1       2.643  -2.334   0.000  0.00  0.00     0.021 A 
ATOM     12  C   UNL d   1       3.361  -2.747   0.000  0.00  0.00     0.026 A 
ATOM     13  C   UNL d   1       4.075  -2.334   0.000  0.00  0.00     0.094 A 
ATOM     14  C   UNL d   1       4.071  -1.503   0.000  0.00  0.00     0.026 A 
ATOM     15  C   UNL d   1       3.357  -1.094   0.000  0.00  0.00     0.021 A 
BRANCH  13  16
ATOM     16  O   UNL d   1       4.789  -2.747   0.000  0.00  0.00    -0.328 OA
ATOM     17  C   UNL d   1       4.789  -3.574   0.000  0.00  0.00     0.181 C 
ENDBRANCH  13  16
ENDBRANCH   1  10
TORSDOF 4
