REMARK  4 active torsions:
REMARK  status: ('A' for Active; 'I' for Inactive)
REMARK    1  A    between atoms: C_7  and  C_2 
REMARK    2  A    between atoms: C_6  and  C_3 
REMARK    3  A    between atoms: C_11  and  C_6 
REMARK    4  A    between atoms: N_10  and  C_9 
ROOT
ATOM      1  N   UNL d   1       3.438   0.332   0.000  0.00  0.00    -0.220 NA
ATOM      2  C   UNL d   1       4.268   0.332   0.000  0.00  0.00     0.161 A 
ATOM      3  C   UNL d   1       3.190   1.120   0.000  0.00  0.00     0.146 A 
ATOM      4  O   UNL d   1       4.521   1.120   0.000  0.00  0.00    -0.257 OA
ATOM      5  C   UNL d   1       3.857   1.605   0.000  0.00  0.00     0.319 A 
ATOM      6  O   UNL d   1       3.849   2.435   0.000  0.00  0.00    -0.257 OA
ENDROOT
BRANCH   3   7
ATOM      7  C   UNL d   1       2.406   1.377   0.000  0.00  0.00     0.025 C 
BRANCH   7   8
ATOM      8  C   UNL d   1       1.784   0.821   0.000  0.00  0.00     0.002 A 
ATOM      9  C   UNL d   1       1.958   0.021   0.000  0.00  0.00     0.002 A 
ATOM     10  C   UNL d   1       1.356  -0.535   0.000  0.00  0.00     0.018 A 
ATOM     11  C   UNL d   1       0.564  -0.278   0.000  0.00  0.00     0.064 A 
ATOM     12  C   UNL d   1       0.390   0.531   0.000  0.00  0.00     0.018 A 
ATOM     13  C   UNL d   1       1.000   1.078   0.000  0.00  0.00     0.002 A 
BRANCH  11  14
ATOM     14  N   UNL d   1      -0.046  -0.825   0.000  0.00  0.00    -0.301 N 
ATOM     15  C   UNL d   1      -0.830  -0.577   0.000  0.00  0.00     0.100 C 
ATOM     16  C   UNL d   1       0.129  -1.634   0.000  0.00  0.00     0.100 C 
ENDBRANCH  11  14
ENDBRANCH   7   8
ENDBRANCH   3   7
BRANCH   2  17
ATOM     17  C   UNL d   1       4.745  -0.328   0.000  0.00  0.00     0.058 C 
ATOM     18  C   UNL d   1       4.417  -1.074   0.000  0.00  0.00     0.008 C 
ATOM     19  C   UNL d   1       5.156  -1.037   0.000  0.00  0.00     0.008 C 
ATOM     20  C   UNL d   1       5.566  -0.241   0.000  0.00  0.00     0.008 C 
ENDBRANCH   2  17
TORSDOF 4
