REMARK  3 active torsions:
REMARK  status: ('A' for Active; 'I' for Inactive)
REMARK    1  A    between atoms: C_4  and  C_1 
REMARK    2  A    between atoms: N_7  and  C_4 
REMARK    3  A    between atoms: C_9  and  N_7 
ROOT
ATOM      1  C   UNL d   1      -0.133  -1.092   0.000  0.00  0.00     0.139 A 
ATOM      2  N   UNL d   1       0.204  -0.354   0.000  0.00  0.00    -0.236 NA
ATOM      3  S   UNL d   1      -0.950  -1.017   0.000  0.00  0.00    -0.064 SA
ATOM      4  C   UNL d   1      -0.412   0.208   0.000  0.00  0.00     0.088 A 
ATOM      5  C   UNL d   1      -1.125  -0.204   0.000  0.00  0.00     0.049 A 
ATOM      6  C   UNL d   1      -0.412   1.033   0.000  0.00  0.00     0.020 A 
ATOM      7  C   UNL d   1      -1.846   0.208   0.000  0.00  0.00     0.008 A 
ATOM      8  C   UNL d   1      -1.846   1.033   0.000  0.00  0.00     0.001 A 
ATOM      9  C   UNL d   1      -1.125   1.446   0.000  0.00  0.00     0.002 A 
ENDROOT
BRANCH   1  10
ATOM     10  C   UNL d   1       0.292  -1.804   0.000  0.00  0.00     0.159 C 
ATOM     11  S   UNL d   1      -0.108  -2.529   0.000  0.00  0.00    -0.055 SA
BRANCH  10  12
ATOM     12  N   UNL d   1       1.117  -1.792   0.000  0.00  0.00    -0.233 NA
BRANCH  12  13
ATOM     13  C   UNL d   1       1.542  -2.504   0.000  0.00  0.00     0.082 A 
ATOM     14  C   UNL d   1       1.129  -3.217   0.000  0.00  0.00     0.019 A 
ATOM     15  C   UNL d   1       1.542  -3.929   0.000  0.00  0.00     0.002 A 
ATOM     16  C   UNL d   1       2.367  -3.925   0.000  0.00  0.00     0.000 A 
ATOM     17  C   UNL d   1       2.779  -3.204   0.000  0.00  0.00     0.002 A 
ATOM     18  C   UNL d   1       2.367  -2.492   0.000  0.00  0.00     0.019 A 
ENDBRANCH  12  13
ENDBRANCH  10  12
ENDBRANCH   1  10
TORSDOF 3
