REMARK  3 active torsions:
REMARK  status: ('A' for Active; 'I' for Inactive)
REMARK    1  A    between atoms: C_6  and  N_2 
REMARK    2  A    between atoms: C_7  and  C_6 
REMARK    3  A    between atoms: C_8  and  C_7 
ROOT
ATOM      1  N   UNL d   1       2.238   5.082   0.000  0.00  0.00    -0.224 NA
ATOM      2  N   UNL d   1       2.238   3.757   0.000  0.00  0.00    -0.287 N 
ATOM      3  C   UNL d   1       2.680   4.420   0.000  0.00  0.00     0.183 A 
ATOM      4  C   UNL d   1       1.436   4.008   0.000  0.00  0.00     0.083 A 
ATOM      5  C   UNL d   1       1.436   4.803   0.000  0.00  0.00     0.099 A 
ATOM      6  C   UNL d   1       0.717   3.617   0.000  0.00  0.00     0.019 A 
ATOM      7  C   UNL d   1       0.717   5.279   0.000  0.00  0.00     0.021 A 
ATOM      8  C   UNL d   1       0.000   4.008   0.000  0.00  0.00     0.002 A 
ATOM      9  C   UNL d   1       0.000   4.803   0.000  0.00  0.00     0.002 A 
ENDROOT
BRANCH   2  10
ATOM     10  C   UNL d   1       2.484   2.955   0.000  0.00  0.00     0.082 C 
BRANCH  10  11
ATOM     11  C   UNL d   1       1.931   2.373   0.000  0.00  0.00     0.019 C 
BRANCH  11  12
ATOM     12  C   UNL d   1       2.182   1.575   0.000  0.00  0.00     0.002 A 
ATOM     13  C   UNL d   1       1.600   0.969   0.000  0.00  0.00     0.000 A 
ATOM     14  C   UNL d   1       1.850   0.167   0.000  0.00  0.00     0.000 A 
ATOM     15  C   UNL d   1       2.653   0.000   0.000  0.00  0.00     0.000 A 
ATOM     16  C   UNL d   1       3.232   0.609   0.000  0.00  0.00     0.000 A 
ATOM     17  C   UNL d   1       2.984   1.384   0.000  0.00  0.00     0.000 A 
ENDBRANCH  11  12
ENDBRANCH  10  11
ENDBRANCH   2  10
TORSDOF 3
