REMARK  2 active torsions:
REMARK  status: ('A' for Active; 'I' for Inactive)
REMARK    1  A    between atoms: C_2  and  N_1 
REMARK    2  A    between atoms: C_5  and  C_7 
ROOT
ATOM      1  C   UNL d   1      -3.895   3.824   0.000  0.00  0.00     0.070 A 
ATOM      2  C   UNL d   1      -4.612   4.239   0.000  0.00  0.00     0.024 A 
ATOM      3  C   UNL d   1      -5.321   3.832   0.000  0.00  0.00     0.066 A 
ATOM      4  C   UNL d   1      -3.887   3.002   0.000  0.00  0.00     0.018 A 
ATOM      5  C   UNL d   1      -5.317   3.002   0.000  0.00  0.00     0.006 A 
ATOM      6  C   UNL d   1      -4.600   2.587   0.000  0.00  0.00     0.002 A 
ENDROOT
BRANCH   1   7
ATOM      7  N   UNL d   1      -3.178   4.231   0.000  0.00  0.00    -0.242 N 
ATOM      8  C   UNL d   1      -2.415   3.908   0.000  0.00  0.00     0.267 A 
ATOM      9  C   UNL d   1      -1.870   4.520   0.000  0.00  0.00     0.066 A 
ATOM     10  O   UNL d   1      -2.189   3.103   0.000  0.00  0.00    -0.267 OA
ATOM     11  C   UNL d   1      -2.285   5.237   0.000  0.00  0.00     0.066 A 
ATOM     12  C   UNL d   1      -3.090   5.057   0.000  0.00  0.00     0.267 A 
ATOM     13  O   UNL d   1      -3.681   5.640   0.000  0.00  0.00    -0.267 OA
ENDBRANCH   1   7
BRANCH   3  14
ATOM     14  C   UNL d   1      -6.038   4.231   0.000  0.00  0.00     0.211 C 
ATOM     15  O   UNL d   1      -6.747   3.820   0.000  0.00  0.00    -0.644 OA
ATOM     16  O   UNL d   1      -6.038   5.061   0.000  0.00  0.00    -0.644 OA
ENDBRANCH   3  14
TORSDOF 2
