REMARK  8 active torsions:
REMARK  status: ('A' for Active; 'I' for Inactive)
REMARK    1  A    between atoms: C_7  and  C_3 
REMARK    2  A    between atoms: C_9  and  C_4 
REMARK    3  A    between atoms: O_13  and  C_7 
REMARK    4  A    between atoms: O_15  and  C_12 
REMARK    5  A    between atoms: C_26  and  O_13 
REMARK    6  A    between atoms: O_25  and  C_14 
REMARK    7  A    between atoms: C_16  and  O_15 
REMARK    8  A    between atoms: C_28  and  O_25 
ROOT
ATOM      1  N   UNL d   1       1.404  -3.237   0.000  0.00  0.00    -0.254 N 
ATOM      2  C   UNL d   1       1.400  -4.062   0.000  0.00  0.00     0.182 A 
ATOM      3  C   UNL d   1       2.829  -3.242   0.000  0.00  0.00     0.097 A 
ATOM      4  C   UNL d   1       2.117  -2.825   0.000  0.00  0.00     0.075 A 
ATOM      5  N   UNL d   1       2.112  -4.475   0.000  0.00  0.00    -0.222 NA
ATOM      6  C   UNL d   1       2.829  -4.067   0.000  0.00  0.00     0.090 A 
ATOM      7  C   UNL d   1       0.692  -2.817   0.000  0.00  0.00     0.267 A 
ATOM      8  S   UNL d   1       0.692  -4.467   0.000  0.00  0.00    -0.049 SA
ATOM      9  C   UNL d   1      -0.021  -3.237   0.000  0.00  0.00     0.068 A 
ATOM     10  O   UNL d   1       0.692  -1.992   0.000  0.00  0.00    -0.267 OA
ATOM     11  C   UNL d   1      -0.021  -4.062   0.000  0.00  0.00     0.043 A 
ATOM     12  C   UNL d   1       3.538  -4.479   0.000  0.00  0.00     0.021 C 
ENDROOT
BRANCH   4  13
ATOM     13  C   UNL d   1       2.117  -2.000   0.000  0.00  0.00     0.019 A 
ATOM     14  C   UNL d   1       1.404  -1.592   0.000  0.00  0.00     0.028 A 
ATOM     15  C   UNL d   1       1.404  -0.767   0.000  0.00  0.00     0.123 A 
ATOM     16  C   UNL d   1       2.125  -0.350   0.000  0.00  0.00     0.126 A 
ATOM     17  C   UNL d   1       2.842  -0.767   0.000  0.00  0.00     0.027 A 
ATOM     18  C   UNL d   1       2.837  -1.592   0.000  0.00  0.00     0.004 A 
BRANCH  15  19
ATOM     19  O   UNL d   1       0.692  -0.354   0.000  0.00  0.00    -0.303 OA
BRANCH  19  20
ATOM     20  C   UNL d   1       0.692   0.471   0.000  0.00  0.00     0.123 C 
ATOM     21  C   UNL d   1      -0.021   0.883   0.000  0.00  0.00     0.029 C 
ENDBRANCH  19  20
ENDBRANCH  15  19
BRANCH  16  22
ATOM     22  O   UNL d   1       2.129   0.475   0.000  0.00  0.00    -0.271 OA
BRANCH  22  23
ATOM     23  C   UNL d   1       2.842   0.883   0.000  0.00  0.00     0.300 C 
ATOM     24  O   UNL d   1       2.842   1.708   0.000  0.00  0.00    -0.259 OA
ATOM     25  C   UNL d   1       3.554   0.471   0.000  0.00  0.00     0.074 C 
ENDBRANCH  22  23
ENDBRANCH  16  22
ENDBRANCH   4  13
BRANCH   3  26
ATOM     26  C   UNL d   1       3.542  -2.829   0.000  0.00  0.00     0.303 C 
ATOM     27  O   UNL d   1       3.550  -2.004   0.000  0.00  0.00    -0.259 OA
BRANCH  26  28
ATOM     28  O   UNL d   1       4.254  -3.250   0.000  0.00  0.00    -0.273 OA
BRANCH  28  29
ATOM     29  C   UNL d   1       4.975  -2.842   0.000  0.00  0.00     0.103 C 
ATOM     30  C   UNL d   1       5.688  -3.254   0.000  0.00  0.00     0.027 C 
ATOM     31  C   UNL d   1       4.979  -2.017   0.000  0.00  0.00     0.027 C 
ENDBRANCH  28  29
ENDBRANCH  26  28
ENDBRANCH   3  26
TORSDOF 8
