REMARK  3 active torsions:
REMARK  status: ('A' for Active; 'I' for Inactive)
REMARK    1  A    between atoms: C_4  and  S_1 
REMARK    2  A    between atoms: N_7  and  S_1 
REMARK    3  A    between atoms: C_14  and  N_7 
ROOT
ATOM      1  S   UNL d   1      -2.814   1.127   0.000  0.00  0.00     0.285 S 
ATOM      2  O   UNL d   1      -3.228   1.825   0.000  0.00  0.00    -0.198 OA
ATOM      3  O   UNL d   1      -2.392   0.385   0.000  0.00  0.00    -0.198 OA
ENDROOT
BRANCH   1   4
ATOM      4  C   UNL d   1      -2.087   1.542   0.000  0.00  0.00     0.105 A 
ATOM      5  C   UNL d   1      -2.087   2.349   0.000  0.00  0.00     0.012 A 
ATOM      6  C   UNL d   1      -1.345   2.763   0.000  0.00  0.00     0.001 A 
ATOM      7  C   UNL d   1      -2.814   2.792   0.000  0.00  0.00     0.001 C 
ATOM      8  C   UNL d   1      -0.647   2.378   0.000  0.00  0.00     0.000 A 
ATOM      9  C   UNL d   1      -0.647   1.505   0.000  0.00  0.00     0.001 A 
ATOM     10  C   UNL d   1       0.029   2.850   0.000  0.00  0.00     0.000 C 
ATOM     11  C   UNL d   1      -1.345   1.127   0.000  0.00  0.00     0.013 A 
ENDBRANCH   1   4
BRANCH   1  12
ATOM     12  N   UNL d   1      -3.512   0.698   0.000  0.00  0.00    -0.158 NA
BRANCH  12  13
ATOM     13  C   UNL d   1      -3.512  -0.160   0.000  0.00  0.00     0.094 A 
ATOM     14  C   UNL d   1      -2.814  -0.589   0.000  0.00  0.00     0.029 A 
ATOM     15  C   UNL d   1      -2.814  -1.396   0.000  0.00  0.00     0.059 A 
ATOM     16  S   UNL d   1      -2.181  -1.949   0.000  0.00  0.00    -0.018 SA
ATOM     17  C   UNL d   1      -3.512  -1.811   0.000  0.00  0.00     0.110 A 
ATOM     18  C   UNL d   1      -2.567  -2.683   0.000  0.00  0.00     0.332 A 
ATOM     19  O   UNL d   1      -2.116  -3.410   0.000  0.00  0.00    -0.251 OA
ATOM     20  O   UNL d   1      -3.337  -2.618   0.000  0.00  0.00    -0.268 OA
ATOM     21  C   UNL d   1      -4.210  -1.425   0.000  0.00  0.00     0.027 A 
ATOM     22  C   UNL d   1      -4.246  -0.589   0.000  0.00  0.00     0.022 A 
ENDBRANCH  12  13
ENDBRANCH   1  12
TORSDOF 3
