REMARK  4 active torsions:
REMARK  status: ('A' for Active; 'I' for Inactive)
REMARK    1  A    between atoms: C_7  and  N_1 
REMARK    2  A    between atoms: C_6  and  C_8 
REMARK    3  A    between atoms: O_16  and  C_6 
REMARK    4  A    between atoms: C_17  and  O_16 
ROOT
ATOM      1  C   UNL d   1      -3.900   3.828   0.000  0.00  0.00     0.070 A 
ATOM      2  C   UNL d   1      -5.322   2.993   0.000  0.00  0.00     0.064 A 
ATOM      3  C   UNL d   1      -4.617   4.244   0.000  0.00  0.00     0.018 A 
ATOM      4  C   UNL d   1      -3.900   3.006   0.000  0.00  0.00     0.018 A 
ATOM      5  C   UNL d   1      -5.335   3.828   0.000  0.00  0.00     0.007 A 
ATOM      6  C   UNL d   1      -4.605   2.590   0.000  0.00  0.00     0.007 A 
ENDROOT
BRANCH   1   7
ATOM      7  N   UNL d   1      -3.182   4.235   0.000  0.00  0.00    -0.242 N 
ATOM      8  C   UNL d   1      -3.094   5.067   0.000  0.00  0.00     0.267 A 
ATOM      9  C   UNL d   1      -2.288   5.243   0.000  0.00  0.00     0.066 A 
ATOM     10  O   UNL d   1      -3.686   5.646   0.000  0.00  0.00    -0.267 OA
ATOM     11  C   UNL d   1      -1.872   4.525   0.000  0.00  0.00     0.066 A 
ATOM     12  C   UNL d   1      -2.418   3.912   0.000  0.00  0.00     0.267 A 
ATOM     13  O   UNL d   1      -2.191   3.110   0.000  0.00  0.00    -0.267 OA
ENDBRANCH   1   7
BRANCH   2  14
ATOM     14  C   UNL d   1      -6.032   2.577   0.000  0.00  0.00     0.300 C 
ATOM     15  O   UNL d   1      -6.019   1.734   0.000  0.00  0.00    -0.259 OA
BRANCH  14  16
ATOM     16  O   UNL d   1      -6.754   2.980   0.000  0.00  0.00    -0.271 OA
BRANCH  16  17
ATOM     17  C   UNL d   1      -7.472   2.552   0.000  0.00  0.00     0.126 C 
ATOM     18  C   UNL d   1      -8.177   2.968   0.000  0.00  0.00     0.029 C 
ENDBRANCH  16  17
ENDBRANCH  14  16
ENDBRANCH   2  14
TORSDOF 4
