REMARK  5 active torsions:
REMARK  status: ('A' for Active; 'I' for Inactive)
REMARK    1  A    between atoms: C_9  and  C_3 
REMARK    2  A    between atoms: C_8  and  C_4 
REMARK    3  A    between atoms: C_11  and  C_8 
REMARK    4  A    between atoms: O_16  and  C_9 
REMARK    5  A    between atoms: C_18  and  C_11 
ROOT
ATOM      1  N   UNL d   1       0.267  -2.417   0.000  0.00  0.00    -0.254 N 
ATOM      2  C   UNL d   1       0.263  -3.242   0.000  0.00  0.00     0.182 A 
ATOM      3  C   UNL d   1       1.692  -2.425   0.000  0.00  0.00     0.097 A 
ATOM      4  C   UNL d   1       0.979  -2.004   0.000  0.00  0.00     0.075 A 
ATOM      5  N   UNL d   1       0.975  -3.654   0.000  0.00  0.00    -0.222 NA
ATOM      6  C   UNL d   1       1.692  -3.250   0.000  0.00  0.00     0.090 A 
ATOM      7  C   UNL d   1      -0.446  -2.004   0.000  0.00  0.00     0.267 A 
ATOM      8  S   UNL d   1      -0.446  -3.654   0.000  0.00  0.00    -0.049 SA
ATOM      9  C   UNL d   1      -1.158  -2.417   0.000  0.00  0.00     0.068 A 
ATOM     10  O   UNL d   1      -0.446  -1.179   0.000  0.00  0.00    -0.267 OA
ATOM     11  C   UNL d   1      -1.158  -3.242   0.000  0.00  0.00     0.043 A 
ATOM     12  C   UNL d   1       2.400  -3.667   0.000  0.00  0.00     0.021 C 
ENDROOT
BRANCH   4  13
ATOM     13  C   UNL d   1       0.979  -1.179   0.000  0.00  0.00     0.018 C 
BRANCH  13  14
ATOM     14  C   UNL d   1       1.700  -0.775   0.000  0.00  0.00     0.002 C 
BRANCH  14  15
ATOM     15  C   UNL d   1       1.704   0.050   0.000  0.00  0.00     0.000 A 
ATOM     16  C   UNL d   1       2.417   0.458   0.000  0.00  0.00     0.000 A 
ATOM     17  C   UNL d   1       2.417   1.283   0.000  0.00  0.00     0.000 A 
ATOM     18  C   UNL d   1       1.704   1.696   0.000  0.00  0.00     0.000 A 
ATOM     19  C   UNL d   1       0.992   1.283   0.000  0.00  0.00     0.000 A 
ATOM     20  C   UNL d   1       0.992   0.458   0.000  0.00  0.00     0.000 A 
ENDBRANCH  14  15
ENDBRANCH  13  14
ENDBRANCH   4  13
BRANCH   3  21
ATOM     21  C   UNL d   1       2.404  -2.017   0.000  0.00  0.00     0.299 C 
ATOM     22  O   UNL d   1       2.413  -1.192   0.000  0.00  0.00    -0.259 OA
BRANCH  21  23
ATOM     23  O   UNL d   1       3.117  -2.429   0.000  0.00  0.00    -0.296 OA
ATOM     24  C   UNL d   1       3.837  -2.025   0.000  0.00  0.00     0.185 C 
ENDBRANCH  21  23
ENDBRANCH   3  21
TORSDOF 5
