REMARK  6 active torsions:
REMARK  status: ('A' for Active; 'I' for Inactive)
REMARK    1  A    between atoms: C_9  and  C_3 
REMARK    2  A    between atoms: C_8  and  C_5 
REMARK    3  A    between atoms: O_19  and  C_9 
REMARK    4  A    between atoms: C_22  and  O_19 
REMARK    5  A    between atoms: O_21  and  C_23 
REMARK    6  A    between atoms: C_23  and  C_22 
ROOT
ATOM      1  N   UNL d   1       3.386  -7.407   0.000  0.00  0.00    -0.254 N 
ATOM      2  C   UNL d   1       3.382  -8.234   0.000  0.00  0.00     0.182 A 
ATOM      3  C   UNL d   1       4.814  -7.415   0.000  0.00  0.00     0.098 A 
ATOM      4  N   UNL d   1       4.096  -8.647   0.000  0.00  0.00    -0.222 NA
ATOM      5  C   UNL d   1       4.100  -6.994   0.000  0.00  0.00     0.081 A 
ATOM      6  C   UNL d   1       4.814  -8.242   0.000  0.00  0.00     0.090 A 
ATOM      7  C   UNL d   1       2.672  -6.994   0.000  0.00  0.00     0.267 A 
ATOM      8  S   UNL d   1       2.672  -8.647   0.000  0.00  0.00    -0.049 SA
ATOM      9  C   UNL d   1       1.958  -7.407   0.000  0.00  0.00     0.068 A 
ATOM     10  O   UNL d   1       2.672  -6.167   0.000  0.00  0.00    -0.267 OA
ATOM     11  C   UNL d   1       1.958  -8.234   0.000  0.00  0.00     0.043 A 
ATOM     12  C   UNL d   1       5.524  -8.660   0.000  0.00  0.00     0.021 C 
ENDROOT
BRANCH   3  13
ATOM     13  C   UNL d   1       5.528  -7.006   0.000  0.00  0.00     0.303 C 
ATOM     14  O   UNL d   1       5.537  -6.179   0.000  0.00  0.00    -0.259 OA
BRANCH  13  15
ATOM     15  O   UNL d   1       6.242  -7.420   0.000  0.00  0.00    -0.269 OA
BRANCH  15  16
ATOM     16  C   UNL d   1       6.964  -7.014   0.000  0.00  0.00     0.152 C 
BRANCH  16  17
ATOM     17  C   UNL d   1       7.678  -7.432   0.000  0.00  0.00     0.143 C 
BRANCH  17  18
ATOM     18  O   UNL d   1       8.397  -7.019   0.000  0.00  0.00    -0.324 OA
ATOM     19  C   UNL d   1       9.111  -7.432   0.000  0.00  0.00     0.182 C 
ENDBRANCH  17  18
ENDBRANCH  16  17
ENDBRANCH  15  16
ENDBRANCH  13  15
ENDBRANCH   3  13
BRANCH   5  20
ATOM     20  C   UNL d   1       4.100  -6.167   0.000  0.00  0.00     0.046 A 
ATOM     21  S   UNL d   1       4.714  -5.616   0.000  0.00  0.00    -0.085 SA
ATOM     22  C   UNL d   1       4.376  -4.864   0.000  0.00  0.00     0.035 A 
ATOM     23  C   UNL d   1       3.557  -4.952   0.000  0.00  0.00     0.007 A 
ATOM     24  C   UNL d   1       3.386  -5.754   0.000  0.00  0.00     0.009 A 
ENDBRANCH   5  20
TORSDOF 6
