REMARK  4 active torsions:
REMARK  status: ('A' for Active; 'I' for Inactive)
REMARK    1  A    between atoms: C_8  and  N_1 
REMARK    2  A    between atoms: C_6  and  C_3 
REMARK       I    between atoms: N_9  and  C_6 
REMARK    3  A    between atoms: C_13  and  N_9 
REMARK    4  A    between atoms: C_14  and  C_13 
ROOT
ATOM      1  N   UNL d   1       1.704  -1.633   0.000  0.00  0.00    -0.276 N 
ATOM      2  C   UNL d   1       1.031  -1.152   0.000  0.00  0.00     0.181 A 
ATOM      3  C   UNL d   1       0.367  -1.633   0.000  0.00  0.00     0.126 A 
ATOM      4  C   UNL d   1       1.445  -2.422   0.000  0.00  0.00     0.152 A 
ATOM      5  S   UNL d   1       0.618  -2.422   0.000  0.00  0.00    -0.051 SA
ATOM      6  S   UNL d   1       1.933  -3.094   0.000  0.00  0.00    -0.052 SA
ATOM      7  N   UNL d   1       1.031  -0.326   0.000  0.00  0.00    -0.128 N 
ENDROOT
BRANCH   3   8
ATOM      8  C   UNL d   1      -0.422  -1.382   0.000  0.00  0.00     0.288 C 
ATOM      9  N   UNL d   1      -0.597  -0.576   0.000  0.00  0.00    -0.204 NA
ATOM     10  O   UNL d   1      -1.035  -1.933   0.000  0.00  0.00    -0.265 OA
BRANCH   9  11
ATOM     11  C   UNL d   1       0.017  -0.017   0.000  0.00  0.00     0.127 C 
BRANCH  11  12
ATOM     12  C   UNL d   1      -0.150   0.789   0.000  0.00  0.00     0.119 A 
ATOM     13  O   UNL d   1      -0.902   1.123   0.000  0.00  0.00    -0.304 OA
ATOM     14  C   UNL d   1      -0.823   1.950   0.000  0.00  0.00     0.123 A 
ATOM     15  C   UNL d   1      -0.008   2.117   0.000  0.00  0.00     0.029 A 
ATOM     16  C   UNL d   1       0.405   1.403   0.000  0.00  0.00     0.028 A 
ENDBRANCH  11  12
ENDBRANCH   9  11
ENDBRANCH   3   8
BRANCH   1  17
ATOM     17  C   UNL d   1       2.493  -1.382   0.000  0.00  0.00     0.067 A 
ATOM     18  C   UNL d   1       3.098  -1.933   0.000  0.00  0.00     0.018 A 
ATOM     19  C   UNL d   1       3.887  -1.683   0.000  0.00  0.00     0.002 A 
ATOM     20  C   UNL d   1       4.058  -0.877   0.000  0.00  0.00     0.000 A 
ATOM     21  C   UNL d   1       3.436  -0.317   0.000  0.00  0.00     0.002 A 
ATOM     22  C   UNL d   1       2.660  -0.576   0.000  0.00  0.00     0.018 A 
ENDBRANCH   1  17
TORSDOF 4
