REMARK  2 active torsions:
REMARK  status: ('A' for Active; 'I' for Inactive)
REMARK    1  A    between atoms: C_4  and  N_1 
REMARK    2  A    between atoms: C_7  and  C_9 
ROOT
ATOM      1  C   UNL d   1      -3.896   3.825   0.000  0.00  0.00     0.070 A 
ATOM      2  C   UNL d   1      -4.613   4.240   0.000  0.00  0.00     0.024 A 
ATOM      3  C   UNL d   1      -5.322   3.833   0.000  0.00  0.00     0.066 A 
ATOM      4  C   UNL d   1      -3.888   3.003   0.000  0.00  0.00     0.018 A 
ATOM      5  C   UNL d   1      -5.318   3.003   0.000  0.00  0.00     0.006 A 
ATOM      6  C   UNL d   1      -4.601   2.587   0.000  0.00  0.00     0.002 A 
ENDROOT
BRANCH   1   7
ATOM      7  N   UNL d   1      -3.179   4.232   0.000  0.00  0.00    -0.242 N 
ATOM      8  C   UNL d   1      -3.091   5.062   0.000  0.00  0.00     0.267 A 
ATOM      9  C   UNL d   1      -2.286   5.238   0.000  0.00  0.00     0.066 A 
ATOM     10  O   UNL d   1      -3.682   5.641   0.000  0.00  0.00    -0.267 OA
ATOM     11  C   UNL d   1      -1.870   4.521   0.000  0.00  0.00     0.066 A 
ATOM     12  C   UNL d   1      -2.416   3.909   0.000  0.00  0.00     0.267 A 
ATOM     13  O   UNL d   1      -2.189   3.108   0.000  0.00  0.00    -0.267 OA
ENDBRANCH   1   7
BRANCH   3  14
ATOM     14  C   UNL d   1      -6.039   4.232   0.000  0.00  0.00     0.211 C 
ATOM     15  O   UNL d   1      -6.748   3.821   0.000  0.00  0.00    -0.644 OA
ATOM     16  O   UNL d   1      -6.039   5.062   0.000  0.00  0.00    -0.644 OA
ENDBRANCH   3  14
TORSDOF 2
