REMARK  3 active torsions:
REMARK  status: ('A' for Active; 'I' for Inactive)
REMARK    1  A    between atoms: C_2  and  S_1 
REMARK    2  A    between atoms: N_3  and  S_1 
REMARK    3  A    between atoms: C_4  and  N_3 
ROOT
ATOM      1  C   UNL d   1      -0.361  -0.361   0.000  0.00  0.00     0.094 A 
ATOM      2  C   UNL d   1       0.415  -0.072   0.000  0.00  0.00     0.021 A 
ATOM      3  C   UNL d   1       1.017  -0.584   0.000  0.00  0.00     0.040 A 
ATOM      4  C   UNL d   1       0.873  -1.396   0.000  0.00  0.00     0.196 A 
ATOM      5  C   UNL d   1      -0.505  -1.161   0.000  0.00  0.00     0.023 A 
ATOM      6  C   UNL d   1       0.096  -1.685   0.000  0.00  0.00     0.044 A 
ATOM      7  O   UNL d   1       1.540  -1.919   0.000  0.00  0.00    -0.287 OA
ATOM      8  C   UNL d   1       0.560   0.740   0.000  0.00  0.00     0.002 A 
ATOM      9  C   UNL d   1       1.829  -0.295   0.000  0.00  0.00     0.003 A 
ATOM     10  C   UNL d   1       1.974   0.505   0.000  0.00  0.00     0.000 A 
ATOM     11  C   UNL d   1       1.342   1.029   0.000  0.00  0.00     0.000 A 
ENDROOT
BRANCH   1  12
ATOM     12  N   UNL d   1      -1.005   0.163   0.000  0.00  0.00    -0.158 NA
BRANCH  12  13
ATOM     13  S   UNL d   1      -1.781  -0.126   0.000  0.00  0.00     0.291 S 
ATOM     14  O   UNL d   1      -1.492  -0.909   0.000  0.00  0.00    -0.198 OA
ATOM     15  O   UNL d   1      -2.070   0.626   0.000  0.00  0.00    -0.198 OA
BRANCH  13  16
ATOM     16  C   UNL d   1      -2.557  -0.385   0.000  0.00  0.00     0.135 A 
ATOM     17  S   UNL d   1      -3.195   0.090   0.000  0.00  0.00    -0.073 SA
ATOM     18  C   UNL d   1      -3.893  -0.361   0.000  0.00  0.00     0.036 A 
ATOM     19  C   UNL d   1      -3.676  -1.137   0.000  0.00  0.00     0.008 A 
ATOM     20  C   UNL d   1      -2.846  -1.179   0.000  0.00  0.00     0.020 A 
ENDBRANCH  13  16
ENDBRANCH  12  13
ENDBRANCH   1  12
TORSDOF 3
