REMARK  5 active torsions:
REMARK  status: ('A' for Active; 'I' for Inactive)
REMARK    1  A    between atoms: N_2  and  S_1 
REMARK    2  A    between atoms: C_4  and  S_1 
REMARK    3  A    between atoms: C_3  and  N_2 
REMARK       I    between atoms: C_6  and  N_2 
REMARK    4  A    between atoms: O_13  and  C_7 
REMARK    5  A    between atoms: C_14  and  O_13 
ROOT
ATOM      1  C   UNL d   1       1.189  -0.093   0.000  0.00  0.00     0.078 A 
ATOM      2  C   UNL d   1       1.764  -0.702   0.000  0.00  0.00     0.019 A 
ATOM      3  C   UNL d   1       0.737  -1.677   0.000  0.00  0.00     0.103 A 
ATOM      4  C   UNL d   1       1.514  -1.485   0.000  0.00  0.00     0.024 A 
ATOM      5  C   UNL d   1       0.406  -0.319   0.000  0.00  0.00     0.020 A 
ATOM      6  C   UNL d   1       0.145  -1.102   0.000  0.00  0.00     0.026 A 
ATOM      7  C   UNL d   1       2.564  -0.528   0.000  0.00  0.00     0.002 A 
ATOM      8  C   UNL d   1       2.059  -2.094   0.000  0.00  0.00     0.002 A 
ATOM      9  C   UNL d   1       3.115  -1.131   0.000  0.00  0.00     0.000 A 
ATOM     10  C   UNL d   1       2.860  -1.920   0.000  0.00  0.00     0.000 A 
ENDROOT
BRANCH   1  11
ATOM     11  N   UNL d   1       1.433   0.690   0.000  0.00  0.00    -0.198 N 
ATOM     12  C   UNL d   1       2.233   0.882   0.000  0.00  0.00     0.274 C 
ATOM     13  O   UNL d   1       2.790   0.290   0.000  0.00  0.00    -0.266 OA
ATOM     14  C   UNL d   1       2.703   1.578   0.000  0.00  0.00     0.067 C 
BRANCH  11  15
ATOM     15  S   UNL d   1       0.841   1.299   0.000  0.00  0.00     0.279 S 
ATOM     16  O   UNL d   1       1.468   1.856   0.000  0.00  0.00    -0.199 OA
ATOM     17  O   UNL d   1       0.267   0.708   0.000  0.00  0.00    -0.199 OA
BRANCH  15  18
ATOM     18  C   UNL d   1       0.284   1.891   0.000  0.00  0.00     0.133 A 
ATOM     19  S   UNL d   1       0.423   2.709   0.000  0.00  0.00    -0.074 SA
ATOM     20  C   UNL d   1      -0.273   3.144   0.000  0.00  0.00     0.036 A 
ATOM     21  C   UNL d   1      -0.899   2.587   0.000  0.00  0.00     0.008 A 
ATOM     22  C   UNL d   1      -0.586   1.821   0.000  0.00  0.00     0.020 A 
ENDBRANCH  15  18
ENDBRANCH  11  15
ENDBRANCH   1  11
BRANCH   3  23
ATOM     23  O   UNL d   1       0.493  -2.512   0.000  0.00  0.00    -0.273 OA
BRANCH  23  24
ATOM     24  C   UNL d   1      -0.325  -2.738   0.000  0.00  0.00     0.300 C 
ATOM     25  O   UNL d   1      -0.551  -3.538   0.000  0.00  0.00    -0.259 OA
ATOM     26  C   UNL d   1      -1.004  -2.077   0.000  0.00  0.00     0.074 C 
ENDBRANCH  23  24
ENDBRANCH   3  23
TORSDOF 5
