REMARK  2 active torsions:
REMARK  status: ('A' for Active; 'I' for Inactive)
REMARK    1  A    between atoms: C_6  and  C_2 
REMARK    2  A    between atoms: C_7  and  C_6 
ROOT
ATOM      1  N   UNL d   1       2.547  -2.034   0.000  0.00  0.00    -0.193 NA
ATOM      2  C   UNL d   1       2.547  -0.701   0.000  0.00  0.00     0.153 A 
ATOM      3  N   UNL d   1       1.764  -0.953   0.000  0.00  0.00    -0.306 N 
ATOM      4  C   UNL d   1       1.764  -1.777   0.000  0.00  0.00     0.147 A 
ATOM      5  C   UNL d   1       3.037  -1.365   0.000  0.00  0.00     0.276 A 
ATOM      6  C   UNL d   1       1.044  -0.541   0.000  0.00  0.00     0.077 A 
ATOM      7  C   UNL d   1       1.044  -2.199   0.000  0.00  0.00     0.037 A 
ATOM      8  O   UNL d   1       3.862  -1.365   0.000  0.00  0.00    -0.268 OA
ATOM      9  C   UNL d   1       0.334  -0.953   0.000  0.00  0.00     0.019 A 
ATOM     10  C   UNL d   1       0.334  -1.786   0.000  0.00  0.00     0.005 A 
ATOM     11  C   UNL d   1       2.135   0.014   0.000  0.00  0.00     0.033 C 
ENDROOT
BRANCH   2  12
ATOM     12  C   UNL d   1       3.344  -0.472   0.000  0.00  0.00     0.128 C 
BRANCH  12  13
ATOM     13  C   UNL d   1       3.536   0.330   0.000  0.00  0.00     0.188 C 
ATOM     14  O   UNL d   1       2.946   0.902   0.000  0.00  0.00    -0.647 OA
ATOM     15  O   UNL d   1       4.333   0.559   0.000  0.00  0.00    -0.647 OA
ENDBRANCH  12  13
ENDBRANCH   2  12
TORSDOF 2
