REMARK  2 active torsions:
REMARK  status: ('A' for Active; 'I' for Inactive)
REMARK    1  A    between atoms: N_2  and  C_1 
REMARK    2  A    between atoms: N_11  and  C_3 
ROOT
ATOM      1  C   UNL d   1       2.828  -0.775   0.000  0.00  0.00     0.142 A 
ATOM      2  C   UNL d   1       2.828   0.050   0.000  0.00  0.00     0.124 A 
ATOM      3  C   UNL d   1       2.114  -1.182   0.000  0.00  0.00     0.215 A 
ATOM      4  C   UNL d   1       2.119   0.469   0.000  0.00  0.00     0.213 A 
ATOM      5  C   UNL d   1       1.397  -0.771   0.000  0.00  0.00     0.044 A 
ATOM      6  C   UNL d   1       1.405   0.058   0.000  0.00  0.00     0.044 A 
ATOM      7  O   UNL d   1       2.106  -2.007   0.000  0.00  0.00    -0.285 OA
ATOM      8  O   UNL d   1       2.119   1.294   0.000  0.00  0.00    -0.285 OA
ATOM      9  C   UNL d   1       0.688  -1.173   0.000  0.00  0.00     0.003 A 
ATOM     10  C   UNL d   1       0.688   0.473   0.000  0.00  0.00     0.003 A 
ATOM     11  C   UNL d   1      -0.021   0.058   0.000  0.00  0.00     0.000 A 
ATOM     12  C   UNL d   1      -0.021  -0.771   0.000  0.00  0.00     0.000 A 
ENDROOT
BRANCH   1  13
ATOM     13  N   UNL d   1       3.537  -1.186   0.000  0.00  0.00    -0.206 N 
ATOM     14  N   UNL d   1       4.291  -0.850   0.000  0.00  0.00    -0.059 NA
ATOM     15  N   UNL d   1       4.843  -1.468   0.000  0.00  0.00    -0.129 NA
ATOM     16  C   UNL d   1       4.420  -2.181   0.000  0.00  0.00     0.122 A 
ATOM     17  C   UNL d   1       3.611  -2.002   0.000  0.00  0.00     0.104 A 
ATOM     18  C   UNL d   1       4.677  -2.964   0.000  0.00  0.00     0.022 A 
ATOM     19  C   UNL d   1       3.060  -2.604   0.000  0.00  0.00     0.021 A 
ATOM     20  C   UNL d   1       3.300  -3.400   0.000  0.00  0.00     0.002 A 
ATOM     21  C   UNL d   1       4.109  -3.574   0.000  0.00  0.00     0.002 A 
ENDBRANCH   1  13
BRANCH   2  22
ATOM     22  N   UNL d   1       3.545   0.460   0.000  0.00  0.00    -0.296 N 
ATOM     23  C   UNL d   1       4.258   0.046   0.000  0.00  0.00     0.107 A 
ATOM     24  C   UNL d   1       4.967   0.448   0.000  0.00  0.00     0.142 A 
ATOM     25  O   UNL d   1       4.975   1.277   0.000  0.00  0.00    -0.300 OA
ATOM     26  C   UNL d   1       4.258   1.687   0.000  0.00  0.00     0.142 A 
ATOM     27  C   UNL d   1       3.545   1.277   0.000  0.00  0.00     0.107 A 
ENDBRANCH   2  22
TORSDOF 2
