REMARK  3 active torsions:
REMARK  status: ('A' for Active; 'I' for Inactive)
REMARK    1  A    between atoms: N_2  and  S_1 
REMARK    2  A    between atoms: C_5  and  S_1 
REMARK    3  A    between atoms: C_4  and  C_3 
REMARK       I    between atoms: N_8  and  C_4 
ROOT
ATOM      1  N   UNL d   1       6.431  -4.807   0.000  0.00  0.00    -0.226 N 
ATOM      2  C   UNL d   1       6.389  -3.990   0.000  0.00  0.00     0.131 A 
ATOM      3  C   UNL d   1       5.729  -5.247   0.000  0.00  0.00     0.092 A 
ATOM      4  C   UNL d   1       5.660  -3.610   0.000  0.00  0.00     0.023 A 
ATOM      5  C   UNL d   1       5.009  -4.871   0.000  0.00  0.00     0.018 A 
ATOM      6  C   UNL d   1       4.972  -4.045   0.000  0.00  0.00     0.003 A 
ATOM      7  C   UNL d   1       4.307  -5.302   0.000  0.00  0.00     0.002 A 
ATOM      8  C   UNL d   1       4.252  -3.651   0.000  0.00  0.00     0.000 A 
ATOM      9  C   UNL d   1       3.550  -4.087   0.000  0.00  0.00     0.000 A 
ATOM     10  C   UNL d   1       3.578  -4.917   0.000  0.00  0.00     0.000 A 
ENDROOT
BRANCH   2  11
ATOM     11  C   UNL d   1       7.091  -3.550   0.000  0.00  0.00     0.282 C 
ATOM     12  N   UNL d   1       7.059  -2.724   0.000  0.00  0.00    -0.271 N 
ATOM     13  C   UNL d   1       6.307  -2.399   0.000  0.00  0.00     0.083 A 
ATOM     14  C   UNL d   1       7.793  -2.339   0.000  0.00  0.00     0.083 A 
ATOM     15  C   UNL d   1       6.087  -1.601   0.000  0.00  0.00     0.019 A 
ATOM     16  C   UNL d   1       6.568  -0.940   0.000  0.00  0.00     0.002 A 
ATOM     17  C   UNL d   1       7.394  -0.899   0.000  0.00  0.00     0.002 A 
ATOM     18  C   UNL d   1       7.940  -1.527   0.000  0.00  0.00     0.019 A 
ATOM     19  O   UNL d   1       7.820  -3.926   0.000  0.00  0.00    -0.265 OA
ENDBRANCH   2  11
BRANCH   1  20
ATOM     20  S   UNL d   1       7.160  -5.192   0.000  0.00  0.00     0.277 S 
ATOM     21  O   UNL d   1       7.513  -4.449   0.000  0.00  0.00    -0.199 OA
ATOM     22  O   UNL d   1       6.798  -5.935   0.000  0.00  0.00    -0.199 OA
BRANCH  20  23
ATOM     23  C   UNL d   1       7.898  -5.564   0.000  0.00  0.00     0.133 A 
ATOM     24  S   UNL d   1       8.027  -6.375   0.000  0.00  0.00    -0.074 SA
ATOM     25  C   UNL d   1       8.839  -6.508   0.000  0.00  0.00     0.036 A 
ATOM     26  C   UNL d   1       9.219  -5.770   0.000  0.00  0.00     0.008 A 
ATOM     27  C   UNL d   1       8.632  -5.188   0.000  0.00  0.00     0.020 A 
ENDBRANCH  20  23
ENDBRANCH   1  20
TORSDOF 3
