REMARK  0 active torsions:
REMARK  status: ('A' for Active; 'I' for Inactive)
ROOT
ATOM      1  N   UNL d   1       3.037  -2.671   0.000  0.00  0.00    -0.187 N 
ATOM      2  C   UNL d   1       3.028  -1.846   0.000  0.00  0.00     0.200 A 
ATOM      3  N   UNL d   1       2.313  -1.434   0.000  0.00  0.00    -0.181 NA
ATOM      4  N   UNL d   1       2.313  -3.092   0.000  0.00  0.00    -0.157 NA
ATOM      5  C   UNL d   1       3.825  -2.918   0.000  0.00  0.00     0.194 A 
ATOM      6  C   UNL d   1       1.599  -1.846   0.000  0.00  0.00     0.300 A 
ATOM      7  C   UNL d   1       1.599  -2.680   0.000  0.00  0.00     0.159 A 
ATOM      8  S   UNL d   1       3.811  -1.585   0.000  0.00  0.00    -0.045 SA
ATOM      9  C   UNL d   1       4.306  -2.254   0.000  0.00  0.00     0.079 A 
ATOM     10  O   UNL d   1       0.884  -1.434   0.000  0.00  0.00    -0.263 OA
ATOM     11  N   UNL d   1       4.082  -3.701   0.000  0.00  0.00    -0.126 N 
ATOM     12  C   UNL d   1       0.884  -3.092   0.000  0.00  0.00     0.028 C 
ENDROOT
TORSDOF 0
