REMARK  7 active torsions:
REMARK  status: ('A' for Active; 'I' for Inactive)
REMARK    1  A    between atoms: C_7  and  C_1 
REMARK    2  A    between atoms: C_8  and  C_2 
REMARK    3  A    between atoms: C_10  and  C_3 
REMARK    4  A    between atoms: O_14  and  C_7 
REMARK    5  A    between atoms: O_15  and  C_8 
REMARK    6  A    between atoms: C_19  and  O_14 
REMARK    7  A    between atoms: C_20  and  O_15 
ROOT
ATOM      1  C   UNL d   1       2.417  -1.641   0.000  0.00  0.00     0.100 A 
ATOM      2  C   UNL d   1       0.989  -1.641   0.000  0.00  0.00     0.103 A 
ATOM      3  C   UNL d   1       1.707  -1.226   0.000  0.00  0.00     0.016 A 
ATOM      4  C   UNL d   1       2.417  -2.474   0.000  0.00  0.00     0.171 A 
ATOM      5  C   UNL d   1       0.989  -2.474   0.000  0.00  0.00     0.204 A 
ATOM      6  C   UNL d   1       1.707  -2.889   0.000  0.00  0.00     0.081 A 
ATOM      7  O   UNL d   1       0.428  -2.878   0.000  0.00  0.00    -0.286 OA
ATOM      8  O   UNL d   1       3.042  -2.279   0.000  0.00  0.00    -0.289 OA
ATOM      9  C   UNL d   1       2.648  -3.053   0.000  0.00  0.00     0.042 C 
ENDROOT
BRANCH   3  10
ATOM     10  C   UNL d   1       1.707  -0.408   0.000  0.00  0.00     0.001 A 
ATOM     11  C   UNL d   1       2.417   0.011   0.000  0.00  0.00     0.000 A 
ATOM     12  C   UNL d   1       2.417   0.836   0.000  0.00  0.00     0.000 A 
ATOM     13  C   UNL d   1       1.707   1.248   0.000  0.00  0.00     0.000 A 
ATOM     14  C   UNL d   1       0.989   0.836   0.000  0.00  0.00     0.000 A 
ATOM     15  C   UNL d   1       0.989   0.011   0.000  0.00  0.00     0.000 A 
ENDBRANCH   3  10
BRANCH   2  16
ATOM     16  C   UNL d   1       0.276  -1.226   0.000  0.00  0.00     0.303 C 
ATOM     17  O   UNL d   1       0.265  -0.397   0.000  0.00  0.00    -0.259 OA
BRANCH  16  18
ATOM     18  O   UNL d   1      -0.448  -1.615   0.000  0.00  0.00    -0.271 OA
BRANCH  18  19
ATOM     19  C   UNL d   1      -1.156  -1.180   0.000  0.00  0.00     0.126 C 
ATOM     20  C   UNL d   1      -1.886  -1.573   0.000  0.00  0.00     0.029 C 
ENDBRANCH  18  19
ENDBRANCH  16  18
ENDBRANCH   2  16
BRANCH   1  21
ATOM     21  C   UNL d   1       3.132  -1.226   0.000  0.00  0.00     0.303 C 
ATOM     22  O   UNL d   1       3.126  -0.417   0.000  0.00  0.00    -0.259 OA
BRANCH  21  23
ATOM     23  O   UNL d   1       3.865  -1.615   0.000  0.00  0.00    -0.271 OA
BRANCH  23  24
ATOM     24  C   UNL d   1       4.563  -1.180   0.000  0.00  0.00     0.126 C 
ATOM     25  C   UNL d   1       5.293  -1.573   0.000  0.00  0.00     0.029 C 
ENDBRANCH  23  24
ENDBRANCH  21  23
ENDBRANCH   1  21
TORSDOF 7
