REMARK  7 active torsions:
REMARK  status: ('A' for Active; 'I' for Inactive)
REMARK       I    between atoms: N_2  and  C_1 
REMARK    1  A    between atoms: C_5  and  N_2 
REMARK    2  A    between atoms: N_4  and  C_9 
REMARK    3  A    between atoms: C_16  and  N_4 
REMARK    4  A    between atoms: O_6  and  C_8 
REMARK    5  A    between atoms: C_10  and  O_6 
REMARK    6  A    between atoms: C_7  and  C_10 
REMARK    7  A    between atoms: C_9  and  C_7 
ROOT
ATOM      1  C   UNL d   1      -3.332   1.647   0.000  0.00  0.00     0.085 A 
ATOM      2  C   UNL d   1      -1.905   0.824   0.000  0.00  0.00     0.100 A 
ATOM      3  C   UNL d   1      -3.332   0.824   0.000  0.00  0.00     0.021 A 
ATOM      4  C   UNL d   1      -2.621   2.067   0.000  0.00  0.00     0.021 A 
ATOM      5  C   UNL d   1      -1.905   1.655   0.000  0.00  0.00     0.026 A 
ATOM      6  C   UNL d   1      -2.621   0.412   0.000  0.00  0.00     0.026 A 
ENDROOT
BRANCH   2   7
ATOM      7  O   UNL d   1      -1.194   0.412   0.000  0.00  0.00    -0.302 OA
BRANCH   7   8
ATOM      8  C   UNL d   1      -1.194  -0.412   0.000  0.00  0.00     0.166 C 
BRANCH   8   9
ATOM      9  C   UNL d   1      -0.474  -0.815   0.000  0.00  0.00     0.239 C 
ATOM     10  O   UNL d   1      -0.474  -1.639   0.000  0.00  0.00    -0.283 OA
BRANCH   9  11
ATOM     11  C   UNL d   1       0.237  -0.404   0.000  0.00  0.00     0.143 C 
BRANCH  11  12
ATOM     12  N   UNL d   1       0.953  -0.815   0.000  0.00  0.00    -0.241 NA
BRANCH  12  13
ATOM     13  C   UNL d   1       1.660  -0.404   0.000  0.00  0.00     0.082 C 
ATOM     14  C   UNL d   1       2.375  -0.824   0.000  0.00  0.00     0.021 C 
ATOM     15  C   UNL d   1       1.660   0.420   0.000  0.00  0.00     0.021 C 
ENDBRANCH  12  13
ENDBRANCH  11  12
ENDBRANCH   9  11
ENDBRANCH   8   9
ENDBRANCH   7   8
ENDBRANCH   2   7
BRANCH   1  16
ATOM     16  N   UNL d   1      -4.043   2.059   0.000  0.00  0.00    -0.208 NA
ATOM     17  C   UNL d   1      -4.043   2.891   0.000  0.00  0.00     0.279 C 
ATOM     18  O   UNL d   1      -3.332   3.294   0.000  0.00  0.00    -0.265 OA
ATOM     19  C   UNL d   1      -4.763   3.294   0.000  0.00  0.00     0.068 C 
ENDBRANCH   1  16
TORSDOF 7
