REMARK  5 active torsions:
REMARK  status: ('A' for Active; 'I' for Inactive)
REMARK    1  A    between atoms: C_10  and  C_2 
REMARK    2  A    between atoms: S_8  and  C_3 
REMARK    3  A    between atoms: C_6  and  N_7 
REMARK       I    between atoms: N_7  and  C_9 
REMARK    4  A    between atoms: C_15  and  S_8 
REMARK    5  A    between atoms: C_9  and  C_15 
ROOT
ATOM      1  S   UNL d   1      -1.719  -1.607   0.000  0.00  0.00    -0.041 SA
ENDROOT
BRANCH   1   2
ATOM      2  C   UNL d   1      -2.537  -1.607   0.000  0.00  0.00     0.219 A 
ATOM      3  N   UNL d   1      -2.952  -2.314   0.000  0.00  0.00    -0.167 N 
ATOM      4  C   UNL d   1      -3.745  -2.142   0.000  0.00  0.00     0.189 A 
ATOM      5  N   UNL d   1      -2.617  -3.067   0.000  0.00  0.00    -0.038 N 
ATOM      6  N   UNL d   1      -3.861  -1.344   0.000  0.00  0.00    -0.126 NA
ATOM      7  N   UNL d   1      -3.107  -1.009   0.000  0.00  0.00    -0.120 NA
BRANCH   4   8
ATOM      8  C   UNL d   1      -4.352  -2.696   0.000  0.00  0.00     0.038 A 
ATOM      9  C   UNL d   1      -4.176  -3.522   0.000  0.00  0.00     0.003 A 
ATOM     10  C   UNL d   1      -4.787  -4.085   0.000  0.00  0.00     0.000 A 
ATOM     11  C   UNL d   1      -5.584  -3.817   0.000  0.00  0.00     0.000 A 
ATOM     12  C   UNL d   1      -5.748  -2.996   0.000  0.00  0.00     0.000 A 
ATOM     13  C   UNL d   1      -5.142  -2.445   0.000  0.00  0.00     0.003 A 
ENDBRANCH   4   8
ENDBRANCH   1   2
BRANCH   1  14
ATOM     14  C   UNL d   1      -1.292  -0.897   0.000  0.00  0.00     0.101 C 
BRANCH  14  15
ATOM     15  C   UNL d   1      -0.479  -0.897   0.000  0.00  0.00     0.286 C 
ATOM     16  N   UNL d   1      -0.068  -0.160   0.000  0.00  0.00    -0.208 NA
ATOM     17  O   UNL d   1      -0.060  -1.596   0.000  0.00  0.00    -0.265 OA
BRANCH  16  18
ATOM     18  C   UNL d   1       0.770  -0.160   0.000  0.00  0.00     0.085 A 
ATOM     19  C   UNL d   1       1.185   0.558   0.000  0.00  0.00     0.018 A 
ATOM     20  C   UNL d   1       2.010   0.558   0.000  0.00  0.00     0.002 A 
ATOM     21  C   UNL d   1       0.782   1.264   0.000  0.00  0.00     0.002 C 
ATOM     22  C   UNL d   1       2.421  -0.160   0.000  0.00  0.00     0.000 A 
ATOM     23  C   UNL d   1       1.998  -0.866   0.000  0.00  0.00     0.002 A 
ATOM     24  C   UNL d   1       1.197  -0.866   0.000  0.00  0.00     0.019 A 
ATOM     25  C   UNL d   1       2.409  -1.580   0.000  0.00  0.00     0.000 C 
ENDBRANCH  16  18
ENDBRANCH  14  15
ENDBRANCH   1  14
TORSDOF 5
