REMARK  1 active torsions:
REMARK  status: ('A' for Active; 'I' for Inactive)
REMARK    1  A    between atoms: C_11  and  C_4 
ROOT
ATOM      1  N   UNL d   1       1.731  -1.146   0.000  0.00  0.00    -0.242 NA
ATOM      2  C   UNL d   1       1.029  -0.733   0.000  0.00  0.00     0.099 A 
ATOM      3  N   UNL d   1       1.731   0.502   0.000  0.00  0.00    -0.241 NA
ATOM      4  C   UNL d   1       2.430  -0.733   0.000  0.00  0.00     0.101 A 
ATOM      5  C   UNL d   1       1.029   0.092   0.000  0.00  0.00     0.099 A 
ATOM      6  C   UNL d   1       0.323  -1.146   0.000  0.00  0.00     0.021 A 
ATOM      7  C   UNL d   1      -0.408  -0.733   0.000  0.00  0.00     0.002 A 
ATOM      8  C   UNL d   1      -0.408   0.092   0.000  0.00  0.00     0.002 A 
ATOM      9  C   UNL d   1       0.323   0.502   0.000  0.00  0.00     0.021 A 
ATOM     10  C   UNL d   1       2.430   0.092   0.000  0.00  0.00     0.118 A 
ATOM     11  C   UNL d   1      -1.134  -1.146   0.000  0.00  0.00     0.000 C 
ATOM     12  C   UNL d   1      -1.134   0.502   0.000  0.00  0.00     0.000 C 
ENDROOT
BRANCH   4  13
ATOM     13  C   UNL d   1       3.134  -1.146   0.000  0.00  0.00     0.019 A 
ATOM     14  C   UNL d   1       3.134  -1.966   0.000  0.00  0.00     0.002 A 
ATOM     15  C   UNL d   1       3.861  -2.408   0.000  0.00  0.00     0.000 A 
ATOM     16  C   UNL d   1       4.562  -1.966   0.000  0.00  0.00     0.000 A 
ATOM     17  C   UNL d   1       4.562  -1.146   0.000  0.00  0.00     0.000 A 
ATOM     18  C   UNL d   1       3.861  -0.733   0.000  0.00  0.00     0.002 A 
ENDBRANCH   4  13
TORSDOF 1
