REMARK  3 active torsions:
REMARK  status: ('A' for Active; 'I' for Inactive)
REMARK    1  A    between atoms: C_7  and  N_1 
REMARK    2  A    between atoms: N_3  and  C_8 
REMARK    3  A    between atoms: C_11  and  C_4 
ROOT
ATOM      1  N   UNL d   1       5.432  -1.210   0.000  0.00  0.00    -0.230 N 
ATOM      2  N   UNL d   1       6.203  -1.480   0.000  0.00  0.00    -0.165 NA
ATOM      3  C   UNL d   1       5.448  -0.374   0.000  0.00  0.00     0.084 A 
ATOM      4  C   UNL d   1       6.705  -0.827   0.000  0.00  0.00     0.103 A 
ATOM      5  C   UNL d   1       6.245  -0.149   0.000  0.00  0.00     0.040 A 
ATOM      6  C   UNL d   1       7.543  -0.942   0.000  0.00  0.00     0.022 C 
ENDROOT
BRANCH   1   7
ATOM      7  C   UNL d   1       4.766  -1.685   0.000  0.00  0.00     0.083 A 
ATOM      8  C   UNL d   1       4.847  -2.502   0.000  0.00  0.00     0.021 A 
ATOM      9  C   UNL d   1       4.176  -2.982   0.000  0.00  0.00     0.025 A 
ATOM     10  C   UNL d   1       3.421  -2.651   0.000  0.00  0.00     0.127 A 
ATOM     11  C   UNL d   1       3.340  -1.831   0.000  0.00  0.00     0.025 A 
ATOM     12  C   UNL d   1       4.016  -1.351   0.000  0.00  0.00     0.021 A 
BRANCH  10  13
ATOM     13  N   UNL d   1       2.743  -3.144   0.000  0.00  0.00    -0.114 N 
ATOM     14  O   UNL d   1       1.935  -2.867   0.000  0.00  0.00    -0.532 OA
ATOM     15  O   UNL d   1       2.764  -3.982   0.000  0.00  0.00    -0.532 OA
ENDBRANCH  10  13
ENDBRANCH   1   7
BRANCH   3  16
ATOM     16  C   UNL d   1       4.820   0.167   0.000  0.00  0.00     0.018 A 
ATOM     17  C   UNL d   1       4.040  -0.131   0.000  0.00  0.00     0.002 A 
ATOM     18  C   UNL d   1       3.394   0.399   0.000  0.00  0.00     0.000 A 
ATOM     19  C   UNL d   1       3.536   1.210   0.000  0.00  0.00     0.000 A 
ATOM     20  C   UNL d   1       4.304   1.498   0.000  0.00  0.00     0.000 A 
ATOM     21  C   UNL d   1       4.953   0.991   0.000  0.00  0.00     0.002 A 
ENDBRANCH   3  16
TORSDOF 3
