REMARK  4 active torsions:
REMARK  status: ('A' for Active; 'I' for Inactive)
REMARK    1  A    between atoms: N_7  and  C_1 
REMARK    2  A    between atoms: C_8  and  C_2 
REMARK    3  A    between atoms: C_11  and  N_7 
REMARK    4  A    between atoms: C_19  and  C_12 
ROOT
ATOM      1  C   UNL d   1      -0.594   0.782   0.000  0.00  0.00     0.189 A 
ATOM      2  C   UNL d   1      -0.594   1.607   0.000  0.00  0.00     0.119 A 
ATOM      3  C   UNL d   1      -1.310   2.018   0.000  0.00  0.00     0.204 A 
ATOM      4  O   UNL d   1      -1.310   0.371   0.000  0.00  0.00    -0.289 OA
ATOM      5  C   UNL d   1      -2.018   1.607   0.000  0.00  0.00     0.067 A 
ATOM      6  C   UNL d   1      -2.018   0.782   0.000  0.00  0.00     0.105 A 
ATOM      7  O   UNL d   1      -1.310   2.846   0.000  0.00  0.00    -0.286 OA
ATOM      8  C   UNL d   1      -2.733   0.348   0.000  0.00  0.00     0.027 C 
ENDROOT
BRANCH   1   9
ATOM      9  N   UNL d   1       0.141   0.348   0.000  0.00  0.00    -0.222 NA
BRANCH   9  10
ATOM     10  C   UNL d   1       0.141  -0.473   0.000  0.00  0.00     0.084 A 
ATOM     11  C   UNL d   1      -0.575  -0.891   0.000  0.00  0.00     0.019 A 
ATOM     12  C   UNL d   1      -0.575  -1.716   0.000  0.00  0.00     0.002 A 
ATOM     13  C   UNL d   1       0.141  -2.127   0.000  0.00  0.00     0.000 A 
ATOM     14  C   UNL d   1       0.849  -1.716   0.000  0.00  0.00     0.002 A 
ATOM     15  C   UNL d   1       0.849  -0.891   0.000  0.00  0.00     0.019 A 
BRANCH  13  16
ATOM     16  C   UNL d   1       0.141  -2.956   0.000  0.00  0.00     0.000 C 
ATOM     17  C   UNL d   1       0.849  -3.366   0.000  0.00  0.00     0.000 C 
ENDBRANCH  13  16
ENDBRANCH   9  10
ENDBRANCH   1   9
BRANCH   2  18
ATOM     18  C   UNL d   1       0.141   2.018   0.000  0.00  0.00     0.202 C 
ATOM     19  O   UNL d   1       0.141   2.846   0.000  0.00  0.00    -0.286 OA
ATOM     20  C   UNL d   1       0.849   1.607   0.000  0.00  0.00     0.046 C 
ENDBRANCH   2  18
TORSDOF 4
