REMARK  3 active torsions:
REMARK  status: ('A' for Active; 'I' for Inactive)
REMARK    1  A    between atoms: N_6  and  C_1 
REMARK       I    between atoms: C_8  and  N_6 
REMARK       I    between atoms: C_11  and  N_7 
REMARK    2  A    between atoms: C_14  and  C_8 
REMARK    3  A    between atoms: O_20  and  C_19 
ROOT
ATOM      1  C   UNL d   1       2.281  -0.922   0.000  0.00  0.00     0.124 A 
ATOM      2  C   UNL d   1       1.786  -0.253   0.000  0.00  0.00     0.093 A 
ATOM      3  C   UNL d   1       1.001  -1.338   0.000  0.00  0.00     0.049 A 
ATOM      4  C   UNL d   1       0.997  -0.515   0.000  0.00  0.00     0.021 A 
ATOM      5  S   UNL d   1       1.786  -1.599   0.000  0.00  0.00    -0.066 SA
ATOM      6  N   UNL d   1      -0.432  -1.350   0.000  0.00  0.00    -0.272 N 
ATOM      7  C   UNL d   1       0.278  -1.761   0.000  0.00  0.00     0.089 A 
ATOM      8  C   UNL d   1       2.044   0.532   0.000  0.00  0.00     0.103 C 
ATOM      9  C   UNL d   1      -1.155  -1.761   0.000  0.00  0.00     0.265 C 
ATOM     10  N   UNL d   1       2.297   1.304   0.000  0.00  0.00    -0.191 NA
ATOM     11  C   UNL d   1       0.278  -0.091   0.000  0.00  0.00     0.020 A 
ATOM     12  C   UNL d   1      -0.432  -0.515   0.000  0.00  0.00     0.083 A 
ATOM     13  O   UNL d   1      -1.155  -2.584   0.000  0.00  0.00    -0.267 OA
ATOM     14  C   UNL d   1      -1.865  -1.350   0.000  0.00  0.00     0.066 C 
ENDROOT
BRANCH   1  15
ATOM     15  N   UNL d   1       3.107  -0.922   0.000  0.00  0.00    -0.201 NA
ATOM     16  C   UNL d   1       3.519  -1.637   0.000  0.00  0.00     0.280 C 
ATOM     17  O   UNL d   1       3.116  -2.355   0.000  0.00  0.00    -0.265 OA
BRANCH  16  18
ATOM     18  C   UNL d   1       4.329  -1.637   0.000  0.00  0.00     0.060 A 
ATOM     19  C   UNL d   1       4.748  -2.347   0.000  0.00  0.00     0.029 A 
ATOM     20  C   UNL d   1       5.571  -2.347   0.000  0.00  0.00     0.094 A 
ATOM     21  C   UNL d   1       5.982  -1.637   0.000  0.00  0.00     0.024 A 
ATOM     22  C   UNL d   1       5.571  -0.922   0.000  0.00  0.00     0.002 A 
ATOM     23  C   UNL d   1       4.736  -0.922   0.000  0.00  0.00     0.005 A 
BRANCH  20  24
ATOM     24  O   UNL d   1       6.007  -3.070   0.000  0.00  0.00    -0.328 OA
ATOM     25  C   UNL d   1       6.829  -3.070   0.000  0.00  0.00     0.181 C 
ENDBRANCH  20  24
ENDBRANCH  16  18
ENDBRANCH   1  15
TORSDOF 3
