REMARK  5 active torsions:
REMARK  status: ('A' for Active; 'I' for Inactive)
REMARK    1  A    between atoms: N_6  and  C_1 
REMARK    2  A    between atoms: C_10  and  C_2 
REMARK       I    between atoms: C_9  and  N_6 
REMARK    3  A    between atoms: C_14  and  C_9 
REMARK    4  A    between atoms: C_13  and  C_15 
REMARK    5  A    between atoms: C_19  and  C_13 
ROOT
ATOM      1  N   UNL d   1      -0.359   2.365   0.000  0.00  0.00    -0.201 NA
ATOM      2  C   UNL d   1       0.054   1.651   0.000  0.00  0.00     0.280 C 
ATOM      3  O   UNL d   1      -0.351   0.936   0.000  0.00  0.00    -0.265 OA
ENDROOT
BRANCH   1   4
ATOM      4  C   UNL d   1      -1.187   2.365   0.000  0.00  0.00     0.118 A 
ATOM      5  C   UNL d   1      -1.676   3.030   0.000  0.00  0.00     0.083 A 
ATOM      6  C   UNL d   1      -2.453   2.767   0.000  0.00  0.00     0.008 A 
ATOM      7  C   UNL d   1      -3.168   3.184   0.000  0.00  0.00    -0.004 A 
ATOM      8  C   UNL d   1      -2.453   1.952   0.000  0.00  0.00     0.028 A 
ATOM      9  C   UNL d   1      -3.882   2.767   0.000  0.00  0.00     0.099 A 
ATOM     10  C   UNL d   1      -3.882   3.594   0.000  0.00  0.00     0.029 C 
ATOM     11  C   UNL d   1      -4.597   2.357   0.000  0.00  0.00     0.029 C 
ATOM     12  N   UNL d   1      -3.882   1.939   0.000  0.00  0.00    -0.294 NA
ATOM     13  C   UNL d   1      -3.168   1.530   0.000  0.00  0.00     0.104 A 
ATOM     14  C   UNL d   1      -3.757   0.949   0.000  0.00  0.00     0.029 C 
ATOM     15  C   UNL d   1      -2.583   0.949   0.000  0.00  0.00     0.029 C 
ATOM     16  S   UNL d   1      -1.667   1.693   0.000  0.00  0.00    -0.070 SA
BRANCH   5  17
ATOM     17  C   UNL d   1      -1.417   3.807   0.000  0.00  0.00     0.299 C 
ATOM     18  O   UNL d   1      -1.977   4.417   0.000  0.00  0.00    -0.264 OA
ATOM     19  N   UNL d   1      -0.610   3.983   0.000  0.00  0.00    -0.102 N 
ENDBRANCH   5  17
ENDBRANCH   1   4
BRANCH   2  20
ATOM     20  C   UNL d   1       0.869   1.651   0.000  0.00  0.00     0.058 A 
ATOM     21  C   UNL d   1       1.283   2.365   0.000  0.00  0.00     0.005 A 
ATOM     22  C   UNL d   1       2.111   2.365   0.000  0.00  0.00     0.003 A 
ATOM     23  C   UNL d   1       2.524   1.651   0.000  0.00  0.00     0.039 A 
ATOM     24  C   UNL d   1       2.111   0.949   0.000  0.00  0.00     0.003 A 
ATOM     25  C   UNL d   1       1.283   0.949   0.000  0.00  0.00     0.005 A 
BRANCH  23  26
ATOM     26  C   UNL d   1       3.348   1.655   0.000  0.00  0.00     0.196 C 
ATOM     27  O   UNL d   1       3.761   0.949   0.000  0.00  0.00    -0.287 OA
BRANCH  26  28
ATOM     28  C   UNL d   1       3.753   2.370   0.000  0.00  0.00     0.039 A 
ATOM     29  C   UNL d   1       3.348   3.080   0.000  0.00  0.00     0.003 A 
ATOM     30  C   UNL d   1       3.753   3.795   0.000  0.00  0.00     0.000 A 
ATOM     31  C   UNL d   1       4.580   3.795   0.000  0.00  0.00     0.000 A 
ATOM     32  C   UNL d   1       4.994   3.080   0.000  0.00  0.00     0.000 A 
ATOM     33  C   UNL d   1       4.580   2.370   0.000  0.00  0.00     0.003 A 
ENDBRANCH  26  28
ENDBRANCH  23  26
ENDBRANCH   2  20
TORSDOF 5
