REMARK  4 active torsions:
REMARK  status: ('A' for Active; 'I' for Inactive)
REMARK    1  A    between atoms: N_8  and  C_1 
REMARK    2  A    between atoms: C_12  and  C_2 
REMARK    3  A    between atoms: C_4  and  C_10 
REMARK       I    between atoms: C_10  and  N_8 
REMARK       I    between atoms: C_14  and  N_11 
REMARK    4  A    between atoms: O_22  and  C_12 
ROOT
ATOM      1  C   UNL d   1       2.164  -1.078   0.000  0.00  0.00     0.119 A 
ATOM      2  C   UNL d   1       1.677  -0.416   0.000  0.00  0.00     0.088 A 
ATOM      3  C   UNL d   1       0.899  -1.498   0.000  0.00  0.00     0.049 A 
ATOM      4  C   UNL d   1       0.891  -0.678   0.000  0.00  0.00     0.016 A 
ATOM      5  S   UNL d   1       1.677  -1.752   0.000  0.00  0.00    -0.066 SA
ATOM      6  N   UNL d   1      -0.533  -1.511   0.000  0.00  0.00    -0.272 N 
ATOM      7  C   UNL d   1       0.175  -1.914   0.000  0.00  0.00     0.089 A 
ATOM      8  C   UNL d   1      -1.257  -1.914   0.000  0.00  0.00     0.265 C 
ATOM      9  C   UNL d   1       0.175  -0.262   0.000  0.00  0.00     0.020 A 
ATOM     10  C   UNL d   1      -0.533  -0.678   0.000  0.00  0.00     0.083 A 
ATOM     11  O   UNL d   1      -1.257  -2.738   0.000  0.00  0.00    -0.267 OA
ATOM     12  C   UNL d   1      -1.968  -1.511   0.000  0.00  0.00     0.066 C 
ENDROOT
BRANCH   1  13
ATOM     13  N   UNL d   1       2.996  -1.078   0.000  0.00  0.00    -0.200 NA
ATOM     14  C   UNL d   1       3.400  -1.798   0.000  0.00  0.00     0.303 C 
ATOM     15  O   UNL d   1       2.996  -2.509   0.000  0.00  0.00    -0.263 OA
BRANCH  14  16
ATOM     16  C   UNL d   1       4.224  -1.798   0.000  0.00  0.00     0.169 A 
ATOM     17  N   UNL d   1       4.719  -1.128   0.000  0.00  0.00    -0.234 NA
ATOM     18  C   UNL d   1       5.510  -1.411   0.000  0.00  0.00     0.088 A 
ATOM     19  C   UNL d   1       6.234  -1.016   0.000  0.00  0.00     0.020 A 
ATOM     20  C   UNL d   1       5.468  -2.239   0.000  0.00  0.00     0.049 A 
ATOM     21  C   UNL d   1       6.933  -1.461   0.000  0.00  0.00     0.002 A 
ATOM     22  C   UNL d   1       6.896  -2.289   0.000  0.00  0.00     0.001 A 
ATOM     23  C   UNL d   1       6.172  -2.672   0.000  0.00  0.00     0.008 A 
ATOM     24  S   UNL d   1       4.682  -2.459   0.000  0.00  0.00    -0.062 SA
ENDBRANCH  14  16
ENDBRANCH   1  13
BRANCH   2  25
ATOM     25  C   UNL d   1       1.927   0.362   0.000  0.00  0.00     0.298 C 
ATOM     26  O   UNL d   1       1.373   0.970   0.000  0.00  0.00    -0.259 OA
BRANCH  25  27
ATOM     27  O   UNL d   1       2.747   0.537   0.000  0.00  0.00    -0.296 OA
ATOM     28  C   UNL d   1       3.300  -0.075   0.000  0.00  0.00     0.185 C 
ENDBRANCH  25  27
ENDBRANCH   2  25
TORSDOF 4
