REMARK  3 active torsions:
REMARK  status: ('A' for Active; 'I' for Inactive)
REMARK    1  A    between atoms: N_6  and  C_1 
REMARK    2  A    between atoms: C_9  and  C_2 
REMARK       I    between atoms: C_8  and  N_6 
REMARK       I    between atoms: C_11  and  N_7 
REMARK    3  A    between atoms: C_17  and  C_8 
ROOT
ATOM      1  C   UNL d   1       2.692  -1.079   0.000  0.00  0.00     0.119 A 
ATOM      2  C   UNL d   1       2.204  -0.417   0.000  0.00  0.00     0.084 A 
ATOM      3  C   UNL d   1       1.429  -1.500   0.000  0.00  0.00     0.049 A 
ATOM      4  C   UNL d   1       1.417  -0.679   0.000  0.00  0.00     0.016 A 
ATOM      5  S   UNL d   1       2.212  -1.754   0.000  0.00  0.00    -0.066 SA
ATOM      6  N   UNL d   1      -0.008  -1.512   0.000  0.00  0.00    -0.272 N 
ATOM      7  C   UNL d   1       0.704  -1.917   0.000  0.00  0.00     0.089 A 
ATOM      8  C   UNL d   1      -0.725  -1.917   0.000  0.00  0.00     0.265 C 
ATOM      9  C   UNL d   1       0.704  -0.263   0.000  0.00  0.00     0.020 A 
ATOM     10  C   UNL d   1      -0.008  -0.679   0.000  0.00  0.00     0.083 A 
ATOM     11  O   UNL d   1      -0.725  -2.742   0.000  0.00  0.00    -0.267 OA
ATOM     12  C   UNL d   1      -1.438  -1.512   0.000  0.00  0.00     0.066 C 
ENDROOT
BRANCH   1  13
ATOM     13  N   UNL d   1       3.525  -1.079   0.000  0.00  0.00    -0.201 NA
ATOM     14  C   UNL d   1       3.929  -1.800   0.000  0.00  0.00     0.280 C 
ATOM     15  O   UNL d   1       3.525  -2.517   0.000  0.00  0.00    -0.265 OA
BRANCH  14  16
ATOM     16  C   UNL d   1       4.754  -1.800   0.000  0.00  0.00     0.058 A 
ATOM     17  C   UNL d   1       5.167  -2.517   0.000  0.00  0.00     0.005 A 
ATOM     18  C   UNL d   1       5.992  -2.517   0.000  0.00  0.00     0.000 A 
ATOM     19  C   UNL d   1       6.417  -1.800   0.000  0.00  0.00     0.000 A 
ATOM     20  C   UNL d   1       5.992  -1.092   0.000  0.00  0.00     0.000 A 
ATOM     21  C   UNL d   1       5.167  -1.092   0.000  0.00  0.00     0.005 A 
ENDBRANCH  14  16
ENDBRANCH   1  13
BRANCH   2  22
ATOM     22  C   UNL d   1       2.462   0.362   0.000  0.00  0.00     0.299 C 
ATOM     23  O   UNL d   1       1.904   0.971   0.000  0.00  0.00    -0.264 OA
ATOM     24  N   UNL d   1       3.267   0.537   0.000  0.00  0.00    -0.102 N 
ENDBRANCH   2  22
TORSDOF 3
