REMARK  5 active torsions:
REMARK  status: ('A' for Active; 'I' for Inactive)
REMARK    1  A    between atoms: N_6  and  C_1 
REMARK    2  A    between atoms: C_12  and  C_2 
REMARK       I    between atoms: C_9  and  N_6 
REMARK       I    between atoms: C_11  and  N_7 
REMARK    3  A    between atoms: C_8  and  C_9 
REMARK    4  A    between atoms: O_24  and  C_11 
REMARK    5  A    between atoms: C_25  and  O_24 
ROOT
ATOM      1  C   UNL d   1       2.841  -1.079   0.000  0.00  0.00     0.119 A 
ATOM      2  C   UNL d   1       2.354  -0.412   0.000  0.00  0.00     0.084 A 
ATOM      3  C   UNL d   1       1.575  -1.491   0.000  0.00  0.00     0.049 A 
ATOM      4  C   UNL d   1       1.566  -0.679   0.000  0.00  0.00     0.016 A 
ATOM      5  S   UNL d   1       2.354  -1.754   0.000  0.00  0.00    -0.066 SA
ATOM      6  N   UNL d   1       0.142  -1.504   0.000  0.00  0.00    -0.251 N 
ATOM      7  C   UNL d   1      -0.583  -1.916   0.000  0.00  0.00     0.378 C 
ATOM      8  C   UNL d   1       0.850  -1.916   0.000  0.00  0.00     0.091 A 
ATOM      9  C   UNL d   1       0.850  -0.254   0.000  0.00  0.00     0.020 A 
ATOM     10  C   UNL d   1       0.142  -0.679   0.000  0.00  0.00     0.085 A 
ATOM     11  O   UNL d   1      -0.583  -2.741   0.000  0.00  0.00    -0.237 OA
ENDROOT
BRANCH   1  12
ATOM     12  N   UNL d   1       3.666  -1.079   0.000  0.00  0.00    -0.201 NA
ATOM     13  C   UNL d   1       4.078  -1.791   0.000  0.00  0.00     0.286 C 
ATOM     14  O   UNL d   1       3.666  -2.512   0.000  0.00  0.00    -0.265 OA
BRANCH  13  15
ATOM     15  C   UNL d   1       4.903  -1.791   0.000  0.00  0.00     0.088 A 
ATOM     16  S   UNL d   1       5.403  -2.462   0.000  0.00  0.00    -0.071 SA
ATOM     17  C   UNL d   1       6.190  -2.191   0.000  0.00  0.00     0.087 A 
ATOM     18 CL   UNL d   1       6.878  -2.675   0.000  0.00  0.00    -0.075 Cl
ATOM     19  C   UNL d   1       6.174  -1.366   0.000  0.00  0.00     0.019 A 
ATOM     20  C   UNL d   1       5.378  -1.129   0.000  0.00  0.00     0.013 A 
ENDBRANCH  13  15
ENDBRANCH   1  12
BRANCH   2  21
ATOM     21  C   UNL d   1       2.604   0.371   0.000  0.00  0.00     0.299 C 
ATOM     22  O   UNL d   1       2.054   0.975   0.000  0.00  0.00    -0.264 OA
ATOM     23  N   UNL d   1       3.412   0.546   0.000  0.00  0.00    -0.102 N 
ENDBRANCH   2  21
BRANCH   7  24
ATOM     24  O   UNL d   1      -1.296  -1.504   0.000  0.00  0.00    -0.257 OA
BRANCH  24  25
ATOM     25  C   UNL d   1      -1.300  -0.679   0.000  0.00  0.00     0.128 C 
ATOM     26  C   UNL d   1      -2.008  -0.262   0.000  0.00  0.00     0.029 C 
ENDBRANCH  24  25
ENDBRANCH   7  24
TORSDOF 5
