REMARK  4 active torsions:
REMARK  status: ('A' for Active; 'I' for Inactive)
REMARK    1  A    between atoms: N_8  and  C_1 
REMARK    2  A    between atoms: C_13  and  C_2 
REMARK    3  A    between atoms: C_6  and  C_11 
REMARK       I    between atoms: C_11  and  N_8 
REMARK    4  A    between atoms: O_20  and  C_13 
ROOT
ATOM      1  C   UNL d   1      -1.187   2.365   0.000  0.00  0.00     0.119 A 
ATOM      2  C   UNL d   1      -1.676   3.030   0.000  0.00  0.00     0.087 A 
ATOM      3  C   UNL d   1      -2.453   2.767   0.000  0.00  0.00     0.008 A 
ATOM      4  C   UNL d   1      -2.453   1.952   0.000  0.00  0.00     0.028 A 
ATOM      5  S   UNL d   1      -1.667   1.693   0.000  0.00  0.00    -0.070 SA
ATOM      6  C   UNL d   1      -3.168   1.530   0.000  0.00  0.00     0.104 A 
ATOM      7  N   UNL d   1      -3.882   1.939   0.000  0.00  0.00    -0.294 NA
ATOM      8  C   UNL d   1      -3.882   2.767   0.000  0.00  0.00     0.099 A 
ATOM      9  C   UNL d   1      -3.168   3.184   0.000  0.00  0.00    -0.004 A 
ATOM     10  C   UNL d   1      -3.757   0.949   0.000  0.00  0.00     0.029 C 
ATOM     11  C   UNL d   1      -2.583   0.949   0.000  0.00  0.00     0.029 C 
ATOM     12  C   UNL d   1      -3.882   3.594   0.000  0.00  0.00     0.029 C 
ATOM     13  C   UNL d   1      -4.597   2.357   0.000  0.00  0.00     0.029 C 
ENDROOT
BRANCH   1  14
ATOM     14  N   UNL d   1      -0.359   2.365   0.000  0.00  0.00    -0.200 NA
ATOM     15  C   UNL d   1       0.054   1.651   0.000  0.00  0.00     0.303 C 
ATOM     16  O   UNL d   1      -0.359   0.940   0.000  0.00  0.00    -0.263 OA
BRANCH  15  17
ATOM     17  C   UNL d   1       0.869   1.651   0.000  0.00  0.00     0.169 A 
ATOM     18  N   UNL d   1       1.371   2.315   0.000  0.00  0.00    -0.234 NA
ATOM     19  C   UNL d   1       2.156   2.039   0.000  0.00  0.00     0.088 A 
ATOM     20  C   UNL d   1       2.884   2.428   0.000  0.00  0.00     0.020 A 
ATOM     21  C   UNL d   1       2.111   1.212   0.000  0.00  0.00     0.049 A 
ATOM     22  C   UNL d   1       3.577   1.989   0.000  0.00  0.00     0.002 A 
ATOM     23  C   UNL d   1       3.548   1.162   0.000  0.00  0.00     0.001 A 
ATOM     24  C   UNL d   1       2.825   0.777   0.000  0.00  0.00     0.008 A 
ATOM     25  S   UNL d   1       1.333   0.991   0.000  0.00  0.00    -0.062 SA
ENDBRANCH  15  17
ENDBRANCH   1  14
BRANCH   2  26
ATOM     26  C   UNL d   1      -1.417   3.807   0.000  0.00  0.00     0.298 C 
ATOM     27  O   UNL d   1      -1.977   4.417   0.000  0.00  0.00    -0.259 OA
BRANCH  26  28
ATOM     28  O   UNL d   1      -0.602   3.983   0.000  0.00  0.00    -0.296 OA
ATOM     29  C   UNL d   1      -0.050   3.373   0.000  0.00  0.00     0.185 C 
ENDBRANCH  26  28
ENDBRANCH   2  26
TORSDOF 4
