REMARK  3 active torsions:
REMARK  status: ('A' for Active; 'I' for Inactive)
REMARK    1  A    between atoms: S_3  and  N_1 
REMARK    2  A    between atoms: C_5  and  C_4 
REMARK    3  A    between atoms: C_12  and  C_6 
ROOT
ATOM      1  N   UNL d   1       4.290   2.148   0.000  0.00  0.00    -0.155 N 
ATOM      2  N   UNL d   1       4.840   2.750   0.000  0.00  0.00    -0.153 NA
ATOM      3  C   UNL d   1       3.546   2.475   0.000  0.00  0.00     0.098 A 
ATOM      4  C   UNL d   1       4.427   3.465   0.000  0.00  0.00     0.126 A 
ATOM      5  C   UNL d   1       3.627   3.295   0.000  0.00  0.00     0.043 A 
ENDROOT
BRANCH   3   6
ATOM      6  C   UNL d   1       2.831   2.062   0.000  0.00  0.00     0.047 A 
ATOM      7  C   UNL d   1       2.831   1.238   0.000  0.00  0.00     0.140 A 
ATOM      8  N   UNL d   1       2.116   0.825   0.000  0.00  0.00    -0.234 NA
ATOM      9 CL   UNL d   1       3.546   0.825   0.000  0.00  0.00    -0.061 Cl
ATOM     10  C   UNL d   1       1.402   1.238   0.000  0.00  0.00     0.082 A 
ATOM     11  C   UNL d   1       1.402   2.062   0.000  0.00  0.00     0.018 A 
ATOM     12  C   UNL d   1       0.688   0.825   0.000  0.00  0.00     0.018 A 
ATOM     13  C   UNL d   1       2.116   2.475   0.000  0.00  0.00     0.005 A 
ATOM     14  C   UNL d   1       0.688   2.475   0.000  0.00  0.00     0.002 A 
ATOM     15  C   UNL d   1       0.000   2.062   0.000  0.00  0.00     0.000 A 
ATOM     16  C   UNL d   1       0.000   1.238   0.000  0.00  0.00     0.002 A 
ATOM     17  C   UNL d   1       0.688   0.000   0.000  0.00  0.00     0.002 C 
ENDBRANCH   3   6
BRANCH   1  18
ATOM     18  S   UNL d   1       4.864   1.569   0.000  0.00  0.00     0.266 S 
ATOM     19  O   UNL d   1       5.665   1.760   0.000  0.00  0.00    -0.203 OA
ATOM     20  O   UNL d   1       4.452   0.855   0.000  0.00  0.00    -0.203 OA
ATOM     21  C   UNL d   1       5.277   0.855   0.000  0.00  0.00     0.165 C 
ENDBRANCH   1  18
BRANCH   4  22
ATOM     22  C   UNL d   1       4.754   4.206   0.000  0.00  0.00     0.119 A 
ATOM     23  O   UNL d   1       4.371   4.920   0.000  0.00  0.00    -0.304 OA
ATOM     24  C   UNL d   1       4.920   5.527   0.000  0.00  0.00     0.123 A 
ATOM     25  C   UNL d   1       5.665   5.196   0.000  0.00  0.00     0.029 A 
ATOM     26  C   UNL d   1       5.579   4.371   0.000  0.00  0.00     0.028 A 
ENDBRANCH   4  22
TORSDOF 3
