REMARK  3 active torsions:
REMARK  status: ('A' for Active; 'I' for Inactive)
REMARK    1  A    between atoms: S_3  and  N_1 
REMARK    2  A    between atoms: C_7  and  C_4 
REMARK    3  A    between atoms: C_12  and  C_5 
ROOT
ATOM      1  N   UNL d   1       4.292   1.627   0.000  0.00  0.00    -0.155 N 
ATOM      2  N   UNL d   1       4.840   2.232   0.000  0.00  0.00    -0.156 NA
ATOM      3  C   UNL d   1       3.549   1.954   0.000  0.00  0.00     0.096 A 
ATOM      4  C   UNL d   1       4.427   2.937   0.000  0.00  0.00     0.103 A 
ATOM      5  C   UNL d   1       3.631   2.775   0.000  0.00  0.00     0.041 A 
ENDROOT
BRANCH   3   6
ATOM      6  C   UNL d   1       2.832   1.541   0.000  0.00  0.00     0.020 A 
ATOM      7  C   UNL d   1       2.116   1.954   0.000  0.00  0.00     0.022 A 
ATOM      8  C   UNL d   1       1.401   1.541   0.000  0.00  0.00     0.099 A 
ATOM      9  N   UNL d   1       0.686   1.954   0.000  0.00  0.00    -0.241 NA
ATOM     10  C   UNL d   1       1.401   0.720   0.000  0.00  0.00     0.099 A 
ATOM     11  C   UNL d   1       0.000   1.541   0.000  0.00  0.00     0.120 A 
ATOM     12  C   UNL d   1       0.000   0.720   0.000  0.00  0.00     0.120 A 
ATOM     13  N   UNL d   1       0.686   0.307   0.000  0.00  0.00    -0.241 NA
ATOM     14  C   UNL d   1       2.116   0.307   0.000  0.00  0.00     0.021 A 
ATOM     15  C   UNL d   1       2.832   0.720   0.000  0.00  0.00     0.003 A 
ENDBRANCH   3   6
BRANCH   1  16
ATOM     16  S   UNL d   1       4.456   0.801   0.000  0.00  0.00     0.266 S 
ATOM     17  O   UNL d   1       5.282   0.993   0.000  0.00  0.00    -0.203 OA
ATOM     18  O   UNL d   1       4.648   0.000   0.000  0.00  0.00    -0.203 OA
ATOM     19  C   UNL d   1       3.658   0.634   0.000  0.00  0.00     0.165 C 
ENDBRANCH   1  16
BRANCH   4  20
ATOM     20  C   UNL d   1       4.759   3.682   0.000  0.00  0.00     0.019 A 
ATOM     21  C   UNL d   1       4.292   4.346   0.000  0.00  0.00     0.002 A 
ATOM     22  C   UNL d   1       4.619   5.118   0.000  0.00  0.00     0.000 A 
ATOM     23  C   UNL d   1       5.445   5.199   0.000  0.00  0.00     0.000 A 
ATOM     24  C   UNL d   1       5.909   4.508   0.000  0.00  0.00     0.000 A 
ATOM     25  C   UNL d   1       5.776   5.939   0.000  0.00  0.00     0.000 C 
ATOM     26  C   UNL d   1       5.585   3.768   0.000  0.00  0.00     0.002 A 
ENDBRANCH   4  20
TORSDOF 3
