REMARK  4 active torsions:
REMARK  status: ('A' for Active; 'I' for Inactive)
REMARK    1  A    between atoms: S_3  and  N_1 
REMARK    2  A    between atoms: C_7  and  C_4 
REMARK    3  A    between atoms: C_12  and  C_5 
REMARK    4  A    between atoms: O_24  and  C_21 
ROOT
ATOM      1  N   UNL d   1       4.260   1.625   0.000  0.00  0.00    -0.155 N 
ATOM      2  N   UNL d   1       4.805   2.229   0.000  0.00  0.00    -0.156 NA
ATOM      3  C   UNL d   1       3.516   1.952   0.000  0.00  0.00     0.096 A 
ATOM      4  C   UNL d   1       4.397   2.934   0.000  0.00  0.00     0.103 A 
ATOM      5  C   UNL d   1       3.597   2.772   0.000  0.00  0.00     0.041 A 
ENDROOT
BRANCH   3   6
ATOM      6  C   UNL d   1       2.801   1.539   0.000  0.00  0.00     0.020 A 
ATOM      7  C   UNL d   1       2.087   1.952   0.000  0.00  0.00     0.022 A 
ATOM      8  C   UNL d   1       1.373   1.539   0.000  0.00  0.00     0.099 A 
ATOM      9  N   UNL d   1       0.658   1.952   0.000  0.00  0.00    -0.241 NA
ATOM     10  C   UNL d   1       1.373   0.719   0.000  0.00  0.00     0.099 A 
ATOM     11  C   UNL d   1       0.000   1.539   0.000  0.00  0.00     0.120 A 
ATOM     12  C   UNL d   1       0.000   0.719   0.000  0.00  0.00     0.120 A 
ATOM     13  N   UNL d   1       0.658   0.307   0.000  0.00  0.00    -0.241 NA
ATOM     14  C   UNL d   1       2.087   0.307   0.000  0.00  0.00     0.021 A 
ATOM     15  C   UNL d   1       2.801   0.719   0.000  0.00  0.00     0.003 A 
ENDBRANCH   3   6
BRANCH   1  16
ATOM     16  S   UNL d   1       4.422   0.825   0.000  0.00  0.00     0.266 S 
ATOM     17  O   UNL d   1       5.247   0.992   0.000  0.00  0.00    -0.203 OA
ATOM     18  O   UNL d   1       4.589   0.000   0.000  0.00  0.00    -0.203 OA
ATOM     19  C   UNL d   1       3.626   0.660   0.000  0.00  0.00     0.165 C 
ENDBRANCH   1  16
BRANCH   4  20
ATOM     20  C   UNL d   1       4.724   3.678   0.000  0.00  0.00     0.020 A 
ATOM     21  C   UNL d   1       4.260   4.341   0.000  0.00  0.00     0.004 A 
ATOM     22  C   UNL d   1       4.589   5.112   0.000  0.00  0.00     0.024 A 
ATOM     23  C   UNL d   1       5.414   5.193   0.000  0.00  0.00     0.094 A 
ATOM     24  C   UNL d   1       5.880   4.503   0.000  0.00  0.00     0.024 A 
ATOM     25  C   UNL d   1       5.549   3.764   0.000  0.00  0.00     0.004 A 
BRANCH  23  26
ATOM     26  O   UNL d   1       5.740   5.907   0.000  0.00  0.00    -0.328 OA
ATOM     27  C   UNL d   1       6.565   5.991   0.000  0.00  0.00     0.181 C 
ENDBRANCH  23  26
ENDBRANCH   4  20
TORSDOF 4
