REMARK  5 active torsions:
REMARK  status: ('A' for Active; 'I' for Inactive)
REMARK    1  A    between atoms: N_7  and  C_1 
REMARK    2  A    between atoms: C_13  and  C_2 
REMARK    3  A    between atoms: N_4  and  C_9 
REMARK       I    between atoms: C_10  and  N_7 
REMARK       I    between atoms: C_15  and  N_8 
REMARK    4  A    between atoms: C_18  and  C_10 
REMARK    5  A    between atoms: O_27  and  C_13 
ROOT
ATOM      1  C   UNL d   1       1.988  -0.254   0.000  0.00  0.00     0.119 A 
ATOM      2  C   UNL d   1       1.500   0.408   0.000  0.00  0.00     0.088 A 
ATOM      3  C   UNL d   1       0.717  -0.675   0.000  0.00  0.00     0.049 A 
ATOM      4  C   UNL d   1       0.713   0.146   0.000  0.00  0.00     0.016 A 
ATOM      5  S   UNL d   1       1.504  -0.929   0.000  0.00  0.00    -0.066 SA
ATOM      6  N   UNL d   1      -0.713  -0.688   0.000  0.00  0.00    -0.272 N 
ATOM      7  C   UNL d   1      -0.008  -1.092   0.000  0.00  0.00     0.089 A 
ATOM      8  C   UNL d   1      -1.433  -1.092   0.000  0.00  0.00     0.265 C 
ATOM      9  C   UNL d   1      -0.008   0.562   0.000  0.00  0.00     0.020 A 
ATOM     10  C   UNL d   1      -0.713   0.146   0.000  0.00  0.00     0.083 A 
ATOM     11  O   UNL d   1      -1.433  -1.917   0.000  0.00  0.00    -0.267 OA
ATOM     12  C   UNL d   1      -2.146  -0.688   0.000  0.00  0.00     0.066 C 
ENDROOT
BRANCH   1  13
ATOM     13  N   UNL d   1       2.817  -0.254   0.000  0.00  0.00    -0.201 NA
ATOM     14  C   UNL d   1       3.225  -0.975   0.000  0.00  0.00     0.280 C 
ATOM     15  O   UNL d   1       2.817  -1.692   0.000  0.00  0.00    -0.265 OA
BRANCH  14  16
ATOM     16  C   UNL d   1       4.050  -0.975   0.000  0.00  0.00     0.059 A 
ATOM     17  C   UNL d   1       4.454  -1.688   0.000  0.00  0.00     0.022 A 
ATOM     18  C   UNL d   1       5.279  -1.688   0.000  0.00  0.00     0.070 A 
ATOM     19  C   UNL d   1       5.700  -0.975   0.000  0.00  0.00     0.018 A 
ATOM     20  C   UNL d   1       5.279  -0.254   0.000  0.00  0.00     0.002 A 
ATOM     21  C   UNL d   1       4.454  -0.254   0.000  0.00  0.00     0.005 A 
BRANCH  18  22
ATOM     22  N   UNL d   1       5.700  -2.404   0.000  0.00  0.00    -0.242 N 
ATOM     23  C   UNL d   1       6.513  -2.517   0.000  0.00  0.00     0.267 A 
ATOM     24  C   UNL d   1       6.662  -3.329   0.000  0.00  0.00     0.066 A 
ATOM     25  O   UNL d   1       7.092  -1.942   0.000  0.00  0.00    -0.267 OA
ATOM     26  C   UNL d   1       5.938  -3.712   0.000  0.00  0.00     0.066 A 
ATOM     27  C   UNL d   1       5.317  -3.138   0.000  0.00  0.00     0.267 A 
ATOM     28  O   UNL d   1       4.513  -3.275   0.000  0.00  0.00    -0.267 OA
ENDBRANCH  18  22
ENDBRANCH  14  16
ENDBRANCH   1  13
BRANCH   2  29
ATOM     29  C   UNL d   1       1.754   1.188   0.000  0.00  0.00     0.298 C 
ATOM     30  O   UNL d   1       1.192   1.796   0.000  0.00  0.00    -0.259 OA
BRANCH  29  31
ATOM     31  O   UNL d   1       2.567   1.363   0.000  0.00  0.00    -0.296 OA
ATOM     32  C   UNL d   1       3.125   0.750   0.000  0.00  0.00     0.185 C 
ENDBRANCH  29  31
ENDBRANCH   2  29
TORSDOF 5
