REMARK  4 active torsions:
REMARK  status: ('A' for Active; 'I' for Inactive)
REMARK    1  A    between atoms: N_5  and  C_1 
REMARK    2  A    between atoms: C_9  and  C_4 
REMARK    3  A    between atoms: C_8  and  N_5 
REMARK    4  A    between atoms: O_12  and  C_9 
ROOT
ATOM      1  N   UNL d   1      -0.786   0.218   0.000  0.00  0.00    -0.222 NA
ENDROOT
BRANCH   1   2
ATOM      2  C   UNL d   1      -1.059  -0.571   0.000  0.00  0.00     0.186 A 
ATOM      3  O   UNL d   1      -0.597  -1.248   0.000  0.00  0.00    -0.255 OA
ATOM      4  C   UNL d   1      -1.059  -1.910   0.000  0.00  0.00     0.301 A 
ATOM      5  O   UNL d   1      -0.786  -2.707   0.000  0.00  0.00    -0.259 OA
ATOM      6  C   UNL d   1      -1.845  -1.659   0.000  0.00  0.00     0.067 A 
ATOM      7  C   UNL d   1      -1.845  -0.830   0.000  0.00  0.00     0.046 A 
ATOM      8  C   UNL d   1      -2.561  -2.067   0.000  0.00  0.00     0.005 A 
ATOM      9  C   UNL d   1      -2.561  -0.418   0.000  0.00  0.00     0.004 A 
ATOM     10  C   UNL d   1      -3.275  -0.830   0.000  0.00  0.00     0.000 A 
ATOM     11  C   UNL d   1      -3.275  -1.659   0.000  0.00  0.00     0.000 A 
ENDBRANCH   1   2
BRANCH   1  12
ATOM     12  C   UNL d   1       0.044   0.411   0.000  0.00  0.00     0.089 A 
ATOM     13  C   UNL d   1       0.287   1.153   0.000  0.00  0.00     0.081 A 
ATOM     14  C   UNL d   1       1.091   1.328   0.000  0.00  0.00     0.007 A 
ATOM     15  C   UNL d   1       1.641   0.699   0.000  0.00  0.00     0.000 A 
ATOM     16  C   UNL d   1       1.368  -0.076   0.000  0.00  0.00     0.002 A 
ATOM     17  C   UNL d   1       0.568  -0.233   0.000  0.00  0.00     0.019 A 
BRANCH  13  18
ATOM     18  C   UNL d   1      -0.291   1.743   0.000  0.00  0.00     0.297 C 
ATOM     19  O   UNL d   1      -0.073   2.532   0.000  0.00  0.00    -0.259 OA
BRANCH  18  20
ATOM     20  O   UNL d   1      -1.088   1.528   0.000  0.00  0.00    -0.296 OA
ATOM     21  C   UNL d   1      -1.284   0.717   0.000  0.00  0.00     0.185 C 
ENDBRANCH  18  20
ENDBRANCH  13  18
ENDBRANCH   1  12
TORSDOF 4
