REMARK  7 active torsions:
REMARK  status: ('A' for Active; 'I' for Inactive)
REMARK    1  A    between atoms: N_6  and  C_1 
REMARK    2  A    between atoms: C_10  and  C_2 
REMARK       I    between atoms: C_8  and  N_6 
REMARK       I    between atoms: C_9  and  N_7 
REMARK    3  A    between atoms: C_12  and  C_8 
REMARK    4  A    between atoms: O_22  and  C_9 
REMARK    5  A    between atoms: O_23  and  C_10 
REMARK    6  A    between atoms: C_24  and  O_22 
REMARK    7  A    between atoms: C_25  and  O_23 
ROOT
ATOM      1  C   UNL d   1       3.240  -1.079   0.000  0.00  0.00     0.119 A 
ATOM      2  C   UNL d   1       2.753  -0.412   0.000  0.00  0.00     0.088 A 
ATOM      3  C   UNL d   1       1.974  -1.491   0.000  0.00  0.00     0.049 A 
ATOM      4  C   UNL d   1       1.966  -0.679   0.000  0.00  0.00     0.016 A 
ATOM      5  S   UNL d   1       2.753  -1.753   0.000  0.00  0.00    -0.066 SA
ATOM      6  N   UNL d   1       0.541  -1.504   0.000  0.00  0.00    -0.251 N 
ATOM      7  C   UNL d   1      -0.175  -1.916   0.000  0.00  0.00     0.378 C 
ATOM      8  C   UNL d   1       1.249  -1.916   0.000  0.00  0.00     0.091 A 
ATOM      9  C   UNL d   1       1.249  -0.254   0.000  0.00  0.00     0.020 A 
ATOM     10  C   UNL d   1       0.541  -0.679   0.000  0.00  0.00     0.085 A 
ATOM     11  O   UNL d   1      -0.175  -2.740   0.000  0.00  0.00    -0.237 OA
ENDROOT
BRANCH   1  12
ATOM     12  N   UNL d   1       4.073  -1.079   0.000  0.00  0.00    -0.201 NA
ATOM     13  C   UNL d   1       4.477  -1.791   0.000  0.00  0.00     0.286 C 
ATOM     14  O   UNL d   1       4.073  -2.511   0.000  0.00  0.00    -0.265 OA
BRANCH  13  15
ATOM     15  C   UNL d   1       5.302  -1.791   0.000  0.00  0.00     0.087 A 
ATOM     16  S   UNL d   1       5.797  -2.453   0.000  0.00  0.00    -0.082 SA
ATOM     17  C   UNL d   1       6.584  -2.191   0.000  0.00  0.00     0.036 A 
ATOM     18  C   UNL d   1       6.564  -1.379   0.000  0.00  0.00     0.008 A 
ATOM     19  C   UNL d   1       5.785  -1.124   0.000  0.00  0.00     0.012 A 
ENDBRANCH  13  15
ENDBRANCH   1  12
BRANCH   2  20
ATOM     20  C   UNL d   1       3.011   0.371   0.000  0.00  0.00     0.302 C 
ATOM     21  O   UNL d   1       2.441   0.970   0.000  0.00  0.00    -0.259 OA
BRANCH  20  22
ATOM     22  O   UNL d   1       3.827   0.545   0.000  0.00  0.00    -0.271 OA
BRANCH  22  23
ATOM     23  C   UNL d   1       4.377  -0.067   0.000  0.00  0.00     0.126 C 
ATOM     24  C   UNL d   1       5.189   0.100   0.000  0.00  0.00     0.029 C 
ENDBRANCH  22  23
ENDBRANCH  20  22
ENDBRANCH   2  20
BRANCH   7  25
ATOM     25  O   UNL d   1      -0.887  -1.504   0.000  0.00  0.00    -0.257 OA
BRANCH  25  26
ATOM     26  C   UNL d   1      -0.895  -0.679   0.000  0.00  0.00     0.128 C 
ATOM     27  C   UNL d   1      -1.607  -0.262   0.000  0.00  0.00     0.029 C 
ENDBRANCH  25  26
ENDBRANCH   7  25
TORSDOF 7
