REMARK  6 active torsions:
REMARK  status: ('A' for Active; 'I' for Inactive)
REMARK    1  A    between atoms: C_3  and  N_1 
REMARK    2  A    between atoms: N_9  and  C_3 
REMARK    3  A    between atoms: C_7  and  C_4 
REMARK    4  A    between atoms: C_8  and  C_5 
REMARK    5  A    between atoms: C_16  and  N_9 
REMARK    6  A    between atoms: O_17  and  C_13 
ROOT
ATOM      1  N   UNL d   1       3.325   3.572   0.000  0.00  0.00    -0.201 N 
ATOM      2  N   UNL d   1       2.500   3.516   0.000  0.00  0.00    -0.163 NA
ATOM      3  C   UNL d   1       2.198   4.287   0.000  0.00  0.00     0.105 A 
ATOM      4  C   UNL d   1       3.546   4.363   0.000  0.00  0.00     0.110 A 
ATOM      5  C   UNL d   1       2.829   4.781   0.000  0.00  0.00     0.042 A 
ENDROOT
BRANCH   1   6
ATOM      6  C   UNL d   1       3.848   2.934   0.000  0.00  0.00     0.222 C 
ATOM      7  S   UNL d   1       4.479   3.462   0.000  0.00  0.00    -0.037 SA
BRANCH   6   8
ATOM      8  N   UNL d   1       4.368   2.284   0.000  0.00  0.00    -0.217 NA
BRANCH   8   9
ATOM      9  C   UNL d   1       4.066   1.540   0.000  0.00  0.00     0.084 A 
ATOM     10  C   UNL d   1       3.241   1.404   0.000  0.00  0.00     0.019 A 
ATOM     11  C   UNL d   1       2.964   0.633   0.000  0.00  0.00     0.002 A 
ATOM     12  C   UNL d   1       3.462   0.000   0.000  0.00  0.00     0.000 A 
ATOM     13  C   UNL d   1       4.287   0.111   0.000  0.00  0.00     0.002 A 
ATOM     14  C   UNL d   1       4.589   0.881   0.000  0.00  0.00     0.019 A 
ENDBRANCH   8   9
ENDBRANCH   6   8
ENDBRANCH   1   6
BRANCH   4  15
ATOM     15  C   UNL d   1       4.479   4.724   0.000  0.00  0.00     0.118 A 
ATOM     16  O   UNL d   1       4.700   5.549   0.000  0.00  0.00    -0.304 OA
ATOM     17  C   UNL d   1       5.520   5.601   0.000  0.00  0.00     0.123 A 
ATOM     18  C   UNL d   1       5.827   4.835   0.000  0.00  0.00     0.029 A 
ATOM     19  C   UNL d   1       5.218   4.312   0.000  0.00  0.00     0.028 A 
ENDBRANCH   4  15
BRANCH   3  20
ATOM     20  C   UNL d   1       1.343   4.503   0.000  0.00  0.00     0.042 A 
ATOM     21  C   UNL d   1       0.658   4.916   0.000  0.00  0.00     0.096 A 
ATOM     22  C   UNL d   1       0.000   4.503   0.000  0.00  0.00     0.024 A 
ATOM     23  C   UNL d   1       0.000   3.678   0.000  0.00  0.00     0.002 A 
ATOM     24  C   UNL d   1       0.658   3.266   0.000  0.00  0.00     0.000 A 
ATOM     25  C   UNL d   1       1.343   3.678   0.000  0.00  0.00     0.004 A 
BRANCH  21  26
ATOM     26  O   UNL d   1       0.658   5.741   0.000  0.00  0.00    -0.328 OA
ATOM     27  C   UNL d   1       0.000   6.102   0.000  0.00  0.00     0.181 C 
ENDBRANCH  21  26
ENDBRANCH   3  20
TORSDOF 6
