REMARK  5 active torsions:
REMARK  status: ('A' for Active; 'I' for Inactive)
REMARK    1  A    between atoms: S_4  and  N_1 
REMARK    2  A    between atoms: C_2  and  C_5 
REMARK    3  A    between atoms: C_12  and  C_7 
REMARK    4  A    between atoms: O_26  and  C_24 
REMARK    5  A    between atoms: C_27  and  O_26 
ROOT
ATOM      1  C   UNL d   1       5.120   1.542   0.000  0.00  0.00     0.076 A 
ATOM      2  C   UNL d   1       5.120   0.721   0.000  0.00  0.00     0.281 A 
ATOM      3  C   UNL d   1       4.405   1.955   0.000  0.00  0.00     0.008 A 
ATOM      4  N   UNL d   1       4.405   0.307   0.000  0.00  0.00    -0.208 NA
ATOM      5  C   UNL d   1       3.684   0.721   0.000  0.00  0.00     0.087 A 
ATOM      6  C   UNL d   1       3.684   1.542   0.000  0.00  0.00     0.018 A 
ATOM      7  C   UNL d   1       2.969   0.307   0.000  0.00  0.00     0.044 A 
ATOM      8  O   UNL d   1       5.529   0.000   0.000  0.00  0.00    -0.265 OA
ATOM      9  C   UNL d   1       2.969   1.955   0.000  0.00  0.00     0.004 A 
ATOM     10  C   UNL d   1       2.312   0.721   0.000  0.00  0.00     0.102 A 
ATOM     11  C   UNL d   1       2.312   1.542   0.000  0.00  0.00     0.025 A 
ENDROOT
BRANCH   1  12
ATOM     12  C   UNL d   1       5.836   1.955   0.000  0.00  0.00     0.101 A 
ATOM     13  N   UNL d   1       6.577   1.628   0.000  0.00  0.00    -0.155 N 
ATOM     14  N   UNL d   1       7.130   2.233   0.000  0.00  0.00    -0.153 NA
ATOM     15  C   UNL d   1       6.717   2.939   0.000  0.00  0.00     0.126 A 
ATOM     16  C   UNL d   1       5.912   2.777   0.000  0.00  0.00     0.043 A 
BRANCH  13  17
ATOM     17  S   UNL d   1       6.744   0.826   0.000  0.00  0.00     0.266 S 
ATOM     18  O   UNL d   1       7.570   0.994   0.000  0.00  0.00    -0.203 OA
ATOM     19  O   UNL d   1       5.942   0.634   0.000  0.00  0.00    -0.203 OA
ATOM     20  C   UNL d   1       6.936   0.000   0.000  0.00  0.00     0.165 C 
ENDBRANCH  13  17
BRANCH  15  21
ATOM     21  C   UNL d   1       7.046   3.684   0.000  0.00  0.00     0.119 A 
ATOM     22  O   UNL d   1       6.633   4.405   0.000  0.00  0.00    -0.304 OA
ATOM     23  C   UNL d   1       7.181   5.010   0.000  0.00  0.00     0.123 A 
ATOM     24  C   UNL d   1       7.956   4.678   0.000  0.00  0.00     0.029 A 
ATOM     25  C   UNL d   1       7.846   3.854   0.000  0.00  0.00     0.028 A 
ENDBRANCH  15  21
ENDBRANCH   1  12
BRANCH  10  26
ATOM     26  O   UNL d   1       1.596   0.332   0.000  0.00  0.00    -0.305 OA
BRANCH  26  27
ATOM     27  C   UNL d   1       0.822   1.185   0.000  0.00  0.00     0.123 C 
ATOM     28  C   UNL d   1       0.000   1.023   0.000  0.00  0.00     0.029 C 
ENDBRANCH  26  27
ENDBRANCH  10  26
TORSDOF 5
