REMARK  3 active torsions:
REMARK  status: ('A' for Active; 'I' for Inactive)
REMARK    1  A    between atoms: N_6  and  C_1 
REMARK       I    between atoms: C_8  and  N_6 
REMARK       I    between atoms: C_11  and  N_7 
REMARK    2  A    between atoms: C_14  and  C_8 
REMARK    3  A    between atoms: O_23  and  C_20 
ROOT
ATOM      1  C   UNL d   1       2.074  -1.164   0.000  0.00  0.00     0.124 A 
ATOM      2  C   UNL d   1       1.584  -0.499   0.000  0.00  0.00     0.093 A 
ATOM      3  C   UNL d   1       0.802  -1.575   0.000  0.00  0.00     0.049 A 
ATOM      4  C   UNL d   1       0.790  -0.765   0.000  0.00  0.00     0.021 A 
ATOM      5  S   UNL d   1       1.588  -1.837   0.000  0.00  0.00    -0.066 SA
ATOM      6  N   UNL d   1      -0.636  -1.596   0.000  0.00  0.00    -0.272 N 
ATOM      7  C   UNL d   1       0.075  -2.008   0.000  0.00  0.00     0.089 A 
ATOM      8  C   UNL d   1       1.837   0.283   0.000  0.00  0.00     0.103 C 
ATOM      9  C   UNL d   1      -1.355  -2.008   0.000  0.00  0.00     0.265 C 
ATOM     10  N   UNL d   1       2.087   1.060   0.000  0.00  0.00    -0.191 NA
ATOM     11  C   UNL d   1       0.075  -0.341   0.000  0.00  0.00     0.020 A 
ATOM     12  C   UNL d   1      -0.636  -0.765   0.000  0.00  0.00     0.083 A 
ATOM     13  O   UNL d   1      -1.355  -2.831   0.000  0.00  0.00    -0.267 OA
ATOM     14  C   UNL d   1      -2.070  -1.596   0.000  0.00  0.00     0.066 C 
ENDROOT
BRANCH   1  15
ATOM     15  N   UNL d   1       2.906  -1.164   0.000  0.00  0.00    -0.201 NA
ATOM     16  C   UNL d   1       3.309  -1.883   0.000  0.00  0.00     0.280 C 
ATOM     17  O   UNL d   1       2.906  -2.598   0.000  0.00  0.00    -0.265 OA
BRANCH  16  18
ATOM     18  C   UNL d   1       4.132  -1.883   0.000  0.00  0.00     0.058 A 
ATOM     19  C   UNL d   1       4.544  -2.586   0.000  0.00  0.00     0.007 A 
ATOM     20  C   UNL d   1       5.375  -2.586   0.000  0.00  0.00     0.024 A 
ATOM     21  C   UNL d   1       5.778  -1.871   0.000  0.00  0.00     0.094 A 
ATOM     22  C   UNL d   1       5.367  -1.160   0.000  0.00  0.00     0.024 A 
ATOM     23  C   UNL d   1       4.544  -1.160   0.000  0.00  0.00     0.007 A 
BRANCH  21  24
ATOM     24  O   UNL d   1       6.614  -1.871   0.000  0.00  0.00    -0.328 OA
ATOM     25  C   UNL d   1       7.038  -2.586   0.000  0.00  0.00     0.181 C 
ENDBRANCH  21  24
ENDBRANCH  16  18
ENDBRANCH   1  15
TORSDOF 3
