REMARK  3 active torsions:
REMARK  status: ('A' for Active; 'I' for Inactive)
REMARK    1  A    between atoms: S_3  and  N_1 
REMARK    2  A    between atoms: C_5  and  C_4 
REMARK    3  A    between atoms: C_11  and  C_6 
ROOT
ATOM      1  N   UNL d   1       5.002   1.323   0.000  0.00  0.00    -0.155 N 
ATOM      2  N   UNL d   1       5.549   1.927   0.000  0.00  0.00    -0.153 NA
ATOM      3  C   UNL d   1       4.260   1.650   0.000  0.00  0.00     0.098 A 
ATOM      4  C   UNL d   1       5.137   2.632   0.000  0.00  0.00     0.126 A 
ATOM      5  C   UNL d   1       4.341   2.470   0.000  0.00  0.00     0.043 A 
ENDROOT
BRANCH   3   6
ATOM      6  C   UNL d   1       3.546   1.238   0.000  0.00  0.00     0.047 A 
ATOM      7  C   UNL d   1       3.546   0.412   0.000  0.00  0.00     0.140 A 
ATOM      8  N   UNL d   1       2.829   0.000   0.000  0.00  0.00    -0.234 NA
ATOM      9 CL   UNL d   1       4.260   0.000   0.000  0.00  0.00    -0.061 Cl
ATOM     10  C   UNL d   1       2.114   0.412   0.000  0.00  0.00     0.082 A 
ATOM     11  C   UNL d   1       2.114   1.238   0.000  0.00  0.00     0.018 A 
ATOM     12  C   UNL d   1       1.400   0.000   0.000  0.00  0.00     0.019 A 
ATOM     13  C   UNL d   1       2.829   1.650   0.000  0.00  0.00     0.005 A 
ATOM     14  C   UNL d   1       1.400   1.650   0.000  0.00  0.00     0.002 A 
ATOM     15  C   UNL d   1       0.715   1.238   0.000  0.00  0.00     0.000 A 
ATOM     16  C   UNL d   1       0.715   0.412   0.000  0.00  0.00     0.002 A 
ATOM     17  C   UNL d   1       0.000   1.650   0.000  0.00  0.00     0.000 C 
ENDBRANCH   3   6
BRANCH   1  18
ATOM     18  S   UNL d   1       5.579   0.744   0.000  0.00  0.00     0.266 S 
ATOM     19  O   UNL d   1       6.374   0.935   0.000  0.00  0.00    -0.203 OA
ATOM     20  O   UNL d   1       5.166   0.029   0.000  0.00  0.00    -0.203 OA
ATOM     21  C   UNL d   1       5.991   0.029   0.000  0.00  0.00     0.165 C 
ENDBRANCH   1  18
BRANCH   4  22
ATOM     22  C   UNL d   1       5.468   3.376   0.000  0.00  0.00     0.119 A 
ATOM     23  O   UNL d   1       5.083   4.091   0.000  0.00  0.00    -0.304 OA
ATOM     24  C   UNL d   1       5.630   4.695   0.000  0.00  0.00     0.123 A 
ATOM     25  C   UNL d   1       6.374   4.363   0.000  0.00  0.00     0.029 A 
ATOM     26  C   UNL d   1       6.293   3.546   0.000  0.00  0.00     0.028 A 
ENDBRANCH   4  22
TORSDOF 3
