REMARK  4 active torsions:
REMARK  status: ('A' for Active; 'I' for Inactive)
REMARK    1  A    between atoms: N_6  and  C_1 
REMARK    2  A    between atoms: C_10  and  C_2 
REMARK       I    between atoms: C_9  and  N_6 
REMARK    3  A    between atoms: C_11  and  C_9 
REMARK    4  A    between atoms: O_20  and  C_10 
ROOT
ATOM      1  C   UNL d   1      -1.186   2.363   0.000  0.00  0.00     0.119 A 
ATOM      2  C   UNL d   1      -1.674   3.027   0.000  0.00  0.00     0.087 A 
ATOM      3  C   UNL d   1      -2.451   2.764   0.000  0.00  0.00     0.008 A 
ATOM      4  C   UNL d   1      -2.451   1.950   0.000  0.00  0.00     0.028 A 
ATOM      5  S   UNL d   1      -1.666   1.691   0.000  0.00  0.00    -0.070 SA
ATOM      6  C   UNL d   1      -3.165   1.528   0.000  0.00  0.00     0.104 A 
ATOM      7  N   UNL d   1      -3.879   1.937   0.000  0.00  0.00    -0.294 NA
ATOM      8  C   UNL d   1      -3.879   2.764   0.000  0.00  0.00     0.099 A 
ATOM      9  C   UNL d   1      -3.165   3.182   0.000  0.00  0.00    -0.004 A 
ATOM     10  C   UNL d   1      -3.754   0.948   0.000  0.00  0.00     0.029 C 
ATOM     11  C   UNL d   1      -2.580   0.948   0.000  0.00  0.00     0.029 C 
ATOM     12  C   UNL d   1      -3.879   3.591   0.000  0.00  0.00     0.029 C 
ATOM     13  C   UNL d   1      -4.593   2.355   0.000  0.00  0.00     0.029 C 
ENDROOT
BRANCH   1  14
ATOM     14  N   UNL d   1      -0.359   2.363   0.000  0.00  0.00    -0.200 NA
ATOM     15  C   UNL d   1       0.054   1.649   0.000  0.00  0.00     0.302 C 
ATOM     16  O   UNL d   1      -0.359   0.935   0.000  0.00  0.00    -0.263 OA
BRANCH  15  17
ATOM     17  C   UNL d   1       0.877   1.649   0.000  0.00  0.00     0.158 A 
ATOM     18  O   UNL d   1       1.365   0.990   0.000  0.00  0.00    -0.300 OA
ATOM     19  C   UNL d   1       2.159   1.261   0.000  0.00  0.00     0.123 A 
ATOM     20  C   UNL d   1       2.146   2.075   0.000  0.00  0.00     0.029 A 
ATOM     21  C   UNL d   1       1.357   2.338   0.000  0.00  0.00     0.032 A 
ENDBRANCH  15  17
ENDBRANCH   1  14
BRANCH   2  22
ATOM     22  C   UNL d   1      -1.415   3.804   0.000  0.00  0.00     0.298 C 
ATOM     23  O   UNL d   1      -1.975   4.413   0.000  0.00  0.00    -0.259 OA
BRANCH  22  24
ATOM     24  O   UNL d   1      -0.601   3.979   0.000  0.00  0.00    -0.296 OA
ATOM     25  C   UNL d   1      -0.050   3.369   0.000  0.00  0.00     0.185 C 
ENDBRANCH  22  24
ENDBRANCH   2  22
TORSDOF 4
