REMARK  2 active torsions:
REMARK  status: ('A' for Active; 'I' for Inactive)
REMARK    1  A    between atoms: C_5  and  C_1 
REMARK    2  A    between atoms: C_7  and  C_3 
REMARK       I    between atoms: N_8  and  C_7 
ROOT
ATOM      1  C   UNL d   1       0.200   2.596   0.000  0.00  0.00     0.086 A 
ATOM      2  S   UNL d   1      -0.588   2.337   0.000  0.00  0.00    -0.080 SA
ATOM      3  C   UNL d   1      -1.071   3.008   0.000  0.00  0.00     0.053 A 
ATOM      4  C   UNL d   1       0.200   3.421   0.000  0.00  0.00     0.012 A 
ATOM      5  C   UNL d   1      -0.588   3.675   0.000  0.00  0.00     0.009 A 
ENDROOT
BRANCH   3   6
ATOM      6  C   UNL d   1      -1.896   3.008   0.000  0.00  0.00     0.117 A 
ATOM      7  N   UNL d   1      -2.375   2.337   0.000  0.00  0.00    -0.238 NA
ATOM      8  C   UNL d   1      -3.163   2.596   0.000  0.00  0.00     0.088 A 
ATOM      9  C   UNL d   1      -3.875   2.183   0.000  0.00  0.00     0.020 A 
ATOM     10  C   UNL d   1      -3.163   3.421   0.000  0.00  0.00     0.049 A 
ATOM     11  C   UNL d   1      -4.583   2.596   0.000  0.00  0.00     0.002 A 
ATOM     12  C   UNL d   1      -4.583   3.421   0.000  0.00  0.00     0.001 A 
ATOM     13  C   UNL d   1      -3.875   3.833   0.000  0.00  0.00     0.008 A 
ATOM     14  S   UNL d   1      -2.375   3.675   0.000  0.00  0.00    -0.066 SA
ENDBRANCH   3   6
BRANCH   1  15
ATOM     15  C   UNL d   1       0.867   2.108   0.000  0.00  0.00     0.271 C 
ATOM     16  N   UNL d   1       1.617   2.446   0.000  0.00  0.00    -0.267 N 
ATOM     17  C   UNL d   1       2.279   1.958   0.000  0.00  0.00     0.110 A 
ATOM     18  C   UNL d   1       1.700   3.258   0.000  0.00  0.00     0.110 A 
ATOM     19  C   UNL d   1       3.029   2.288   0.000  0.00  0.00     0.142 A 
ATOM     20  O   UNL d   1       3.117   3.108   0.000  0.00  0.00    -0.300 OA
ATOM     21  C   UNL d   1       2.454   3.596   0.000  0.00  0.00     0.142 A 
ATOM     22  O   UNL d   1       0.779   1.288   0.000  0.00  0.00    -0.266 OA
ENDBRANCH   1  15
TORSDOF 2
