REMARK  3 active torsions:
REMARK  status: ('A' for Active; 'I' for Inactive)
REMARK    1  A    between atoms: C_6  and  N_1 
REMARK    2  A    between atoms: C_2  and  C_8 
REMARK    3  A    between atoms: N_3  and  C_2 
REMARK       I    between atoms: C_5  and  N_4 
ROOT
ATOM      1  C   UNL d   1       2.592  -1.429   0.000  0.00  0.00     0.120 C 
ATOM      2  S   UNL d   1       2.592  -2.255   0.000  0.00  0.00    -0.059 SA
ENDROOT
BRANCH   1   3
ATOM      3  C   UNL d   1       1.880  -1.017   0.000  0.00  0.00     0.027 A 
ATOM      4  C   UNL d   1       1.880  -0.192   0.000  0.00  0.00     0.004 A 
ATOM      5  C   UNL d   1       1.163   0.221   0.000  0.00  0.00     0.024 A 
ATOM      6  C   UNL d   1       0.450  -0.192   0.000  0.00  0.00     0.127 A 
ATOM      7  C   UNL d   1       0.450  -1.017   0.000  0.00  0.00     0.024 A 
ATOM      8  C   UNL d   1       1.163  -1.429   0.000  0.00  0.00     0.004 A 
BRANCH   6   9
ATOM      9  N   UNL d   1      -0.263   0.221   0.000  0.00  0.00    -0.114 N 
ATOM     10  O   UNL d   1      -0.208   1.046   0.000  0.00  0.00    -0.532 OA
ATOM     11  O   UNL d   1      -1.008  -0.142   0.000  0.00  0.00    -0.532 OA
ENDBRANCH   6   9
ENDBRANCH   1   3
BRANCH   1  12
ATOM     12  N   UNL d   1       3.305  -1.017   0.000  0.00  0.00    -0.293 N 
ATOM     13  C   UNL d   1       4.026  -1.429   0.000  0.00  0.00     0.100 A 
ATOM     14  C   UNL d   1       4.738  -1.017   0.000  0.00  0.00     0.102 A 
ATOM     15  N   UNL d   1       4.738  -0.192   0.000  0.00  0.00    -0.269 N 
ATOM     16  C   UNL d   1       4.018   0.221   0.000  0.00  0.00     0.102 A 
ATOM     17  C   UNL d   1       5.451   0.221   0.000  0.00  0.00     0.265 C 
ATOM     18  C   UNL d   1       3.305  -0.192   0.000  0.00  0.00     0.100 A 
ATOM     19  O   UNL d   1       5.451   1.046   0.000  0.00  0.00    -0.267 OA
ATOM     20  C   UNL d   1       6.168  -0.188   0.000  0.00  0.00     0.066 C 
ENDBRANCH   1  12
TORSDOF 3
