REMARK  4 active torsions:
REMARK  status: ('A' for Active; 'I' for Inactive)
REMARK    1  A    between atoms: N_3  and  C_1 
REMARK       I    between atoms: C_5  and  N_3 
REMARK    2  A    between atoms: C_7  and  C_5 
REMARK    3  A    between atoms: C_9  and  C_12 
REMARK    4  A    between atoms: O_18  and  C_9 
ROOT
ATOM      1  C   UNL d   1      -1.173   2.990   0.000  0.00  0.00     0.197 A 
ATOM      2  N   UNL d   1      -1.662   2.313   0.000  0.00  0.00    -0.221 NA
ATOM      3  S   UNL d   1      -1.662   3.653   0.000  0.00  0.00    -0.047 SA
ATOM      4  C   UNL d   1      -2.451   3.403   0.000  0.00  0.00     0.050 A 
ATOM      5  C   UNL d   1      -2.451   2.568   0.000  0.00  0.00     0.090 A 
ATOM      6  C   UNL d   1      -3.870   3.403   0.000  0.00  0.00     0.064 A 
ATOM      7  C   UNL d   1      -3.165   3.816   0.000  0.00  0.00     0.013 A 
ATOM      8  C   UNL d   1      -3.165   2.163   0.000  0.00  0.00     0.020 A 
ATOM      9  C   UNL d   1      -3.870   2.568   0.000  0.00  0.00     0.007 A 
ENDROOT
BRANCH   1  10
ATOM     10  N   UNL d   1      -0.346   2.990   0.000  0.00  0.00    -0.183 NA
ATOM     11  C   UNL d   1       0.067   2.276   0.000  0.00  0.00     0.281 C 
ATOM     12  O   UNL d   1       0.889   2.276   0.000  0.00  0.00    -0.265 OA
BRANCH  11  13
ATOM     13  C   UNL d   1      -0.346   1.562   0.000  0.00  0.00     0.058 A 
ATOM     14  C   UNL d   1      -1.060   1.148   0.000  0.00  0.00     0.005 A 
ATOM     15  C   UNL d   1      -0.346   0.739   0.000  0.00  0.00     0.005 A 
ENDBRANCH  11  13
ENDBRANCH   1  10
BRANCH   6  16
ATOM     16  C   UNL d   1      -4.593   3.804   0.000  0.00  0.00     0.296 C 
ATOM     17  O   UNL d   1      -5.298   3.390   0.000  0.00  0.00    -0.259 OA
BRANCH  16  18
ATOM     18  O   UNL d   1      -4.593   4.635   0.000  0.00  0.00    -0.296 OA
ATOM     19  C   UNL d   1      -3.879   5.040   0.000  0.00  0.00     0.185 C 
ENDBRANCH  16  18
ENDBRANCH   6  16
TORSDOF 4
