REMARK  4 active torsions:
REMARK  status: ('A' for Active; 'I' for Inactive)
REMARK    1  A    between atoms: N_3  and  C_1 
REMARK       I    between atoms: C_5  and  N_3 
REMARK    2  A    between atoms: C_15  and  C_5 
REMARK    3  A    between atoms: C_8  and  C_9 
REMARK    4  A    between atoms: O_16  and  C_8 
ROOT
ATOM      1  C   UNL d   1      -1.173   2.988   0.000  0.00  0.00     0.197 A 
ATOM      2  N   UNL d   1      -1.661   2.312   0.000  0.00  0.00    -0.221 NA
ATOM      3  S   UNL d   1      -1.661   3.651   0.000  0.00  0.00    -0.047 SA
ATOM      4  C   UNL d   1      -2.449   3.401   0.000  0.00  0.00     0.050 A 
ATOM      5  C   UNL d   1      -2.449   2.566   0.000  0.00  0.00     0.090 A 
ATOM      6  C   UNL d   1      -3.868   3.401   0.000  0.00  0.00     0.064 A 
ATOM      7  C   UNL d   1      -3.163   3.814   0.000  0.00  0.00     0.013 A 
ATOM      8  C   UNL d   1      -3.163   2.161   0.000  0.00  0.00     0.020 A 
ATOM      9  C   UNL d   1      -3.868   2.566   0.000  0.00  0.00     0.007 A 
ENDROOT
BRANCH   1  10
ATOM     10  N   UNL d   1      -0.346   2.988   0.000  0.00  0.00    -0.183 NA
ATOM     11  C   UNL d   1       0.067   2.274   0.000  0.00  0.00     0.281 C 
ATOM     12  O   UNL d   1      -0.346   1.560   0.000  0.00  0.00    -0.265 OA
BRANCH  11  13
ATOM     13  C   UNL d   1       0.880   2.274   0.000  0.00  0.00     0.058 A 
ATOM     14  C   UNL d   1       1.294   1.552   0.000  0.00  0.00     0.005 A 
ATOM     15  C   UNL d   1       2.120   1.552   0.000  0.00  0.00     0.000 A 
ATOM     16  C   UNL d   1       2.533   2.274   0.000  0.00  0.00     0.000 A 
ATOM     17  C   UNL d   1       2.120   2.975   0.000  0.00  0.00     0.000 A 
ATOM     18  C   UNL d   1       1.294   2.975   0.000  0.00  0.00     0.005 A 
ENDBRANCH  11  13
ENDBRANCH   1  10
BRANCH   6  19
ATOM     19  C   UNL d   1      -4.590   3.801   0.000  0.00  0.00     0.296 C 
ATOM     20  O   UNL d   1      -5.295   3.388   0.000  0.00  0.00    -0.259 OA
BRANCH  19  21
ATOM     21  O   UNL d   1      -4.590   4.632   0.000  0.00  0.00    -0.296 OA
ATOM     22  C   UNL d   1      -3.876   5.036   0.000  0.00  0.00     0.185 C 
ENDBRANCH  19  21
ENDBRANCH   6  19
TORSDOF 4
