REMARK  3 active torsions:
REMARK  status: ('A' for Active; 'I' for Inactive)
REMARK    1  A    between atoms: S_2  and  C_5 
REMARK    2  A    between atoms: C_7  and  S_2 
REMARK    3  A    between atoms: C_3  and  C_7 
ROOT
ATOM      1  C   UNL d   1       1.369  -0.808   0.000  0.00  0.00     0.087 A 
ATOM      2  N   UNL d   1       1.783  -1.524   0.000  0.00  0.00    -0.244 NA
ATOM      3  C   UNL d   1       1.775  -0.092   0.000  0.00  0.00     0.043 A 
ATOM      4  C   UNL d   1       0.544  -0.821   0.000  0.00  0.00     0.018 A 
ATOM      5  C   UNL d   1       0.540   0.611   0.000  0.00  0.00     0.001 A 
ATOM      6  C   UNL d   1       1.369  -2.240   0.000  0.00  0.00     0.099 A 
ATOM      7  C   UNL d   1       1.361   0.624   0.000  0.00  0.00     0.008 A 
ATOM      8  C   UNL d   1       0.130  -0.105   0.000  0.00  0.00     0.002 A 
ATOM      9  C   UNL d   1       0.130  -1.524   0.000  0.00  0.00     0.003 A 
ATOM     10  C   UNL d   1       0.540  -2.240   0.000  0.00  0.00     0.021 A 
ENDROOT
BRANCH   3  11
ATOM     11  S   UNL d   1       2.604  -0.092   0.000  0.00  0.00    -0.101 SA
BRANCH  11  12
ATOM     12  C   UNL d   1       3.194   0.498   0.000  0.00  0.00     0.160 C 
BRANCH  12  13
ATOM     13  C   UNL d   1       4.023   0.498   0.000  0.00  0.00     0.197 C 
ATOM     14  O   UNL d   1       4.437   1.214   0.000  0.00  0.00    -0.647 OA
ATOM     15  O   UNL d   1       4.437  -0.218   0.000  0.00  0.00    -0.647 OA
ENDBRANCH  12  13
ENDBRANCH  11  12
ENDBRANCH   3  11
TORSDOF 3
