REMARK  3 active torsions:
REMARK  status: ('A' for Active; 'I' for Inactive)
REMARK    1  A    between atoms: C_9  and  C_1 
REMARK    2  A    between atoms: C_4  and  C_5 
REMARK       I    between atoms: C_5  and  N_8 
REMARK    3  A    between atoms: N_8  and  C_16 
ROOT
ATOM      1  C   UNL d   1       0.392   3.788   0.000  0.00  0.00     0.024 A 
ATOM      2  C   UNL d   1       0.401   2.975   0.000  0.00  0.00     0.004 A 
ATOM      3  C   UNL d   1      -0.313   4.206   0.000  0.00  0.00     0.004 A 
ATOM      4  C   UNL d   1      -1.022   2.975   0.000  0.00  0.00     0.085 A 
ATOM      5  C   UNL d   1      -1.022   3.801   0.000  0.00  0.00     0.019 A 
ATOM      6  C   UNL d   1      -0.309   2.562   0.000  0.00  0.00     0.019 A 
ENDROOT
BRANCH   1   7
ATOM      7  C   UNL d   1       1.106   4.197   0.000  0.00  0.00     0.111 A 
ATOM      8  N   UNL d   1       1.193   5.024   0.000  0.00  0.00    -0.239 NA
ATOM      9  C   UNL d   1       2.007   5.195   0.000  0.00  0.00     0.088 A 
ATOM     10  C   UNL d   1       2.420   5.900   0.000  0.00  0.00     0.020 A 
ATOM     11  C   UNL d   1       2.420   4.473   0.000  0.00  0.00     0.049 A 
ATOM     12  C   UNL d   1       3.246   5.900   0.000  0.00  0.00     0.002 A 
ATOM     13  C   UNL d   1       3.659   5.186   0.000  0.00  0.00     0.001 A 
ATOM     14  C   UNL d   1       3.246   4.469   0.000  0.00  0.00     0.008 A 
ATOM     15  S   UNL d   1       1.865   3.864   0.000  0.00  0.00    -0.066 SA
ENDBRANCH   1   7
BRANCH   4  16
ATOM     16  N   UNL d   1      -1.740   2.566   0.000  0.00  0.00    -0.206 NA
ATOM     17  C   UNL d   1      -2.449   2.987   0.000  0.00  0.00     0.304 C 
ATOM     18  O   UNL d   1      -2.449   3.805   0.000  0.00  0.00    -0.263 OA
BRANCH  17  19
ATOM     19  C   UNL d   1      -3.167   2.566   0.000  0.00  0.00     0.182 A 
ATOM     20  O   UNL d   1      -3.880   2.987   0.000  0.00  0.00    -0.296 OA
ATOM     21  C   UNL d   1      -4.590   2.566   0.000  0.00  0.00     0.150 A 
ATOM     22  C   UNL d   1      -4.590   1.740   0.000  0.00  0.00     0.149 A 
ATOM     23  O   UNL d   1      -3.880   1.335   0.000  0.00  0.00    -0.299 OA
ATOM     24  C   UNL d   1      -3.167   1.740   0.000  0.00  0.00     0.152 A 
ENDBRANCH  17  19
ENDBRANCH   4  16
TORSDOF 3
