REMARK  2 active torsions:
REMARK  status: ('A' for Active; 'I' for Inactive)
REMARK    1  A    between atoms: C_4  and  C_1 
REMARK       I    between atoms: N_7  and  C_4 
REMARK    2  A    between atoms: C_17  and  N_8 
ROOT
ATOM      1  C   UNL d   1      -1.080   0.035   0.000  0.00  0.00     0.248 C 
ATOM      2  N   UNL d   1      -0.335  -0.396   0.000  0.00  0.00    -0.272 N 
ATOM      3  N   UNL d   1       1.149  -1.258   0.000  0.00  0.00    -0.301 N 
ATOM      4  O   UNL d   1      -1.785  -0.370   0.000  0.00  0.00    -0.271 OA
ATOM      5  C   UNL d   1      -0.335  -1.258   0.000  0.00  0.00     0.102 A 
ATOM      6  C   UNL d   1       0.396   0.048   0.000  0.00  0.00     0.102 A 
ATOM      7  C   UNL d   1       0.396  -1.685   0.000  0.00  0.00     0.100 A 
ATOM      8  C   UNL d   1       1.149  -0.396   0.000  0.00  0.00     0.100 A 
ENDROOT
BRANCH   1   9
ATOM      9  C   UNL d   1      -1.084   0.845   0.000  0.00  0.00     0.112 A 
ATOM     10  C   UNL d   1      -1.681   2.242   0.000  0.00  0.00     0.025 A 
ATOM     11  C   UNL d   1      -1.097   1.659   0.000  0.00  0.00     0.074 A 
ATOM     12  C   UNL d   1      -1.472   3.026   0.000  0.00  0.00     0.002 C 
ATOM     13  C   UNL d   1      -2.490   2.242   0.000  0.00  0.00     0.002 C 
ATOM     14  C   UNL d   1      -0.897   2.451   0.000  0.00  0.00     0.012 C 
ATOM     15  C   UNL d   1      -0.283   1.659   0.000  0.00  0.00    -0.023 A 
ATOM     16  C   UNL d   1      -1.798   1.254   0.000  0.00  0.00     0.172 A 
ATOM     17  C   UNL d   1      -0.274   0.849   0.000  0.00  0.00    -0.018 A 
ATOM     18  C   UNL d   1      -1.789   0.440   0.000  0.00  0.00     0.024 A 
ATOM     19  O   UNL d   1      -2.582   1.458   0.000  0.00  0.00    -0.291 OA
ENDBRANCH   1   9
BRANCH   3  20
ATOM     20  C   UNL d   1       1.898  -1.689   0.000  0.00  0.00     0.064 A 
ATOM     21  C   UNL d   1       2.638  -1.258   0.000  0.00  0.00     0.018 A 
ATOM     22  C   UNL d   1       3.383  -1.685   0.000  0.00  0.00     0.002 A 
ATOM     23  C   UNL d   1       3.387  -2.551   0.000  0.00  0.00     0.000 A 
ATOM     24  C   UNL d   1       2.638  -2.982   0.000  0.00  0.00     0.002 A 
ATOM     25  C   UNL d   1       1.894  -2.551   0.000  0.00  0.00     0.018 A 
ENDBRANCH   3  20
TORSDOF 2
