REMARK  9 active torsions:
REMARK  status: ('A' for Active; 'I' for Inactive)
REMARK    1  A    between atoms: C_14  and  N_1 
REMARK    2  A    between atoms: S_6  and  C_2 
REMARK    3  A    between atoms: C_8  and  C_3 
REMARK    4  A    between atoms: C_16  and  S_6 
REMARK    5  A    between atoms: O_11  and  C_8 
REMARK    6  A    between atoms: C_9  and  C_16 
REMARK    7  A    between atoms: O_19  and  C_9 
REMARK    8  A    between atoms: C_12  and  O_11 
REMARK    9  A    between atoms: C_15  and  C_14 
ROOT
ATOM      1  N   UNL d   1       2.517  -1.459   0.000  0.00  0.00    -0.266 N 
ATOM      2  C   UNL d   1       3.337  -1.459   0.000  0.00  0.00     0.202 A 
ATOM      3  C   UNL d   1       2.264  -0.672   0.000  0.00  0.00     0.196 A 
ATOM      4  N   UNL d   1       3.595  -0.676   0.000  0.00  0.00    -0.121 NA
ATOM      5  N   UNL d   1       2.927  -0.187   0.000  0.00  0.00    -0.126 NA
ENDROOT
BRANCH   3   6
ATOM      6  C   UNL d   1       1.480  -0.415   0.000  0.00  0.00     0.162 C 
BRANCH   6   7
ATOM      7  O   UNL d   1       1.310   0.394   0.000  0.00  0.00    -0.300 OA
BRANCH   7   8
ATOM      8  C   UNL d   1       0.527   0.655   0.000  0.00  0.00     0.118 A 
ATOM      9  C   UNL d   1      -0.083   0.108   0.000  0.00  0.00     0.104 A 
ATOM     10  N   UNL d   1       0.087  -0.701   0.000  0.00  0.00    -0.242 NA
ATOM     11  C   UNL d   1      -0.867   0.361   0.000  0.00  0.00     0.020 A 
ATOM     12  C   UNL d   1      -0.522  -1.248   0.000  0.00  0.00     0.099 A 
ATOM     13  C   UNL d   1      -1.314  -0.999   0.000  0.00  0.00     0.021 A 
ATOM     14  C   UNL d   1      -1.480  -0.191   0.000  0.00  0.00     0.003 A 
ATOM     15  C   UNL d   1      -1.041   1.169   0.000  0.00  0.00     0.002 A 
ATOM     16  C   UNL d   1      -0.423   1.716   0.000  0.00  0.00     0.002 A 
ATOM     17  C   UNL d   1       0.352   1.464   0.000  0.00  0.00     0.026 A 
ENDBRANCH   7   8
ENDBRANCH   6   7
ENDBRANCH   3   6
BRANCH   1  18
ATOM     18  C   UNL d   1       2.031  -2.119   0.000  0.00  0.00     0.084 C 
BRANCH  18  19
ATOM     19  C   UNL d   1       2.367  -2.873   0.000  0.00  0.00     0.019 C 
ATOM     20  C   UNL d   1       1.882  -3.537   0.000  0.00  0.00     0.002 C 
ENDBRANCH  18  19
ENDBRANCH   1  18
BRANCH   2  21
ATOM     21  S   UNL d   1       3.823  -2.119   0.000  0.00  0.00    -0.042 SA
BRANCH  21  22
ATOM     22  C   UNL d   1       4.644  -2.040   0.000  0.00  0.00     0.107 C 
BRANCH  22  23
ATOM     23  C   UNL d   1       5.128  -2.703   0.000  0.00  0.00     0.303 C 
ATOM     24  O   UNL d   1       4.793  -3.462   0.000  0.00  0.00    -0.259 OA
BRANCH  23  25
ATOM     25  O   UNL d   1       5.949  -2.624   0.000  0.00  0.00    -0.295 OA
ATOM     26  C   UNL d   1       6.434  -3.288   0.000  0.00  0.00     0.185 C 
ENDBRANCH  23  25
ENDBRANCH  22  23
ENDBRANCH  21  22
ENDBRANCH   2  21
TORSDOF 9
