REMARK  3 active torsions:
REMARK  status: ('A' for Active; 'I' for Inactive)
REMARK    1  A    between atoms: C_7  and  N_1 
REMARK    2  A    between atoms: C_2  and  C_5 
REMARK    3  A    between atoms: N_3  and  C_2 
REMARK       I    between atoms: C_6  and  N_4 
ROOT
ATOM      1  C   UNL d   1       1.879  -1.583   0.000  0.00  0.00     0.120 C 
ATOM      2  S   UNL d   1       1.879  -2.409   0.000  0.00  0.00    -0.059 SA
ENDROOT
BRANCH   1   3
ATOM      3  C   UNL d   1       1.157  -1.169   0.000  0.00  0.00     0.028 A 
ATOM      4  C   UNL d   1       1.157  -0.342   0.000  0.00  0.00     0.026 A 
ATOM      5  C   UNL d   1       0.443   0.071   0.000  0.00  0.00     0.127 A 
ATOM      6  C   UNL d   1      -0.271  -0.342   0.000  0.00  0.00     0.024 A 
ATOM      7  C   UNL d   1      -0.271  -1.169   0.000  0.00  0.00     0.002 A 
ATOM      8  C   UNL d   1       0.443  -1.583   0.000  0.00  0.00     0.002 A 
BRANCH   5   9
ATOM      9  N   UNL d   1       0.438   0.898   0.000  0.00  0.00    -0.114 N 
ATOM     10  O   UNL d   1       1.144   1.328   0.000  0.00  0.00    -0.532 OA
ATOM     11  O   UNL d   1      -0.288   1.290   0.000  0.00  0.00    -0.532 OA
ENDBRANCH   5   9
ENDBRANCH   1   3
BRANCH   1  12
ATOM     12  N   UNL d   1       2.593  -1.169   0.000  0.00  0.00    -0.293 N 
ATOM     13  C   UNL d   1       3.311  -1.583   0.000  0.00  0.00     0.100 A 
ATOM     14  C   UNL d   1       4.025  -1.169   0.000  0.00  0.00     0.102 A 
ATOM     15  N   UNL d   1       4.025  -0.342   0.000  0.00  0.00    -0.269 N 
ATOM     16  C   UNL d   1       3.307   0.071   0.000  0.00  0.00     0.102 A 
ATOM     17  C   UNL d   1       4.739   0.071   0.000  0.00  0.00     0.265 C 
ATOM     18  C   UNL d   1       2.593  -0.342   0.000  0.00  0.00     0.100 A 
ATOM     19  O   UNL d   1       4.739   0.898   0.000  0.00  0.00    -0.267 OA
ATOM     20  C   UNL d   1       5.453  -0.338   0.000  0.00  0.00     0.066 C 
ENDBRANCH   1  12
TORSDOF 3
