REMARK  4 active torsions:
REMARK  status: ('A' for Active; 'I' for Inactive)
REMARK    1  A    between atoms: N_4  and  C_1 
REMARK       I    between atoms: C_10  and  N_4 
REMARK    2  A    between atoms: C_7  and  C_8 
REMARK    3  A    between atoms: O_15  and  C_7 
REMARK    4  A    between atoms: C_17  and  O_15 
ROOT
ATOM      1  C   UNL d   1      -1.173   2.990   0.000  0.00  0.00     0.197 A 
ATOM      2  N   UNL d   1      -1.662   2.313   0.000  0.00  0.00    -0.221 NA
ATOM      3  S   UNL d   1      -1.662   3.653   0.000  0.00  0.00    -0.047 SA
ATOM      4  C   UNL d   1      -2.451   3.403   0.000  0.00  0.00     0.050 A 
ATOM      5  C   UNL d   1      -2.451   2.568   0.000  0.00  0.00     0.090 A 
ATOM      6  C   UNL d   1      -3.870   3.403   0.000  0.00  0.00     0.064 A 
ATOM      7  C   UNL d   1      -3.165   3.816   0.000  0.00  0.00     0.013 A 
ATOM      8  C   UNL d   1      -3.165   2.163   0.000  0.00  0.00     0.020 A 
ATOM      9  C   UNL d   1      -3.870   2.568   0.000  0.00  0.00     0.007 A 
ENDROOT
BRANCH   6  10
ATOM     10  C   UNL d   1      -4.593   3.804   0.000  0.00  0.00     0.300 C 
ATOM     11  O   UNL d   1      -5.294   3.390   0.000  0.00  0.00    -0.259 OA
BRANCH  10  12
ATOM     12  O   UNL d   1      -4.593   4.635   0.000  0.00  0.00    -0.271 OA
BRANCH  12  13
ATOM     13  C   UNL d   1      -3.879   5.052   0.000  0.00  0.00     0.126 C 
ATOM     14  C   UNL d   1      -3.879   5.866   0.000  0.00  0.00     0.029 C 
ENDBRANCH  12  13
ENDBRANCH  10  12
ENDBRANCH   6  10
BRANCH   1  15
ATOM     15  N   UNL d   1      -0.346   2.990   0.000  0.00  0.00    -0.183 NA
ATOM     16  C   UNL d   1       0.067   2.276   0.000  0.00  0.00     0.281 C 
ATOM     17  O   UNL d   1      -0.351   1.553   0.000  0.00  0.00    -0.265 OA
ATOM     18  C   UNL d   1       0.881   2.276   0.000  0.00  0.00     0.068 C 
ENDBRANCH   1  15
TORSDOF 4
