REMARK  3 active torsions:
REMARK  status: ('A' for Active; 'I' for Inactive)
REMARK    1  A    between atoms: C_4  and  C_1 
REMARK    2  A    between atoms: C_5  and  C_6 
REMARK       I    between atoms: C_6  and  N_7 
REMARK    3  A    between atoms: N_7  and  C_8 
ROOT
ATOM      1  C   UNL d   1       3.576  -0.640   0.000  0.00  0.00     0.042 A 
ATOM      2  C   UNL d   1       3.655  -1.458   0.000  0.00  0.00     0.087 A 
ATOM      3  C   UNL d   1       4.249  -0.154   0.000  0.00  0.00     0.004 A 
ATOM      4  C   UNL d   1       4.403  -1.798   0.000  0.00  0.00     0.019 A 
ATOM      5  C   UNL d   1       4.997  -0.503   0.000  0.00  0.00     0.000 A 
ATOM      6  C   UNL d   1       5.071  -1.325   0.000  0.00  0.00     0.002 A 
ENDROOT
BRANCH   1   7
ATOM      7  C   UNL d   1       2.828  -0.291   0.000  0.00  0.00     0.112 A 
ATOM      8  N   UNL d   1       2.085  -0.627   0.000  0.00  0.00    -0.238 NA
ATOM      9  C   UNL d   1       1.533  -0.013   0.000  0.00  0.00     0.088 A 
ATOM     10  C   UNL d   1       0.702  -0.013   0.000  0.00  0.00     0.020 A 
ATOM     11  C   UNL d   1       1.944   0.698   0.000  0.00  0.00     0.049 A 
ATOM     12  C   UNL d   1       0.291   0.698   0.000  0.00  0.00     0.002 A 
ATOM     13  C   UNL d   1       0.702   1.416   0.000  0.00  0.00     0.001 A 
ATOM     14  C   UNL d   1       1.533   1.416   0.000  0.00  0.00     0.008 A 
ATOM     15  S   UNL d   1       2.745   0.523   0.000  0.00  0.00    -0.066 SA
ENDBRANCH   1   7
BRANCH   2  16
ATOM     16  N   UNL d   1       2.978  -1.935   0.000  0.00  0.00    -0.206 NA
ATOM     17  C   UNL d   1       3.057  -2.766   0.000  0.00  0.00     0.304 C 
ATOM     18  O   UNL d   1       2.384  -3.240   0.000  0.00  0.00    -0.263 OA
BRANCH  17  19
ATOM     19  C   UNL d   1       3.804  -3.115   0.000  0.00  0.00     0.182 A 
ATOM     20  O   UNL d   1       3.879  -3.937   0.000  0.00  0.00    -0.296 OA
ATOM     21  C   UNL d   1       4.627  -4.286   0.000  0.00  0.00     0.150 A 
ATOM     22  C   UNL d   1       5.300  -3.813   0.000  0.00  0.00     0.149 A 
ATOM     23  O   UNL d   1       5.225  -2.990   0.000  0.00  0.00    -0.299 OA
ATOM     24  C   UNL d   1       4.477  -2.642   0.000  0.00  0.00     0.152 A 
ENDBRANCH  17  19
ENDBRANCH   2  16
TORSDOF 3
