REMARK  1 active torsions:
REMARK  status: ('A' for Active; 'I' for Inactive)
REMARK    1  A    between atoms: C_3  and  C_1 
REMARK       I    between atoms: N_2  and  C_3 
ROOT
ATOM      1  N   UNL d   1       0.017  -0.626   0.000  0.00  0.00    -0.303 N 
ATOM      2  C   UNL d   1      -0.678  -0.148   0.000  0.00  0.00     0.244 C 
ATOM      3  C   UNL d   1       0.748  -0.209   0.000  0.00  0.00     0.088 A 
ATOM      4  C   UNL d   1       0.469  -2.065   0.000  0.00  0.00     0.037 A 
ATOM      5  C   UNL d   1      -0.104  -1.461   0.000  0.00  0.00     0.051 A 
ATOM      6  C   UNL d   1       0.957  -1.174   0.000  0.00  0.00     0.028 A 
ATOM      7  C   UNL d   1       1.774  -1.309   0.000  0.00  0.00     0.002 A 
ATOM      8  C   UNL d   1       1.526  -0.522   0.000  0.00  0.00     0.023 A 
ATOM      9  O   UNL d   1      -1.378  -0.500   0.000  0.00  0.00    -0.271 OA
ATOM     10  C   UNL d   1       1.291  -1.987   0.000  0.00  0.00     0.006 A 
ATOM     11  C   UNL d   1       0.104  -2.834   0.000  0.00  0.00     0.006 C 
ATOM     12  C   UNL d   1       2.191  -2.039   0.000  0.00  0.00     0.000 C 
ATOM     13  C   UNL d   1       2.504  -0.891   0.000  0.00  0.00     0.000 C 
ENDROOT
BRANCH   2  14
ATOM     14  C   UNL d   1      -0.609   0.639   0.000  0.00  0.00     0.111 A 
ATOM     15  C   UNL d   1      -1.083   2.030   0.000  0.00  0.00     0.025 A 
ATOM     16  C   UNL d   1      -0.561   1.435   0.000  0.00  0.00     0.074 A 
ATOM     17  C   UNL d   1      -1.878   2.108   0.000  0.00  0.00     0.002 C 
ATOM     18  C   UNL d   1      -0.817   2.778   0.000  0.00  0.00     0.002 C 
ATOM     19  C   UNL d   1      -0.309   2.174   0.000  0.00  0.00     0.012 C 
ATOM     20  C   UNL d   1       0.226   1.369   0.000  0.00  0.00    -0.023 A 
ATOM     21  C   UNL d   1      -1.274   1.091   0.000  0.00  0.00     0.172 A 
ATOM     22  C   UNL d   1       0.170   0.583   0.000  0.00  0.00    -0.018 A 
ATOM     23  C   UNL d   1      -1.330   0.296   0.000  0.00  0.00     0.024 A 
ATOM     24  O   UNL d   1      -2.022   1.352   0.000  0.00  0.00    -0.291 OA
ENDBRANCH   2  14
TORSDOF 1
