REMARK  3 active torsions:
REMARK  status: ('A' for Active; 'I' for Inactive)
REMARK    1  A    between atoms: N_5  and  C_1 
REMARK    2  A    between atoms: C_2  and  C_6 
REMARK       I    between atoms: C_11  and  N_5 
REMARK    3  A    between atoms: C_9  and  C_11 
ROOT
ATOM      1  C   UNL d   1      -1.072   3.013   0.000  0.00  0.00     0.053 A 
ATOM      2  S   UNL d   1      -0.588   2.341   0.000  0.00  0.00    -0.080 SA
ATOM      3  C   UNL d   1       0.200   2.599   0.000  0.00  0.00     0.087 A 
ATOM      4  C   UNL d   1      -0.588   3.680   0.000  0.00  0.00     0.009 A 
ATOM      5  C   UNL d   1       0.200   3.426   0.000  0.00  0.00     0.012 A 
ENDROOT
BRANCH   3   6
ATOM      6  C   UNL d   1       0.868   2.111   0.000  0.00  0.00     0.287 C 
ATOM      7  N   UNL d   1       1.619   2.449   0.000  0.00  0.00    -0.182 NA
ATOM      8  O   UNL d   1       0.780   1.289   0.000  0.00  0.00    -0.265 OA
BRANCH   7   9
ATOM      9  C   UNL d   1       1.707   3.275   0.000  0.00  0.00     0.197 A 
ATOM     10  N   UNL d   1       1.093   3.826   0.000  0.00  0.00    -0.221 NA
ATOM     11  C   UNL d   1       1.431   4.573   0.000  0.00  0.00     0.090 A 
ATOM     12  C   UNL d   1       1.093   5.320   0.000  0.00  0.00     0.020 A 
ATOM     13  C   UNL d   1       2.245   4.473   0.000  0.00  0.00     0.050 A 
ATOM     14  C   UNL d   1       1.581   5.975   0.000  0.00  0.00     0.002 A 
ATOM     15  C   UNL d   1       2.395   5.896   0.000  0.00  0.00     0.001 A 
ATOM     16  C   UNL d   1       2.745   5.149   0.000  0.00  0.00     0.008 A 
ATOM     17  C   UNL d   1       2.883   6.563   0.000  0.00  0.00     0.000 C 
ATOM     18  S   UNL d   1       2.420   3.676   0.000  0.00  0.00    -0.047 SA
ENDBRANCH   7   9
ENDBRANCH   3   6
BRANCH   1  19
ATOM     19  C   UNL d   1      -1.899   3.013   0.000  0.00  0.00     0.117 A 
ATOM     20  N   UNL d   1      -2.378   2.341   0.000  0.00  0.00    -0.238 NA
ATOM     21  C   UNL d   1      -3.167   2.599   0.000  0.00  0.00     0.088 A 
ATOM     22  C   UNL d   1      -3.880   2.186   0.000  0.00  0.00     0.020 A 
ATOM     23  C   UNL d   1      -3.167   3.426   0.000  0.00  0.00     0.049 A 
ATOM     24  C   UNL d   1      -4.590   2.599   0.000  0.00  0.00     0.002 A 
ATOM     25  C   UNL d   1      -4.590   3.426   0.000  0.00  0.00     0.001 A 
ATOM     26  C   UNL d   1      -3.880   3.839   0.000  0.00  0.00     0.008 A 
ATOM     27  S   UNL d   1      -2.378   3.680   0.000  0.00  0.00    -0.066 SA
ENDBRANCH   1  19
TORSDOF 3
