REMARK  3 active torsions:
REMARK  status: ('A' for Active; 'I' for Inactive)
REMARK    1  A    between atoms: C_4  and  N_1 
REMARK    2  A    between atoms: C_2  and  O_5 
REMARK       I    between atoms: N_3  and  C_2 
REMARK    3  A    between atoms: O_5  and  C_10 
ROOT
ATOM      1  C   UNL d   1       7.758  -6.518   0.000  0.00  0.00     0.129 A 
ATOM      2  C   UNL d   1       8.580  -6.518   0.000  0.00  0.00     0.048 A 
ATOM      3  C   UNL d   1       8.985  -5.804   0.000  0.00  0.00     0.106 A 
ATOM      4  C   UNL d   1       7.344  -5.804   0.000  0.00  0.00     0.024 A 
ATOM      5  C   UNL d   1       7.758  -5.098   0.000  0.00  0.00     0.004 A 
ATOM      6  C   UNL d   1       8.580  -5.098   0.000  0.00  0.00     0.025 A 
ENDROOT
BRANCH   3   7
ATOM      7  O   UNL d   1       9.812  -5.804   0.000  0.00  0.00    -0.259 OA
BRANCH   7   8
ATOM      8  C   UNL d   1      10.238  -5.102   0.000  0.00  0.00     0.377 C 
ATOM      9  N   UNL d   1      11.073  -5.102   0.000  0.00  0.00    -0.252 N 
ATOM     10  C   UNL d   1      11.491  -4.376   0.000  0.00  0.00     0.085 A 
ATOM     11  C   UNL d   1      11.503  -5.816   0.000  0.00  0.00     0.085 A 
ATOM     12  C   UNL d   1      12.330  -4.376   0.000  0.00  0.00     0.019 A 
ATOM     13  C   UNL d   1      12.743  -5.102   0.000  0.00  0.00     0.003 A 
ATOM     14  C   UNL d   1      12.330  -5.816   0.000  0.00  0.00     0.019 A 
ATOM     15  O   UNL d   1       9.812  -4.376   0.000  0.00  0.00    -0.237 OA
ENDBRANCH   7   8
ENDBRANCH   3   7
BRANCH   1  16
ATOM     16  N   UNL d   1       7.340  -7.232   0.000  0.00  0.00    -0.114 N 
ATOM     17  O   UNL d   1       6.513  -7.232   0.000  0.00  0.00    -0.532 OA
ATOM     18  O   UNL d   1       7.758  -7.946   0.000  0.00  0.00    -0.532 OA
ENDBRANCH   1  16
TORSDOF 3
