REMARK  5 active torsions:
REMARK  status: ('A' for Active; 'I' for Inactive)
REMARK       I    between atoms: N_2  and  C_1 
REMARK       I    between atoms: N_4  and  C_1 
REMARK    1  A    between atoms: C_8  and  N_2 
REMARK    2  A    between atoms: C_3  and  C_5 
REMARK    3  A    between atoms: O_11  and  C_3 
REMARK    4  A    between atoms: C_14  and  N_4 
REMARK    5  A    between atoms: C_15  and  N_4 
ROOT
ATOM      1  C   UNL d   1       3.855  -5.670   0.000  0.00  0.00     0.063 A 
ATOM      2  C   UNL d   1       2.422  -4.852   0.000  0.00  0.00     0.086 A 
ATOM      3  C   UNL d   1       3.140  -6.086   0.000  0.00  0.00     0.007 A 
ATOM      4  C   UNL d   1       3.855  -4.852   0.000  0.00  0.00     0.007 A 
ATOM      5  C   UNL d   1       2.422  -5.670   0.000  0.00  0.00     0.019 A 
ATOM      6  C   UNL d   1       3.140  -4.441   0.000  0.00  0.00     0.019 A 
ENDROOT
BRANCH   2   7
ATOM      7  N   UNL d   1       1.712  -4.441   0.000  0.00  0.00    -0.192 NA
ATOM      8  C   UNL d   1       1.724  -3.614   0.000  0.00  0.00     0.354 C 
ATOM      9  N   UNL d   1       1.022  -3.195   0.000  0.00  0.00    -0.256 N 
ATOM     10  O   UNL d   1       2.447  -3.207   0.000  0.00  0.00    -0.244 OA
BRANCH   9  11
ATOM     11  C   UNL d   1       0.303  -3.606   0.000  0.00  0.00     0.085 C 
ATOM     12  C   UNL d   1      -0.411  -3.190   0.000  0.00  0.00     0.021 C 
ENDBRANCH   9  11
BRANCH   9  13
ATOM     13  C   UNL d   1       1.039  -2.368   0.000  0.00  0.00     0.085 C 
ATOM     14  C   UNL d   1       0.328  -1.948   0.000  0.00  0.00     0.021 C 
ENDBRANCH   9  13
ENDBRANCH   2   7
BRANCH   1  15
ATOM     15  C   UNL d   1       4.566  -6.073   0.000  0.00  0.00     0.296 C 
ATOM     16  O   UNL d   1       4.578  -6.892   0.000  0.00  0.00    -0.259 OA
BRANCH  15  17
ATOM     17  O   UNL d   1       5.276  -5.650   0.000  0.00  0.00    -0.296 OA
ATOM     18  C   UNL d   1       5.986  -6.057   0.000  0.00  0.00     0.185 C 
ENDBRANCH  15  17
ENDBRANCH   1  15
TORSDOF 5
