REMARK  4 active torsions:
REMARK  status: ('A' for Active; 'I' for Inactive)
REMARK    1  A    between atoms: C_2  and  N_1 
REMARK    2  A    between atoms: C_6  and  C_2 
REMARK    3  A    between atoms: C_7  and  C_2 
REMARK    4  A    between atoms: C_9  and  C_6 
ROOT
ATOM      1  C   UNL d   1      -2.134  -0.004   0.000  0.00  0.00     0.153 C 
ENDROOT
BRANCH   1   2
ATOM      2  N   UNL d   1      -1.645   0.662   0.000  0.00  0.00    -0.224 N 
ATOM      3  N   UNL d   1      -0.832   0.677   0.000  0.00  0.00    -0.165 NA
ATOM      4  C   UNL d   1      -0.583   1.456   0.000  0.00  0.00     0.103 A 
ATOM      5  C   UNL d   1       0.230   1.727   0.000  0.00  0.00     0.022 C 
ATOM      6  C   UNL d   1      -1.249   1.942   0.000  0.00  0.00     0.040 A 
ATOM      7  C   UNL d   1      -1.897   1.456   0.000  0.00  0.00     0.085 A 
ATOM      8  C   UNL d   1      -2.694   1.727   0.000  0.00  0.00     0.021 C 
ENDBRANCH   1   2
BRANCH   1   9
ATOM      9  C   UNL d   1      -1.806  -0.768   0.000  0.00  0.00     0.096 C 
BRANCH   9  10
ATOM     10  C   UNL d   1      -0.990  -0.858   0.000  0.00  0.00     0.213 C 
ATOM     11  O   UNL d   1      -0.482  -0.207   0.000  0.00  0.00    -0.644 OA
ATOM     12  O   UNL d   1      -0.628  -1.607   0.000  0.00  0.00    -0.644 OA
ENDBRANCH   9  10
ENDBRANCH   1   9
BRANCH   1  13
ATOM     13  C   UNL d   1      -2.947   0.086   0.000  0.00  0.00     0.230 C 
ATOM     14  O   UNL d   1      -3.432  -0.587   0.000  0.00  0.00    -0.643 OA
ATOM     15  O   UNL d   1      -3.293   0.843   0.000  0.00  0.00    -0.643 OA
ENDBRANCH   1  13
TORSDOF 4
