REMARK  4 active torsions:
REMARK  status: ('A' for Active; 'I' for Inactive)
REMARK    1  A    between atoms: C_3  and  N_1 
REMARK    2  A    between atoms: C_6  and  C_3 
REMARK    3  A    between atoms: C_9  and  C_3 
REMARK    4  A    between atoms: N_5  and  C_6 
ROOT
ATOM      1  C   UNL d   1      -0.584  -0.375   0.000  0.00  0.00     0.106 C 
ENDROOT
BRANCH   1   2
ATOM      2  N   UNL d   1      -0.584   0.461   0.000  0.00  0.00    -0.228 N 
ATOM      3  N   UNL d   1       0.030   1.019   0.000  0.00  0.00    -0.165 NA
ATOM      4  C   UNL d   1      -0.320   1.752   0.000  0.00  0.00     0.103 A 
ATOM      5  C   UNL d   1       0.089   2.490   0.000  0.00  0.00     0.022 C 
ATOM      6  C   UNL d   1      -1.121   1.671   0.000  0.00  0.00     0.040 A 
ATOM      7  C   UNL d   1      -1.300   0.870   0.000  0.00  0.00     0.085 A 
ATOM      8  C   UNL d   1      -2.059   0.524   0.000  0.00  0.00     0.021 C 
ENDBRANCH   1   2
BRANCH   1   9
ATOM      9  C   UNL d   1       0.132  -0.785   0.000  0.00  0.00     0.167 C 
BRANCH   9  10
ATOM     10  N   UNL d   1       0.849  -0.375   0.000  0.00  0.00    -0.111 N 
ATOM     11  O   UNL d   1       1.565  -0.785   0.000  0.00  0.00    -0.532 OA
ATOM     12  O   UNL d   1       0.849   0.461   0.000  0.00  0.00    -0.532 OA
ENDBRANCH   9  10
ENDBRANCH   1   9
BRANCH   1  13
ATOM     13  C   UNL d   1      -1.326  -0.806   0.000  0.00  0.00     0.019 A 
ATOM     14  C   UNL d   1      -1.326  -1.625   0.000  0.00  0.00     0.002 A 
ATOM     15  C   UNL d   1      -2.042  -2.034   0.000  0.00  0.00     0.000 A 
ATOM     16  C   UNL d   1      -2.759  -1.625   0.000  0.00  0.00     0.000 A 
ATOM     17  C   UNL d   1      -2.759  -0.806   0.000  0.00  0.00     0.000 A 
ATOM     18  C   UNL d   1      -3.492  -2.051   0.000  0.00  0.00     0.000 C 
ATOM     19  C   UNL d   1      -2.042  -0.397   0.000  0.00  0.00     0.002 A 
ENDBRANCH   1  13
TORSDOF 4
