REMARK  2 active torsions:
REMARK  status: ('A' for Active; 'I' for Inactive)
REMARK    1  A    between atoms: C_7  and  C_1 
REMARK    2  A    between atoms: C_9  and  C_1 
ROOT
ATOM      1  C   UNL d   1       1.867  -0.825   0.000  0.00  0.00     0.240 A 
ATOM      2  S   UNL d   1       1.154  -1.229   0.000  0.00  0.00    -0.043 SA
ATOM      3  N   UNL d   1       1.867   0.000   0.000  0.00  0.00    -0.199 NA
ATOM      4  C   UNL d   1       0.442  -0.817   0.000  0.00  0.00     0.181 A 
ATOM      5  N   UNL d   1       0.442   0.008   0.000  0.00  0.00    -0.237 N 
ATOM      6  C   UNL d   1       1.154   0.421   0.000  0.00  0.00     0.352 A 
ATOM      7  N   UNL d   1      -0.271  -1.229   0.000  0.00  0.00    -0.221 NA
ATOM      8  O   UNL d   1       1.162   1.246   0.000  0.00  0.00    -0.244 OA
ATOM      9  C   UNL d   1      -0.271   0.421   0.000  0.00  0.00     0.088 A 
ATOM     10  C   UNL d   1      -0.975  -0.817   0.000  0.00  0.00     0.103 A 
ATOM     11  C   UNL d   1      -0.975   0.008   0.000  0.00  0.00     0.040 A 
ENDROOT
BRANCH   1  12
ATOM     12  C   UNL d   1       1.867  -1.650   0.000  0.00  0.00     0.429 C 
ATOM     13  F   UNL d   1       1.854  -2.400   0.000  0.00  0.00    -0.167 F 
ATOM     14  F   UNL d   1       1.192  -2.179   0.000  0.00  0.00    -0.167 F 
ATOM     15  F   UNL d   1       2.525  -2.191   0.000  0.00  0.00    -0.167 F 
ENDBRANCH   1  12
BRANCH   1  16
ATOM     16  C   UNL d   1       2.579  -0.404   0.000  0.00  0.00     0.016 A 
ATOM     17  C   UNL d   1       3.300  -0.817   0.000  0.00  0.00    -0.001 A 
ATOM     18  C   UNL d   1       4.012  -0.400   0.000  0.00  0.00    -0.000 A 
ATOM     19  C   UNL d   1       4.004   0.433   0.000  0.00  0.00    -0.000 A 
ATOM     20  C   UNL d   1       3.279   0.833   0.000  0.00  0.00    -0.000 A 
ATOM     21  C   UNL d   1       2.566   0.421   0.000  0.00  0.00    -0.001 A 
ENDBRANCH   1  16
TORSDOF 2
