REMARK  4 active torsions:
REMARK  status: ('A' for Active; 'I' for Inactive)
REMARK    1  A    between atoms: C_6  and  C_1 
REMARK    2  A    between atoms: C_4  and  C_11 
REMARK    3  A    between atoms: N_8  and  C_6 
REMARK    4  A    between atoms: C_13  and  C_6 
ROOT
ATOM      1  C   UNL d   1      -0.101   0.096   0.000  0.00  0.00     0.067 C 
ENDROOT
BRANCH   1   2
ATOM      2  C   UNL d   1      -0.825   0.515   0.000  0.00  0.00     0.057 A 
ATOM      3  C   UNL d   1      -1.529   0.113   0.000  0.00  0.00     0.214 A 
ATOM      4  C   UNL d   1      -2.257   0.515   0.000  0.00  0.00     0.121 A 
ATOM      5  O   UNL d   1      -1.508  -0.733   0.000  0.00  0.00    -0.285 OA
ATOM      6  N   UNL d   1      -2.961   0.113   0.000  0.00  0.00    -0.241 NA
ATOM      7  C   UNL d   1      -2.257   1.340   0.000  0.00  0.00     0.032 A 
ATOM      8  C   UNL d   1      -3.664   0.515   0.000  0.00  0.00     0.099 A 
ATOM      9  C   UNL d   1      -3.664   1.340   0.000  0.00  0.00     0.021 A 
ATOM     10  C   UNL d   1      -2.961   1.759   0.000  0.00  0.00     0.004 A 
ATOM     11  C   UNL d   1      -1.529   1.759   0.000  0.00  0.00     0.059 A 
ATOM     12  C   UNL d   1      -0.825   1.340   0.000  0.00  0.00     0.016 A 
ATOM     13 CL   UNL d   1      -1.508   2.584   0.000  0.00  0.00    -0.082 Cl
ENDBRANCH   1   2
BRANCH   1  14
ATOM     14  N   UNL d   1      -0.084  -0.733   0.000  0.00  0.00    -0.301 N 
ATOM     15  C   UNL d   1       0.620  -1.156   0.000  0.00  0.00     0.100 A 
ATOM     16  C   UNL d   1       0.620  -1.977   0.000  0.00  0.00     0.100 A 
ATOM     17  N   UNL d   1      -0.084  -2.379   0.000  0.00  0.00    -0.299 N 
ATOM     18  C   UNL d   1      -0.804  -1.960   0.000  0.00  0.00     0.100 A 
ATOM     19  C   UNL d   1      -0.063  -3.204   0.000  0.00  0.00     0.100 C 
ATOM     20  C   UNL d   1      -0.804  -1.156   0.000  0.00  0.00     0.100 A 
ENDBRANCH   1  14
BRANCH   1  21
ATOM     21  C   UNL d   1       0.620   0.515   0.000  0.00  0.00     0.016 A 
ATOM     22  C   UNL d   1       0.620   1.340   0.000  0.00  0.00     0.001 A 
ATOM     23  C   UNL d   1       1.323   1.759   0.000  0.00  0.00     0.004 A 
ATOM     24  C   UNL d   1       2.048   1.357   0.000  0.00  0.00     0.071 A 
ATOM     25  C   UNL d   1       2.048   0.536   0.000  0.00  0.00     0.004 A 
ATOM     26  C   UNL d   1       1.344   0.113   0.000  0.00  0.00     0.001 A 
BRANCH  24  27
ATOM     27  C   UNL d   1       2.752   1.759   0.000  0.00  0.00     0.419 C 
ATOM     28  F   UNL d   1       3.422   2.220   0.000  0.00  0.00    -0.166 F 
ATOM     29  F   UNL d   1       3.522   1.357   0.000  0.00  0.00    -0.166 F 
ATOM     30  F   UNL d   1       2.714   2.534   0.000  0.00  0.00    -0.166 F 
ENDBRANCH  24  27
ENDBRANCH   1  21
TORSDOF 4
