REMARK  5 active torsions:
REMARK  status: ('A' for Active; 'I' for Inactive)
REMARK    1  A    between atoms: O_4  and  C_1 
REMARK    2  A    between atoms: C_11  and  C_2 
REMARK    3  A    between atoms: C_5  and  O_4 
REMARK    4  A    between atoms: C_7  and  C_5 
REMARK    5  A    between atoms: N_10  and  C_11 
ROOT
ATOM      1  C   UNL d   1      -2.038   1.274   0.000  0.00  0.00     0.122 A 
ATOM      2  C   UNL d   1      -1.322   1.698   0.000  0.00  0.00     0.043 A 
ATOM      3  C   UNL d   1      -2.762   1.682   0.000  0.00  0.00     0.105 A 
ATOM      4  C   UNL d   1      -2.762   2.519   0.000  0.00  0.00     0.030 A 
ATOM      5  C   UNL d   1      -2.038   2.932   0.000  0.00  0.00     0.059 A 
ATOM      6  C   UNL d   1      -1.322   2.495   0.000  0.00  0.00     0.015 A 
ATOM      7  N   UNL d   1      -3.457   1.274   0.000  0.00  0.00    -0.242 NA
ATOM      8 CL   UNL d   1      -2.038   3.744   0.000  0.00  0.00    -0.082 Cl
ATOM      9  C   UNL d   1      -3.457   2.932   0.000  0.00  0.00     0.004 A 
ATOM     10  C   UNL d   1      -4.173   1.698   0.000  0.00  0.00     0.099 A 
ATOM     11  C   UNL d   1      -4.173   2.495   0.000  0.00  0.00     0.021 A 
ENDROOT
BRANCH   1  12
ATOM     12  O   UNL d   1      -2.038   0.457   0.000  0.00  0.00    -0.271 OA
BRANCH  12  13
ATOM     13  C   UNL d   1      -1.343   0.032   0.000  0.00  0.00     0.306 C 
ATOM     14  O   UNL d   1      -0.627   0.457   0.000  0.00  0.00    -0.258 OA
BRANCH  13  15
ATOM     15  C   UNL d   1      -1.355  -0.780   0.000  0.00  0.00     0.093 A 
ATOM     16  S   UNL d   1      -0.712  -1.250   0.000  0.00  0.00    -0.081 SA
ATOM     17  C   UNL d   1      -0.971  -2.042   0.000  0.00  0.00     0.036 A 
ATOM     18  C   UNL d   1      -1.779  -2.038   0.000  0.00  0.00     0.008 A 
ATOM     19  C   UNL d   1      -2.022  -1.217   0.000  0.00  0.00     0.012 A 
ENDBRANCH  13  15
ENDBRANCH  12  13
ENDBRANCH   1  12
BRANCH   2  20
ATOM     20  C   UNL d   1      -0.582   1.294   0.000  0.00  0.00     0.082 C 
BRANCH  20  21
ATOM     21  N   UNL d   1       0.133   1.743   0.000  0.00  0.00    -0.300 N 
ATOM     22  C   UNL d   1       0.853   1.330   0.000  0.00  0.00     0.100 A 
ATOM     23  C   UNL d   1       1.553   1.759   0.000  0.00  0.00     0.100 A 
ATOM     24  N   UNL d   1       1.533   2.592   0.000  0.00  0.00    -0.299 N 
ATOM     25  C   UNL d   1       0.813   2.960   0.000  0.00  0.00     0.100 A 
ATOM     26  C   UNL d   1       2.232   3.041   0.000  0.00  0.00     0.100 C 
ATOM     27  C   UNL d   1       0.113   2.555   0.000  0.00  0.00     0.100 A 
ENDBRANCH  20  21
ENDBRANCH   2  20
TORSDOF 5
