REMARK  3 active torsions:
REMARK  status: ('A' for Active; 'I' for Inactive)
REMARK    1  A    between atoms: C_11  and  N_1 
REMARK    2  A    between atoms: C_3  and  C_6 
REMARK    3  A    between atoms: C_6  and  N_5 
ROOT
ATOM      1  N   UNL d   1       1.629   1.111   0.000  0.00  0.00    -0.301 N 
ATOM      2  N   UNL d   1       0.195   0.271   0.000  0.00  0.00    -0.300 N 
ATOM      3  C   UNL d   1       1.629   0.271   0.000  0.00  0.00     0.100 A 
ATOM      4  C   UNL d   1       0.908   1.513   0.000  0.00  0.00     0.100 A 
ATOM      5  C   UNL d   1       0.195   1.111   0.000  0.00  0.00     0.100 A 
ATOM      6  C   UNL d   1       0.908  -0.147   0.000  0.00  0.00     0.100 A 
ENDROOT
BRANCH   2   7
ATOM      7  C   UNL d   1      -0.526  -0.147   0.000  0.00  0.00     0.080 C 
BRANCH   7   8
ATOM      8  C   UNL d   1      -0.526  -0.972   0.000  0.00  0.00     0.019 A 
ATOM      9  C   UNL d   1      -1.254  -1.390   0.000  0.00  0.00     0.022 A 
ATOM     10  C   UNL d   1      -1.254  -2.214   0.000  0.00  0.00     0.120 A 
ATOM     11  C   UNL d   1      -1.959  -0.972   0.000  0.00  0.00     0.003 A 
ATOM     12  N   UNL d   1      -1.959  -2.632   0.000  0.00  0.00    -0.241 NA
ATOM     13  C   UNL d   1      -0.526  -2.632   0.000  0.00  0.00     0.213 A 
ATOM     14  C   UNL d   1      -2.688  -2.214   0.000  0.00  0.00     0.099 A 
ATOM     15  C   UNL d   1      -2.688  -1.390   0.000  0.00  0.00     0.021 A 
ATOM     16  C   UNL d   1       0.195  -2.214   0.000  0.00  0.00     0.044 A 
ATOM     17  O   UNL d   1      -0.526  -3.456   0.000  0.00  0.00    -0.285 OA
ATOM     18  C   UNL d   1       0.195  -1.390   0.000  0.00  0.00     0.005 A 
ENDBRANCH   7   8
ENDBRANCH   2   7
BRANCH   1  19
ATOM     19  C   UNL d   1       2.437   1.322   0.000  0.00  0.00     0.064 A 
ATOM     20  C   UNL d   1       3.122   0.880   0.000  0.00  0.00     0.018 A 
ATOM     21  C   UNL d   1       3.870   1.286   0.000  0.00  0.00     0.002 A 
ATOM     22  C   UNL d   1       3.906   2.086   0.000  0.00  0.00     0.000 A 
ATOM     23  C   UNL d   1       3.201   2.528   0.000  0.00  0.00     0.002 A 
ATOM     24  C   UNL d   1       2.473   2.146   0.000  0.00  0.00     0.018 A 
ENDBRANCH   1  19
TORSDOF 3
