REMARK  5 active torsions:
REMARK  status: ('A' for Active; 'I' for Inactive)
REMARK    1  A    between atoms: C_5  and  C_1 
REMARK    2  A    between atoms: C_4  and  C_9 
REMARK    3  A    between atoms: N_7  and  C_5 
REMARK    4  A    between atoms: C_10  and  C_5 
REMARK    5  A    between atoms: C_12  and  N_7 
ROOT
ATOM      1  C   UNL d   1       6.101  -3.210   0.000  0.00  0.00     0.086 C 
ENDROOT
BRANCH   1   2
ATOM      2  C   UNL d   1       5.385  -2.800   0.000  0.00  0.00     0.058 A 
ATOM      3  C   UNL d   1       4.672  -3.218   0.000  0.00  0.00     0.214 A 
ATOM      4  C   UNL d   1       3.956  -2.800   0.000  0.00  0.00     0.120 A 
ATOM      5  O   UNL d   1       4.660  -4.030   0.000  0.00  0.00    -0.285 OA
ATOM      6  N   UNL d   1       3.235  -3.210   0.000  0.00  0.00    -0.242 NA
ATOM      7  C   UNL d   1       3.956  -1.976   0.000  0.00  0.00     0.021 A 
ATOM      8  C   UNL d   1       2.522  -2.800   0.000  0.00  0.00     0.082 A 
ATOM      9  C   UNL d   1       1.806  -3.210   0.000  0.00  0.00     0.021 C 
ATOM     10  C   UNL d   1       2.522  -1.968   0.000  0.00  0.00     0.019 A 
ATOM     11  C   UNL d   1       3.247  -1.557   0.000  0.00  0.00     0.003 A 
ATOM     12  C   UNL d   1       4.672  -1.557   0.000  0.00  0.00     0.002 A 
ATOM     13  C   UNL d   1       5.385  -1.968   0.000  0.00  0.00     0.005 A 
ENDBRANCH   1   2
BRANCH   1  14
ATOM     14  N   UNL d   1       6.760  -2.713   0.000  0.00  0.00    -0.245 NA
BRANCH  14  15
ATOM     15  C   UNL d   1       7.510  -3.019   0.000  0.00  0.00     0.081 A 
ATOM     16  C   UNL d   1       8.156  -2.522   0.000  0.00  0.00     0.023 A 
ATOM     17  C   UNL d   1       8.926  -2.833   0.000  0.00  0.00     0.073 A 
ATOM     18  C   UNL d   1       9.034  -3.657   0.000  0.00  0.00     0.004 A 
ATOM     19  C   UNL d   1       8.379  -4.154   0.000  0.00  0.00     0.002 A 
ATOM     20  C   UNL d   1       7.621  -3.831   0.000  0.00  0.00     0.019 A 
BRANCH  17  21
ATOM     21  C   UNL d   1       9.572  -2.324   0.000  0.00  0.00     0.419 C 
ATOM     22  F   UNL d   1      10.169  -1.868   0.000  0.00  0.00    -0.166 F 
ATOM     23  F   UNL d   1      10.405  -2.522   0.000  0.00  0.00    -0.166 F 
ATOM     24  F   UNL d   1       9.593  -1.470   0.000  0.00  0.00    -0.166 F 
ENDBRANCH  17  21
ENDBRANCH  14  15
ENDBRANCH   1  14
BRANCH   1  25
ATOM     25  C   UNL d   1       6.312  -4.005   0.000  0.00  0.00     0.037 A 
ATOM     26  C   UNL d   1       5.720  -4.589   0.000  0.00  0.00     0.100 A 
ATOM     27  N   UNL d   1       5.944  -5.385   0.000  0.00  0.00    -0.242 NA
ATOM     28  C   UNL d   1       6.727  -5.596   0.000  0.00  0.00     0.099 A 
ATOM     29  C   UNL d   1       7.311  -5.020   0.000  0.00  0.00     0.021 A 
ATOM     30  C   UNL d   1       7.108  -4.225   0.000  0.00  0.00     0.005 A 
ENDBRANCH   1  25
TORSDOF 5
