REMARK  5 active torsions:
REMARK  status: ('A' for Active; 'I' for Inactive)
REMARK    1  A    between atoms: C_3  and  N_1 
REMARK    2  A    between atoms: C_6  and  C_3 
REMARK    3  A    between atoms: C_9  and  C_3 
REMARK    4  A    between atoms: N_5  and  C_6 
REMARK    5  A    between atoms: O_18  and  C_14 
ROOT
ATOM      1  C   UNL d   1      -0.316  -0.691   0.000  0.00  0.00     0.106 C 
ENDROOT
BRANCH   1   2
ATOM      2  N   UNL d   1      -0.192   0.135   0.000  0.00  0.00    -0.228 N 
ATOM      3  N   UNL d   1       0.496   0.586   0.000  0.00  0.00    -0.165 NA
ATOM      4  C   UNL d   1       0.259   1.382   0.000  0.00  0.00     0.103 A 
ATOM      5  C   UNL d   1       0.748   2.047   0.000  0.00  0.00     0.022 C 
ATOM      6  C   UNL d   1      -0.571   1.397   0.000  0.00  0.00     0.040 A 
ATOM      7  C   UNL d   1      -0.841   0.642   0.000  0.00  0.00     0.085 A 
ATOM      8  C   UNL d   1      -1.653   0.424   0.000  0.00  0.00     0.021 C 
ENDBRANCH   1   2
BRANCH   1   9
ATOM      9  C   UNL d   1       0.349  -1.198   0.000  0.00  0.00     0.167 C 
BRANCH   9  10
ATOM     10  N   UNL d   1       1.108  -0.890   0.000  0.00  0.00    -0.111 N 
ATOM     11  O   UNL d   1       1.758  -1.397   0.000  0.00  0.00    -0.532 OA
ATOM     12  O   UNL d   1       1.217  -0.079   0.000  0.00  0.00    -0.532 OA
ENDBRANCH   9  10
ENDBRANCH   1   9
BRANCH   1  13
ATOM     13  C   UNL d   1      -1.093  -0.996   0.000  0.00  0.00     0.019 A 
ATOM     14  C   UNL d   1      -1.758  -0.496   0.000  0.00  0.00     0.004 A 
ATOM     15  C   UNL d   1      -2.498  -0.838   0.000  0.00  0.00     0.024 A 
ATOM     16  C   UNL d   1      -2.570  -1.668   0.000  0.00  0.00     0.094 A 
ATOM     17  C   UNL d   1      -1.923  -2.134   0.000  0.00  0.00     0.024 A 
ATOM     18  C   UNL d   1      -1.168  -1.807   0.000  0.00  0.00     0.004 A 
BRANCH  16  19
ATOM     19  O   UNL d   1      -3.332  -2.010   0.000  0.00  0.00    -0.328 OA
ATOM     20  C   UNL d   1      -3.422  -2.840   0.000  0.00  0.00     0.181 C 
ENDBRANCH  16  19
ENDBRANCH   1  13
TORSDOF 5
