REMARK  2 active torsions:
REMARK  status: ('A' for Active; 'I' for Inactive)
REMARK    1  A    between atoms: C_7  and  C_1 
REMARK    2  A    between atoms: C_9  and  C_1 
ROOT
ATOM      1  C   UNL d   1       2.300  -0.929   0.000  0.00  0.00     0.240 A 
ATOM      2  S   UNL d   1       1.587  -1.342   0.000  0.00  0.00    -0.043 SA
ATOM      3  N   UNL d   1       2.300  -0.104   0.000  0.00  0.00    -0.199 NA
ATOM      4  C   UNL d   1       0.879  -0.929   0.000  0.00  0.00     0.181 A 
ATOM      5  N   UNL d   1       0.867  -0.092   0.000  0.00  0.00    -0.236 N 
ATOM      6  C   UNL d   1       1.587   0.308   0.000  0.00  0.00     0.352 A 
ATOM      7  N   UNL d   1       0.087  -1.192   0.000  0.00  0.00    -0.219 NA
ATOM      8  O   UNL d   1       1.592   1.133   0.000  0.00  0.00    -0.244 OA
ATOM      9  C   UNL d   1       0.079   0.150   0.000  0.00  0.00     0.107 A 
ATOM     10  C   UNL d   1      -0.400  -0.525   0.000  0.00  0.00     0.120 A 
ENDROOT
BRANCH   1  11
ATOM     11  C   UNL d   1       3.013  -0.517   0.000  0.00  0.00     0.429 C 
ATOM     12  F   UNL d   1       3.663  -0.138   0.000  0.00  0.00    -0.167 F 
ATOM     13  F   UNL d   1       3.812  -0.817   0.000  0.00  0.00    -0.167 F 
ATOM     14  F   UNL d   1       3.142   0.333   0.000  0.00  0.00    -0.167 F 
ENDBRANCH   1  11
BRANCH   1  15
ATOM     15  C   UNL d   1       2.292  -1.754   0.000  0.00  0.00     0.016 A 
ATOM     16  C   UNL d   1       3.000  -2.167   0.000  0.00  0.00    -0.001 A 
ATOM     17  C   UNL d   1       2.992  -2.992   0.000  0.00  0.00    -0.000 A 
ATOM     18  C   UNL d   1       2.275  -3.404   0.000  0.00  0.00    -0.000 A 
ATOM     19  C   UNL d   1       1.567  -2.979   0.000  0.00  0.00    -0.000 A 
ATOM     20  C   UNL d   1       2.267  -4.229   0.000  0.00  0.00    -0.000 C 
ATOM     21  C   UNL d   1       1.575  -2.163   0.000  0.00  0.00    -0.001 A 
ENDBRANCH   1  15
TORSDOF 2
