REMARK  3 active torsions:
REMARK  status: ('A' for Active; 'I' for Inactive)
REMARK    1  A    between atoms: S_7  and  C_3 
REMARK       I    between atoms: N_4  and  C_5 
REMARK    2  A    between atoms: C_5  and  C_10 
REMARK    3  A    between atoms: C_10  and  S_7 
ROOT
ATOM      1  N   UNL d   1      -1.266   0.196   0.000  0.00  0.00    -0.236 NA
ATOM      2  N   UNL d   1      -1.266   1.851   0.000  0.00  0.00    -0.242 NA
ATOM      3  C   UNL d   1      -0.547   0.602   0.000  0.00  0.00     0.129 A 
ATOM      4  C   UNL d   1      -0.547   1.437   0.000  0.00  0.00     0.105 A 
ATOM      5  C   UNL d   1      -1.976   0.602   0.000  0.00  0.00     0.100 A 
ATOM      6  C   UNL d   1      -1.976   1.437   0.000  0.00  0.00     0.099 A 
ATOM      7  C   UNL d   1       0.155   1.851   0.000  0.00  0.00     0.023 C 
ATOM      8  C   UNL d   1      -2.690   1.851   0.000  0.00  0.00     0.021 A 
ATOM      9  C   UNL d   1      -2.690   0.196   0.000  0.00  0.00     0.021 A 
ATOM     10  C   UNL d   1      -3.409   1.425   0.000  0.00  0.00     0.002 A 
ATOM     11  C   UNL d   1      -3.409   0.602   0.000  0.00  0.00     0.002 A 
ENDROOT
BRANCH   3  12
ATOM     12  S   UNL d   1       0.155   0.184   0.000  0.00  0.00    -0.061 SA
BRANCH  12  13
ATOM     13  C   UNL d   1       0.150  -0.631   0.000  0.00  0.00     0.098 C 
BRANCH  13  14
ATOM     14  C   UNL d   1       0.869  -1.053   0.000  0.00  0.00     0.271 C 
ATOM     15  N   UNL d   1       1.583  -0.631   0.000  0.00  0.00    -0.272 N 
ATOM     16  C   UNL d   1       2.306  -1.053   0.000  0.00  0.00     0.083 A 
ATOM     17  C   UNL d   1       1.583   0.184   0.000  0.00  0.00     0.083 A 
ATOM     18  C   UNL d   1       3.012  -0.631   0.000  0.00  0.00     0.019 A 
ATOM     19  C   UNL d   1       3.012   0.184   0.000  0.00  0.00     0.003 A 
ATOM     20  C   UNL d   1       2.306   0.597   0.000  0.00  0.00     0.019 A 
ATOM     21  C   UNL d   1       3.760   0.602   0.000  0.00  0.00     0.000 C 
ATOM     22  O   UNL d   1       0.869  -1.872   0.000  0.00  0.00    -0.266 OA
ENDBRANCH  13  14
ENDBRANCH  12  13
ENDBRANCH   3  12
TORSDOF 3
