REMARK  4 active torsions:
REMARK  status: ('A' for Active; 'I' for Inactive)
REMARK    1  A    between atoms: C_3  and  N_1 
REMARK    2  A    between atoms: C_6  and  C_3 
REMARK    3  A    between atoms: C_9  and  C_3 
REMARK    4  A    between atoms: N_5  and  C_6 
ROOT
ATOM      1  C   UNL d   1      -0.619  -0.555   0.000  0.00  0.00     0.106 C 
ENDROOT
BRANCH   1   2
ATOM      2  N   UNL d   1      -0.619   0.271   0.000  0.00  0.00    -0.228 N 
ATOM      3  N   UNL d   1       0.000   0.826   0.000  0.00  0.00    -0.165 NA
ATOM      4  C   UNL d   1      -0.347   1.576   0.000  0.00  0.00     0.103 A 
ATOM      5  C   UNL d   1       0.076   2.299   0.000  0.00  0.00     0.022 C 
ATOM      6  C   UNL d   1      -1.149   1.496   0.000  0.00  0.00     0.040 A 
ATOM      7  C   UNL d   1      -1.325   0.690   0.000  0.00  0.00     0.085 A 
ATOM      8  C   UNL d   1      -2.091   0.347   0.000  0.00  0.00     0.021 C 
ENDBRANCH   1   2
BRANCH   1   9
ATOM      9  C   UNL d   1       0.096  -0.958   0.000  0.00  0.00     0.167 C 
BRANCH   9  10
ATOM     10  N   UNL d   1       0.818  -0.555   0.000  0.00  0.00    -0.111 N 
ATOM     11  O   UNL d   1       1.532  -0.974   0.000  0.00  0.00    -0.532 OA
ATOM     12  O   UNL d   1       0.818   0.271   0.000  0.00  0.00    -0.532 OA
ENDBRANCH   9  10
ENDBRANCH   1   9
BRANCH   1  13
ATOM     13  C   UNL d   1      -1.341  -0.958   0.000  0.00  0.00     0.019 A 
ATOM     14  C   UNL d   1      -1.341  -1.776   0.000  0.00  0.00     0.002 A 
ATOM     15  C   UNL d   1      -2.055  -2.203   0.000  0.00  0.00     0.011 A 
ATOM     16  C   UNL d   1      -2.777  -1.760   0.000  0.00  0.00     0.058 A 
ATOM     17  C   UNL d   1      -2.761  -0.958   0.000  0.00  0.00     0.011 A 
ATOM     18 CL   UNL d   1      -3.508  -2.143   0.000  0.00  0.00    -0.082 Cl
ATOM     19  C   UNL d   1      -2.055  -0.555   0.000  0.00  0.00     0.002 A 
ENDBRANCH   1  13
TORSDOF 4
