REMARK  2 active torsions:
REMARK  status: ('A' for Active; 'I' for Inactive)
REMARK    1  A    between atoms: C_5  and  C_1 
REMARK    2  A    between atoms: C_7  and  C_5 
ROOT
ATOM      1  C   UNL d   1      -0.451  -0.762   0.000  0.00  0.00     0.061 A 
ATOM      2  C   UNL d   1       0.027  -1.415   0.000  0.00  0.00     0.102 A 
ATOM      3  N   UNL d   1      -0.451  -2.094   0.000  0.00  0.00    -0.244 NA
ATOM      4  C   UNL d   1      -1.229  -1.017   0.000  0.00  0.00     0.022 A 
ATOM      5  C   UNL d   1      -1.229  -1.836   0.000  0.00  0.00     0.082 A 
ATOM      6  C   UNL d   1      -1.942  -0.596   0.000  0.00  0.00     0.002 A 
ATOM      7  C   UNL d   1      -1.942  -2.257   0.000  0.00  0.00     0.019 A 
ATOM      8  C   UNL d   1      -2.652  -1.017   0.000  0.00  0.00     0.000 A 
ATOM      9  C   UNL d   1      -2.652  -1.836   0.000  0.00  0.00     0.002 A 
ENDROOT
BRANCH   1  10
ATOM     10  C   UNL d   1      -0.178   0.042   0.000  0.00  0.00     0.215 C 
ATOM     11  O   UNL d   1       0.626   0.201   0.000  0.00  0.00    -0.285 OA
BRANCH  10  12
ATOM     12  C   UNL d   1      -0.740   0.656   0.000  0.00  0.00     0.120 A 
ATOM     13  N   UNL d   1      -1.544   0.474   0.000  0.00  0.00    -0.241 NA
ATOM     14  C   UNL d   1      -2.090   1.093   0.000  0.00  0.00     0.099 A 
ATOM     15  C   UNL d   1      -1.832   1.878   0.000  0.00  0.00     0.021 A 
ATOM     16  C   UNL d   1      -1.032   2.045   0.000  0.00  0.00     0.003 A 
ATOM     17  C   UNL d   1      -0.486   1.442   0.000  0.00  0.00     0.022 A 
ENDBRANCH  10  12
ENDBRANCH   1  10
TORSDOF 2
