REMARK  3 active torsions:
REMARK  status: ('A' for Active; 'I' for Inactive)
REMARK    1  A    between atoms: N_2  and  C_1 
REMARK    2  A    between atoms: C_3  and  C_1 
REMARK    3  A    between atoms: N_6  and  C_5 
ROOT
ATOM      1  C   UNL d   1       0.113  -0.575   0.000  0.00  0.00     0.027 A 
ATOM      2  C   UNL d   1      -1.321   0.250   0.000  0.00  0.00     0.064 A 
ATOM      3  C   UNL d   1      -0.608  -0.988   0.000  0.00  0.00     0.004 A 
ATOM      4  C   UNL d   1       0.113   0.258   0.000  0.00  0.00     0.004 A 
ATOM      5  C   UNL d   1      -1.321  -0.575   0.000  0.00  0.00     0.018 A 
ATOM      6  C   UNL d   1      -0.608   0.671   0.000  0.00  0.00     0.018 A 
ENDROOT
BRANCH   1   7
ATOM      7  C   UNL d   1       0.829  -0.988   0.000  0.00  0.00     0.120 C 
ATOM      8  S   UNL d   1       1.542  -0.567   0.000  0.00  0.00    -0.059 SA
BRANCH   7   9
ATOM      9  N   UNL d   1       0.829  -1.812   0.000  0.00  0.00    -0.292 N 
ATOM     10  C   UNL d   1       0.113  -2.217   0.000  0.00  0.00     0.108 A 
ATOM     11  C   UNL d   1       0.113  -3.042   0.000  0.00  0.00     0.142 A 
ATOM     12  O   UNL d   1       0.825  -3.454   0.000  0.00  0.00    -0.300 OA
ATOM     13  C   UNL d   1       1.542  -3.042   0.000  0.00  0.00     0.142 A 
ATOM     14  C   UNL d   1       1.542  -2.217   0.000  0.00  0.00     0.108 A 
ENDBRANCH   7   9
ENDBRANCH   1   7
BRANCH   2  15
ATOM     15  N   UNL d   1      -2.033   0.662   0.000  0.00  0.00    -0.301 N 
ATOM     16  C   UNL d   1      -2.033   1.488   0.000  0.00  0.00     0.100 C 
ATOM     17  C   UNL d   1      -2.746   0.250   0.000  0.00  0.00     0.100 C 
ENDBRANCH   2  15
TORSDOF 3
