REMARK  4 active torsions:
REMARK  status: ('A' for Active; 'I' for Inactive)
REMARK    1  A    between atoms: N_2  and  C_1 
REMARK    2  A    between atoms: C_4  and  C_1 
REMARK    3  A    between atoms: C_8  and  N_2 
REMARK    4  A    between atoms: N_7  and  C_6 
ROOT
ATOM      1  C   UNL d   1       5.002  -3.010   0.000  0.00  0.00     0.064 A 
ATOM      2  C   UNL d   1       3.574  -2.192   0.000  0.00  0.00     0.083 A 
ATOM      3  C   UNL d   1       4.998  -2.184   0.000  0.00  0.00     0.019 A 
ATOM      4  C   UNL d   1       4.288  -3.424   0.000  0.00  0.00     0.019 A 
ATOM      5  C   UNL d   1       4.284  -1.770   0.000  0.00  0.00     0.021 A 
ATOM      6  C   UNL d   1       3.570  -3.019   0.000  0.00  0.00     0.021 A 
ENDROOT
BRANCH   2   7
ATOM      7  N   UNL d   1       2.856  -1.783   0.000  0.00  0.00    -0.233 NA
BRANCH   7   8
ATOM      8  C   UNL d   1       2.856  -0.956   0.000  0.00  0.00     0.153 C 
ATOM      9  S   UNL d   1       3.570  -0.539   0.000  0.00  0.00    -0.056 SA
BRANCH   8  10
ATOM     10  C   UNL d   1       2.134  -0.543   0.000  0.00  0.00     0.109 A 
ATOM     11  N   UNL d   1       2.134   0.288   0.000  0.00  0.00    -0.242 NA
ATOM     12  C   UNL d   1       1.420   0.702   0.000  0.00  0.00     0.099 A 
ATOM     13  C   UNL d   1       0.706   0.288   0.000  0.00  0.00     0.021 A 
ATOM     14  C   UNL d   1       0.706  -0.543   0.000  0.00  0.00     0.003 A 
ATOM     15  C   UNL d   1       1.420  -0.956   0.000  0.00  0.00     0.021 A 
ENDBRANCH   8  10
ENDBRANCH   7   8
ENDBRANCH   2   7
BRANCH   1  16
ATOM     16  N   UNL d   1       5.716  -3.424   0.000  0.00  0.00    -0.301 N 
ATOM     17  C   UNL d   1       5.716  -4.250   0.000  0.00  0.00     0.100 C 
ATOM     18  C   UNL d   1       6.430  -3.010   0.000  0.00  0.00     0.100 C 
ENDBRANCH   1  16
TORSDOF 4
