REMARK  5 active torsions:
REMARK  status: ('A' for Active; 'I' for Inactive)
REMARK    1  A    between atoms: C_2  and  C_3 
REMARK    2  A    between atoms: N_4  and  C_2 
REMARK    3  A    between atoms: C_10  and  N_4 
REMARK    4  A    between atoms: O_16  and  C_11 
REMARK    5  A    between atoms: C_19  and  O_16 
ROOT
ATOM      1  C   UNL d   1       2.491   0.075   0.000  0.00  0.00     0.153 C 
ATOM      2  S   UNL d   1       3.204   0.496   0.000  0.00  0.00    -0.056 SA
ENDROOT
BRANCH   1   3
ATOM      3  C   UNL d   1       1.777   0.488   0.000  0.00  0.00     0.109 A 
ATOM      4  N   UNL d   1       1.056   0.075   0.000  0.00  0.00    -0.243 NA
ATOM      5  C   UNL d   1       0.342   0.488   0.000  0.00  0.00     0.081 A 
ATOM      6  C   UNL d   1       0.342   1.314   0.000  0.00  0.00     0.018 A 
ATOM      7  C   UNL d   1      -0.371   0.075   0.000  0.00  0.00     0.019 A 
ATOM      8  C   UNL d   1       1.056   1.736   0.000  0.00  0.00     0.003 A 
ATOM      9  C   UNL d   1      -0.371   1.727   0.000  0.00  0.00     0.002 A 
ATOM     10  C   UNL d   1       1.777   1.323   0.000  0.00  0.00     0.021 A 
ATOM     11  C   UNL d   1      -1.085   1.314   0.000  0.00  0.00     0.000 A 
ATOM     12  C   UNL d   1      -1.085   0.488   0.000  0.00  0.00     0.002 A 
ENDBRANCH   1   3
BRANCH   1  13
ATOM     13  N   UNL d   1       2.491  -0.751   0.000  0.00  0.00    -0.233 NA
BRANCH  13  14
ATOM     14  C   UNL d   1       3.209  -1.164   0.000  0.00  0.00     0.083 A 
ATOM     15  C   UNL d   1       3.204  -1.990   0.000  0.00  0.00     0.021 A 
ATOM     16  C   UNL d   1       3.922  -2.395   0.000  0.00  0.00     0.026 A 
ATOM     17  C   UNL d   1       4.636  -1.982   0.000  0.00  0.00     0.100 A 
ATOM     18  C   UNL d   1       4.631  -1.152   0.000  0.00  0.00     0.026 A 
ATOM     19  C   UNL d   1       3.918  -0.743   0.000  0.00  0.00     0.021 A 
BRANCH  17  20
ATOM     20  O   UNL d   1       5.357  -2.395   0.000  0.00  0.00    -0.305 OA
BRANCH  20  21
ATOM     21  C   UNL d   1       5.357  -3.221   0.000  0.00  0.00     0.123 C 
ATOM     22  C   UNL d   1       6.071  -3.630   0.000  0.00  0.00     0.029 C 
ENDBRANCH  20  21
ENDBRANCH  17  20
ENDBRANCH  13  14
ENDBRANCH   1  13
TORSDOF 5
