REMARK  3 active torsions:
REMARK  status: ('A' for Active; 'I' for Inactive)
REMARK    1  A    between atoms: C_4  and  C_1 
REMARK    2  A    between atoms: N_7  and  C_4 
REMARK    3  A    between atoms: C_9  and  N_7 
ROOT
ATOM      1  C   UNL d   1       2.883   1.703   0.000  0.00  0.00     0.171 C 
ATOM      2  S   UNL d   1       3.303   2.426   0.000  0.00  0.00    -0.054 SA
ENDROOT
BRANCH   1   3
ATOM      3  C   UNL d   1       2.061   1.703   0.000  0.00  0.00     0.191 A 
ATOM      4  N   UNL d   1       1.575   2.376   0.000  0.00  0.00    -0.223 NA
ATOM      5  C   UNL d   1       0.789   2.119   0.000  0.00  0.00     0.101 A 
ATOM      6  C   UNL d   1       0.075   2.538   0.000  0.00  0.00     0.021 A 
ATOM      7  C   UNL d   1       0.789   1.292   0.000  0.00  0.00     0.101 A 
ATOM      8  C   UNL d   1      -0.636   2.119   0.000  0.00  0.00     0.002 A 
ATOM      9  C   UNL d   1      -0.636   1.292   0.000  0.00  0.00     0.002 A 
ATOM     10  C   UNL d   1       0.075   0.881   0.000  0.00  0.00     0.021 A 
ATOM     11  N   UNL d   1       1.575   1.043   0.000  0.00  0.00    -0.223 NA
ENDBRANCH   1   3
BRANCH   1  12
ATOM     12  N   UNL d   1       3.303   0.993   0.000  0.00  0.00    -0.232 NA
BRANCH  12  13
ATOM     13  C   UNL d   1       4.129   0.993   0.000  0.00  0.00     0.082 A 
ATOM     14  C   UNL d   1       4.540   0.274   0.000  0.00  0.00     0.019 A 
ATOM     15  C   UNL d   1       5.363   0.274   0.000  0.00  0.00     0.002 A 
ATOM     16  C   UNL d   1       5.783   0.993   0.000  0.00  0.00     0.000 A 
ATOM     17  C   UNL d   1       5.363   1.707   0.000  0.00  0.00     0.002 A 
ATOM     18  C   UNL d   1       6.605   0.993   0.000  0.00  0.00     0.000 C 
ATOM     19  C   UNL d   1       4.540   1.703   0.000  0.00  0.00     0.019 A 
ENDBRANCH  12  13
ENDBRANCH   1  12
TORSDOF 3
