REMARK  3 active torsions:
REMARK  status: ('A' for Active; 'I' for Inactive)
REMARK    1  A    between atoms: C_4  and  C_1 
REMARK    2  A    between atoms: N_7  and  C_4 
REMARK    3  A    between atoms: C_9  and  N_7 
ROOT
ATOM      1  C   UNL d   1       2.790  -0.647   0.000  0.00  0.00     0.171 C 
ATOM      2  S   UNL d   1       3.200   0.070   0.000  0.00  0.00    -0.054 SA
ENDROOT
BRANCH   1   3
ATOM      3  C   UNL d   1       1.965  -0.647   0.000  0.00  0.00     0.191 A 
ATOM      4  N   UNL d   1       1.484   0.025   0.000  0.00  0.00    -0.223 NA
ATOM      5  C   UNL d   1       0.696  -0.228   0.000  0.00  0.00     0.101 A 
ATOM      6  C   UNL d   1      -0.021   0.182   0.000  0.00  0.00     0.021 A 
ATOM      7  C   UNL d   1       0.696  -1.057   0.000  0.00  0.00     0.101 A 
ATOM      8  C   UNL d   1      -0.730  -0.228   0.000  0.00  0.00     0.002 A 
ATOM      9  C   UNL d   1      -0.730  -1.057   0.000  0.00  0.00     0.002 A 
ATOM     10  C   UNL d   1      -0.021  -1.468   0.000  0.00  0.00     0.021 A 
ATOM     11  N   UNL d   1       1.484  -1.310   0.000  0.00  0.00    -0.223 NA
ENDBRANCH   1   3
BRANCH   1  12
ATOM     12  N   UNL d   1       3.200  -1.360   0.000  0.00  0.00    -0.232 NA
BRANCH  12  13
ATOM     13  C   UNL d   1       4.029  -1.360   0.000  0.00  0.00     0.083 A 
ATOM     14  C   UNL d   1       4.440  -0.647   0.000  0.00  0.00     0.020 A 
ATOM     15  C   UNL d   1       5.261  -0.638   0.000  0.00  0.00     0.013 A 
ATOM     16  C   UNL d   1       5.675  -1.360   0.000  0.00  0.00     0.058 A 
ATOM     17  C   UNL d   1       5.265  -2.077   0.000  0.00  0.00     0.013 A 
ATOM     18 CL   UNL d   1       6.496  -1.360   0.000  0.00  0.00    -0.082 Cl
ATOM     19  C   UNL d   1       4.440  -2.069   0.000  0.00  0.00     0.020 A 
ENDBRANCH  12  13
ENDBRANCH   1  12
TORSDOF 3
