REMARK  4 active torsions:
REMARK  status: ('A' for Active; 'I' for Inactive)
REMARK    1  A    between atoms: C_2  and  C_3 
REMARK    2  A    between atoms: N_4  and  C_2 
REMARK    3  A    between atoms: C_12  and  N_4 
REMARK    4  A    between atoms: N_8  and  C_7 
ROOT
ATOM      1  C   UNL d   1       2.492  -0.129   0.000  0.00  0.00     0.153 C 
ATOM      2  S   UNL d   1       3.204   0.287   0.000  0.00  0.00    -0.056 SA
ENDROOT
BRANCH   1   3
ATOM      3  C   UNL d   1       1.779   0.283   0.000  0.00  0.00     0.109 A 
ATOM      4  N   UNL d   1       1.062  -0.129   0.000  0.00  0.00    -0.243 NA
ATOM      5  C   UNL d   1       0.350   0.283   0.000  0.00  0.00     0.081 A 
ATOM      6  C   UNL d   1       0.350   1.108   0.000  0.00  0.00     0.018 A 
ATOM      7  C   UNL d   1      -0.371  -0.129   0.000  0.00  0.00     0.019 A 
ATOM      8  C   UNL d   1       1.062   1.525   0.000  0.00  0.00     0.003 A 
ATOM      9  C   UNL d   1      -0.371   1.521   0.000  0.00  0.00     0.002 A 
ATOM     10  C   UNL d   1       1.779   1.113   0.000  0.00  0.00     0.021 A 
ATOM     11  C   UNL d   1      -1.083   1.108   0.000  0.00  0.00     0.000 A 
ATOM     12  C   UNL d   1      -1.083   0.283   0.000  0.00  0.00     0.002 A 
ENDBRANCH   1   3
BRANCH   1  13
ATOM     13  N   UNL d   1       2.492  -0.954   0.000  0.00  0.00    -0.233 NA
BRANCH  13  14
ATOM     14  C   UNL d   1       3.204  -1.363   0.000  0.00  0.00     0.083 A 
ATOM     15  C   UNL d   1       3.917  -0.942   0.000  0.00  0.00     0.021 A 
ATOM     16  C   UNL d   1       4.629  -1.354   0.000  0.00  0.00     0.019 A 
ATOM     17  C   UNL d   1       4.629  -2.188   0.000  0.00  0.00     0.064 A 
ATOM     18  C   UNL d   1       3.917  -2.600   0.000  0.00  0.00     0.019 A 
ATOM     19  C   UNL d   1       3.204  -2.188   0.000  0.00  0.00     0.021 A 
BRANCH  17  20
ATOM     20  N   UNL d   1       5.354  -2.600   0.000  0.00  0.00    -0.301 N 
ATOM     21  C   UNL d   1       5.354  -3.417   0.000  0.00  0.00     0.100 C 
ATOM     22  C   UNL d   1       6.062  -2.188   0.000  0.00  0.00     0.100 C 
ENDBRANCH  17  20
ENDBRANCH  13  14
ENDBRANCH   1  13
TORSDOF 4
