REMARK  1 active torsions:
REMARK  status: ('A' for Active; 'I' for Inactive)
REMARK    1  A    between atoms: C_7  and  C_4 
ROOT
ATOM      1  N   UNL d   1       1.545  -0.401   0.000  0.00  0.00    -0.211 NA
ATOM      2  C   UNL d   1       0.831   0.013   0.000  0.00  0.00     0.140 A 
ATOM      3  C   UNL d   1       0.117  -0.401   0.000  0.00  0.00     0.051 A 
ATOM      4  C   UNL d   1       1.545  -1.232   0.000  0.00  0.00     0.183 A 
ATOM      5  C   UNL d   1       0.117  -1.232   0.000  0.00  0.00     0.104 A 
ATOM      6  O   UNL d   1       0.831  -1.645   0.000  0.00  0.00    -0.289 OA
ATOM      7  S   UNL d   1       0.827   0.839   0.000  0.00  0.00    -0.057 SA
ATOM      8  C   UNL d   1      -0.597   0.008   0.000  0.00  0.00     0.004 A 
ATOM      9  C   UNL d   1      -0.589  -1.633   0.000  0.00  0.00     0.025 A 
ATOM     10  C   UNL d   1      -1.298  -0.401   0.000  0.00  0.00     0.000 A 
ATOM     11  C   UNL d   1      -1.303  -1.219   0.000  0.00  0.00     0.002 A 
ENDROOT
BRANCH   4  12
ATOM     12  C   UNL d   1       2.259  -1.645   0.000  0.00  0.00     0.041 A 
ATOM     13  C   UNL d   1       2.973  -1.228   0.000  0.00  0.00     0.004 A 
ATOM     14  C   UNL d   1       3.687  -1.633   0.000  0.00  0.00     0.007 A 
ATOM     15  C   UNL d   1       3.695  -2.468   0.000  0.00  0.00     0.035 A 
ATOM     16  C   UNL d   1       2.981  -2.881   0.000  0.00  0.00     0.007 A 
ATOM     17 BR   UNL d   1       4.413  -2.881   0.000  0.00  0.00    -0.049 Br
ATOM     18  C   UNL d   1       2.259  -2.472   0.000  0.00  0.00     0.004 A 
ENDBRANCH   4  12
TORSDOF 1
