REMARK  3 active torsions:
REMARK  status: ('A' for Active; 'I' for Inactive)
REMARK    1  A    between atoms: N_2  and  C_1 
REMARK    2  A    between atoms: N_3  and  C_1 
REMARK       I    between atoms: C_4  and  N_3 
REMARK    3  A    between atoms: C_7  and  C_4 
ROOT
ATOM      1  C   UNL d   1       0.746   0.046   0.000  0.00  0.00     0.209 C 
ATOM      2  S   UNL d   1       0.302   0.750   0.000  0.00  0.00    -0.038 SA
ENDROOT
BRANCH   1   3
ATOM      3  N   UNL d   1       0.369  -0.683   0.000  0.00  0.00    -0.282 N 
ATOM      4  C   UNL d   1      -0.461  -0.717   0.000  0.00  0.00     0.066 A 
ATOM      5  C   UNL d   1      -0.838  -1.446   0.000  0.00  0.00     0.016 A 
ATOM      6  C   UNL d   1      -0.905  -0.029   0.000  0.00  0.00     0.018 A 
ATOM      7  C   UNL d   1      -1.656  -1.488   0.000  0.00  0.00     0.001 A 
ATOM      8  C   UNL d   1      -0.398  -2.142   0.000  0.00  0.00     0.003 A 
ATOM      9  C   UNL d   1      -2.100  -0.797   0.000  0.00  0.00     0.000 A 
ATOM     10  C   UNL d   1      -1.731  -0.067   0.000  0.00  0.00     0.002 A 
ATOM     11  C   UNL d   1       0.428  -2.104   0.000  0.00  0.00     0.019 A 
ATOM     12  C   UNL d   1       0.809  -1.375   0.000  0.00  0.00     0.082 A 
ENDBRANCH   1   3
BRANCH   1  13
ATOM     13  N   UNL d   1       1.576   0.084   0.000  0.00  0.00    -0.180 NA
ATOM     14  C   UNL d   1       2.017  -0.621   0.000  0.00  0.00     0.281 C 
ATOM     15  O   UNL d   1       1.639  -1.350   0.000  0.00  0.00    -0.265 OA
BRANCH  14  16
ATOM     16  C   UNL d   1       2.855  -0.583   0.000  0.00  0.00     0.058 A 
ATOM     17  C   UNL d   1       3.295  -1.287   0.000  0.00  0.00     0.005 A 
ATOM     18  C   UNL d   1       4.125  -1.249   0.000  0.00  0.00     0.007 A 
ATOM     19  C   UNL d   1       4.507  -0.516   0.000  0.00  0.00     0.035 A 
ATOM     20  C   UNL d   1       4.054   0.189   0.000  0.00  0.00     0.007 A 
ATOM     21 BR   UNL d   1       5.337  -0.478   0.000  0.00  0.00    -0.049 Br
ATOM     22  C   UNL d   1       3.232   0.151   0.000  0.00  0.00     0.005 A 
ENDBRANCH  14  16
ENDBRANCH   1  13
TORSDOF 3
