REMARK  3 active torsions:
REMARK  status: ('A' for Active; 'I' for Inactive)
REMARK    1  A    between atoms: C_9  and  S_1 
REMARK    2  A    between atoms: S_2  and  C_8 
REMARK    3  A    between atoms: N_14  and  C_5 
ROOT
ATOM      1  C   UNL d   1      -0.685  -0.066   0.000  0.00  0.00     0.021 A 
ATOM      2  C   UNL d   1       0.632  -0.382   0.000  0.00  0.00     0.021 A 
ATOM      3  C   UNL d   1      -0.158  -0.672   0.000  0.00  0.00     0.111 A 
ATOM      4  C   UNL d   1       0.560   0.435   0.000  0.00  0.00     0.002 A 
ATOM      5  C   UNL d   1      -0.231   0.665   0.000  0.00  0.00     0.002 A 
ATOM      6  C   UNL d   1       2.055  -0.316   0.000  0.00  0.00     0.107 A 
ATOM      7  C   UNL d   1      -1.871   0.725   0.000  0.00  0.00     0.107 A 
ATOM      8  C   UNL d   1       1.350  -0.758   0.000  0.00  0.00     0.015 A 
ATOM      9  C   UNL d   1      -1.495  -0.040   0.000  0.00  0.00     0.015 A 
ATOM     10  C   UNL d   1      -0.606   1.383   0.000  0.00  0.00     0.001 A 
ATOM     11  C   UNL d   1       1.291   0.883   0.000  0.00  0.00     0.001 A 
ATOM     12  C   UNL d   1      -1.423   1.423   0.000  0.00  0.00     0.013 A 
ATOM     13  C   UNL d   1       2.002   0.507   0.000  0.00  0.00     0.013 A 
ENDROOT
BRANCH   6  14
ATOM     14  S   UNL d   1       2.793  -0.731   0.000  0.00  0.00     0.302 S 
ATOM     15  O   UNL d   1       3.188   0.000   0.000  0.00  0.00    -0.197 OA
ATOM     16  O   UNL d   1       2.398  -1.489   0.000  0.00  0.00    -0.197 OA
ATOM     17  N   UNL d   1       3.537  -1.146   0.000  0.00  0.00    -0.043 N 
ENDBRANCH   6  14
BRANCH   3  18
ATOM     18  N   UNL d   1      -0.448  -1.489   0.000  0.00  0.00    -0.096 NA
ATOM     19  O   UNL d   1      -1.265  -1.647   0.000  0.00  0.00    -0.061 OA
ENDBRANCH   3  18
BRANCH   7  20
ATOM     20  S   UNL d   1      -2.740   0.725   0.000  0.00  0.00     0.302 S 
ATOM     21  O   UNL d   1      -2.688   1.581   0.000  0.00  0.00    -0.197 OA
ATOM     22  O   UNL d   1      -2.740  -0.125   0.000  0.00  0.00    -0.197 OA
ATOM     23  N   UNL d   1      -3.550   0.751   0.000  0.00  0.00    -0.043 N 
ENDBRANCH   7  20
TORSDOF 3
