REMARK  3 active torsions:
REMARK  status: ('A' for Active; 'I' for Inactive)
REMARK    1  A    between atoms: N_6  and  C_1 
REMARK    2  A    between atoms: C_14  and  N_4 
REMARK    3  A    between atoms: C_9  and  N_6 
ROOT
ATOM      1  C   UNL d   1       0.757   0.627   0.000  0.00  0.00     0.157 A 
ATOM      2  C   UNL d   1       0.406  -0.117   0.000  0.00  0.00     0.298 A 
ATOM      3  N   UNL d   1       1.735  -0.268   0.000  0.00  0.00    -0.238 N 
ATOM      4  N   UNL d   1       1.020  -0.677   0.000  0.00  0.00    -0.209 N 
ATOM      5  C   UNL d   1       1.572   0.548   0.000  0.00  0.00     0.104 A 
ATOM      6  O   UNL d   1      -0.401  -0.288   0.000  0.00  0.00    -0.263 OA
ATOM      7  C   UNL d   1       2.488  -0.615   0.000  0.00  0.00     0.120 C 
ATOM      8  C   UNL d   1       2.124   1.154   0.000  0.00  0.00     0.022 C 
ENDROOT
BRANCH   1   9
ATOM      9  N   UNL d   1       0.343   1.351   0.000  0.00  0.00    -0.239 NA
BRANCH   9  10
ATOM     10  C   UNL d   1      -0.485   1.355   0.000  0.00  0.00     0.082 A 
ATOM     11  C   UNL d   1      -0.899   2.078   0.000  0.00  0.00     0.022 A 
ATOM     12  C   UNL d   1      -1.714   2.078   0.000  0.00  0.00     0.041 A 
ATOM     13  C   UNL d   1      -2.128   2.797   0.000  0.00  0.00     0.003 C 
ATOM     14  C   UNL d   1      -2.141   1.363   0.000  0.00  0.00     0.196 A 
ATOM     15  C   UNL d   1      -1.727   0.648   0.000  0.00  0.00     0.041 A 
ATOM     16  O   UNL d   1      -2.969   1.367   0.000  0.00  0.00    -0.287 OA
ATOM     17  C   UNL d   1      -0.903   0.648   0.000  0.00  0.00     0.022 A 
ATOM     18  C   UNL d   1      -2.153  -0.054   0.000  0.00  0.00     0.003 C 
ENDBRANCH   9  10
ENDBRANCH   1   9
BRANCH   4  19
ATOM     19  C   UNL d   1       0.928  -1.497   0.000  0.00  0.00     0.085 A 
ATOM     20  C   UNL d   1       1.585  -1.986   0.000  0.00  0.00     0.019 A 
ATOM     21  C   UNL d   1       1.497  -2.810   0.000  0.00  0.00     0.002 A 
ATOM     22  C   UNL d   1       0.740  -3.140   0.000  0.00  0.00     0.000 A 
ATOM     23  C   UNL d   1       0.080  -2.651   0.000  0.00  0.00     0.002 A 
ATOM     24  C   UNL d   1       0.167  -1.823   0.000  0.00  0.00     0.019 A 
ENDBRANCH   4  19
TORSDOF 3
