REMARK  11 active torsions:
REMARK  status: ('A' for Active; 'I' for Inactive)
REMARK    1  A    between atoms: C_8  and  S_1 
REMARK    2  A    between atoms: N_19  and  S_1 
REMARK    3  A    between atoms: S_2  and  C_9 
REMARK    4  A    between atoms: N_20  and  S_2 
REMARK    5  A    between atoms: N_14  and  C_5 
REMARK    6  A    between atoms: C_24  and  N_19 
REMARK    7  A    between atoms: C_25  and  N_20 
REMARK    8  A    between atoms: C_29  and  C_24 
REMARK    9  A    between atoms: C_28  and  C_25 
REMARK   10  A    between atoms: O_26  and  C_29 
REMARK   11  A    between atoms: O_27  and  C_28 
ROOT
ATOM      1  C   UNL d   1       3.750  -3.437   0.000  0.00  0.00     0.021 A 
ATOM      2  C   UNL d   1       5.003  -3.458   0.000  0.00  0.00     0.021 A 
ATOM      3  C   UNL d   1       4.414  -3.921   0.000  0.00  0.00     0.111 A 
ATOM      4  C   UNL d   1       4.000  -2.647   0.000  0.00  0.00     0.002 A 
ATOM      5  C   UNL d   1       4.827  -2.647   0.000  0.00  0.00     0.002 A 
ATOM      6  C   UNL d   1       2.397  -2.998   0.000  0.00  0.00     0.105 A 
ATOM      7  C   UNL d   1       6.393  -3.161   0.000  0.00  0.00     0.105 A 
ATOM      8  C   UNL d   1       5.788  -3.712   0.000  0.00  0.00     0.015 A 
ATOM      9  C   UNL d   1       2.948  -3.608   0.000  0.00  0.00     0.015 A 
ATOM     10  C   UNL d   1       5.441  -2.096   0.000  0.00  0.00     0.001 A 
ATOM     11  C   UNL d   1       3.449  -2.034   0.000  0.00  0.00     0.001 A 
ATOM     12  C   UNL d   1       6.226  -2.347   0.000  0.00  0.00     0.013 A 
ATOM     13  C   UNL d   1       2.647  -2.222   0.000  0.00  0.00     0.013 A 
ENDROOT
BRANCH   6  14
ATOM     14  S   UNL d   1       1.570  -2.998   0.000  0.00  0.00     0.285 S 
ATOM     15  O   UNL d   1       1.566  -2.171   0.000  0.00  0.00    -0.198 OA
ATOM     16  O   UNL d   1       1.583  -3.821   0.000  0.00  0.00    -0.198 OA
BRANCH  14  17
ATOM     17  N   UNL d   1       0.852  -2.593   0.000  0.00  0.00    -0.155 NA
BRANCH  17  18
ATOM     18  C   UNL d   1       0.142  -3.011   0.000  0.00  0.00     0.138 C 
BRANCH  18  19
ATOM     19  C   UNL d   1      -0.585  -2.610   0.000  0.00  0.00     0.138 C 
BRANCH  19  20
ATOM     20  O   UNL d   1      -1.290  -3.023   0.000  0.00  0.00    -0.325 OA
ATOM     21  C   UNL d   1      -2.013  -2.622   0.000  0.00  0.00     0.182 C 
ENDBRANCH  19  20
ENDBRANCH  18  19
ENDBRANCH  17  18
ENDBRANCH  14  17
ENDBRANCH   6  14
BRANCH   3  22
ATOM     22  N   UNL d   1       4.414  -4.748   0.000  0.00  0.00    -0.096 NA
ATOM     23  O   UNL d   1       3.687  -5.153   0.000  0.00  0.00    -0.061 OA
ENDBRANCH   3  22
BRANCH   7  24
ATOM     24  S   UNL d   1       7.220  -3.161   0.000  0.00  0.00     0.285 S 
ATOM     25  O   UNL d   1       7.220  -2.334   0.000  0.00  0.00    -0.198 OA
ATOM     26  O   UNL d   1       7.220  -3.988   0.000  0.00  0.00    -0.198 OA
BRANCH  24  27
ATOM     27  N   UNL d   1       7.934  -3.575   0.000  0.00  0.00    -0.155 NA
BRANCH  27  28
ATOM     28  C   UNL d   1       8.648  -3.161   0.000  0.00  0.00     0.138 C 
BRANCH  28  29
ATOM     29  C   UNL d   1       9.362  -3.575   0.000  0.00  0.00     0.138 C 
BRANCH  29  30
ATOM     30  O   UNL d   1      10.085  -3.161   0.000  0.00  0.00    -0.325 OA
ATOM     31  C   UNL d   1      10.790  -3.575   0.000  0.00  0.00     0.182 C 
ENDBRANCH  29  30
ENDBRANCH  28  29
ENDBRANCH  27  28
ENDBRANCH  24  27
ENDBRANCH   7  24
TORSDOF 11
