REMARK  7 active torsions:
REMARK  status: ('A' for Active; 'I' for Inactive)
REMARK    1  A    between atoms: C_2  and  S_1 
REMARK    2  A    between atoms: N_3  and  S_1 
REMARK    3  A    between atoms: C_18  and  N_3 
REMARK    4  A    between atoms: C_6  and  C_21 
REMARK       I    between atoms: N_7  and  C_6 
REMARK    5  A    between atoms: C_12  and  N_7 
REMARK    6  A    between atoms: C_22  and  C_18 
REMARK    7  A    between atoms: C_21  and  C_22 
ROOT
ATOM      1  N   UNL d   1      -1.048   0.329   0.000  0.00  0.00    -0.228 N 
ATOM      2  C   UNL d   1      -1.048   1.143   0.000  0.00  0.00     0.111 C 
ENDROOT
BRANCH   1   3
ATOM      3  S   UNL d   1      -1.758  -0.087   0.000  0.00  0.00     0.271 S 
ATOM      4  O   UNL d   1      -2.151   0.615   0.000  0.00  0.00    -0.200 OA
ATOM      5  O   UNL d   1      -1.353  -0.814   0.000  0.00  0.00    -0.200 OA
BRANCH   3   6
ATOM      6  C   UNL d   1      -2.465  -0.492   0.000  0.00  0.00     0.104 A 
ATOM      7  C   UNL d   1      -3.175  -0.083   0.000  0.00  0.00     0.013 A 
ATOM      8  C   UNL d   1      -3.901  -0.488   0.000  0.00  0.00     0.001 A 
ATOM      9  C   UNL d   1      -3.905  -1.310   0.000  0.00  0.00     0.000 A 
ATOM     10  C   UNL d   1      -3.199  -1.730   0.000  0.00  0.00     0.001 A 
ATOM     11  C   UNL d   1      -4.615  -1.714   0.000  0.00  0.00     0.000 C 
ATOM     12  C   UNL d   1      -2.476  -1.326   0.000  0.00  0.00     0.013 A 
ENDBRANCH   3   6
ENDBRANCH   1   3
BRANCH   1  13
ATOM     13  C   UNL d   1      -0.333  -0.087   0.000  0.00  0.00     0.092 C 
BRANCH  13  14
ATOM     14  C   UNL d   1       0.381   0.329   0.000  0.00  0.00     0.025 C 
BRANCH  14  15
ATOM     15  C   UNL d   1       1.095  -0.083   0.000  0.00  0.00     0.064 C 
BRANCH  15  16
ATOM     16  C   UNL d   1       1.810   0.329   0.000  0.00  0.00     0.279 C 
ATOM     17  N   UNL d   1       2.528  -0.083   0.000  0.00  0.00    -0.208 NA
ATOM     18  O   UNL d   1       1.810   1.155   0.000  0.00  0.00    -0.265 OA
BRANCH  17  19
ATOM     19  C   UNL d   1       3.242   0.329   0.000  0.00  0.00     0.088 A 
ATOM     20  C   UNL d   1       3.242   1.151   0.000  0.00  0.00     0.040 A 
ATOM     21  C   UNL d   1       3.953   1.568   0.000  0.00  0.00     0.101 A 
ATOM     22  N   UNL d   1       4.671   1.155   0.000  0.00  0.00    -0.242 NA
ATOM     23  C   UNL d   1       4.671   0.329   0.000  0.00  0.00     0.101 A 
ATOM     24  C   UNL d   1       3.957  -0.083   0.000  0.00  0.00     0.040 A 
ENDBRANCH  17  19
ENDBRANCH  15  16
ENDBRANCH  14  15
ENDBRANCH  13  14
ENDBRANCH   1  13
TORSDOF 7
