REMARK  4 active torsions:
REMARK  status: ('A' for Active; 'I' for Inactive)
REMARK    1  A    between atoms: S_2  and  C_1 
REMARK    2  A    between atoms: C_10  and  S_2 
REMARK    3  A    between atoms: N_7  and  C_4 
REMARK    4  A    between atoms: C_8  and  N_7 
ROOT
ATOM      1  C   UNL d   1       4.379  -0.617   0.000  0.00  0.00     0.187 A 
ATOM      2  N   UNL d   1       3.825  -0.004   0.000  0.00  0.00    -0.208 NA
ATOM      3  C   UNL d   1       3.079  -0.338   0.000  0.00  0.00     0.198 A 
ATOM      4  C   UNL d   1       3.967  -1.329   0.000  0.00  0.00     0.118 A 
ATOM      5  S   UNL d   1       3.163  -1.154   0.000  0.00  0.00    -0.035 SA
ATOM      6 CL   UNL d   1       4.304  -2.100   0.000  0.00  0.00    -0.073 Cl
ENDROOT
BRANCH   1   7
ATOM      7  S   UNL d   1       5.204  -0.617   0.000  0.00  0.00     0.228 S 
ATOM      8  O   UNL d   1       5.204   0.208   0.000  0.00  0.00    -0.216 OA
ATOM      9  O   UNL d   1       5.204  -1.442   0.000  0.00  0.00    -0.216 OA
BRANCH   7  10
ATOM     10  C   UNL d   1       6.029  -0.617   0.000  0.00  0.00     0.089 A 
ATOM     11  C   UNL d   1       6.442  -1.337   0.000  0.00  0.00     0.011 A 
ATOM     12  C   UNL d   1       7.275  -1.337   0.000  0.00  0.00     0.001 A 
ATOM     13  C   UNL d   1       7.688  -0.617   0.000  0.00  0.00     0.000 A 
ATOM     14  C   UNL d   1       7.275   0.096   0.000  0.00  0.00     0.001 A 
ATOM     15  C   UNL d   1       8.512  -0.617   0.000  0.00  0.00     0.000 C 
ATOM     16  C   UNL d   1       6.442   0.096   0.000  0.00  0.00     0.011 A 
ENDBRANCH   7  10
ENDBRANCH   1   7
BRANCH   3  17
ATOM     17  N   UNL d   1       2.367   0.087   0.000  0.00  0.00    -0.196 NA
BRANCH  17  18
ATOM     18  C   UNL d   1       1.650  -0.317   0.000  0.00  0.00     0.196 A 
ATOM     19  N   UNL d   1       0.867  -0.054   0.000  0.00  0.00    -0.219 NA
ATOM     20  C   UNL d   1       0.379  -0.717   0.000  0.00  0.00     0.108 A 
ATOM     21  C   UNL d   1       0.854  -1.387   0.000  0.00  0.00     0.059 A 
ATOM     22  S   UNL d   1       1.637  -1.142   0.000  0.00  0.00    -0.046 SA
ENDBRANCH  17  18
ENDBRANCH   3  17
TORSDOF 4
