REMARK  5 active torsions:
REMARK  status: ('A' for Active; 'I' for Inactive)
REMARK    1  A    between atoms: N_8  and  S_1 
REMARK    2  A    between atoms: C_11  and  S_1 
REMARK    3  A    between atoms: S_2  and  C_10 
REMARK    4  A    between atoms: N_9  and  S_2 
REMARK    5  A    between atoms: N_20  and  C_5 
ROOT
ATOM      1  C   UNL d   1      -0.684  -0.102   0.000  0.00  0.00     0.021 A 
ATOM      2  C   UNL d   1       0.645  -0.136   0.000  0.00  0.00     0.021 A 
ATOM      3  C   UNL d   1      -0.024  -0.616   0.000  0.00  0.00     0.111 A 
ATOM      4  C   UNL d   1       0.393   0.650   0.000  0.00  0.00     0.002 A 
ATOM      5  C   UNL d   1      -0.432   0.650   0.000  0.00  0.00     0.002 A 
ATOM      6  C   UNL d   1       2.014   0.286   0.000  0.00  0.00     0.104 A 
ATOM      7  C   UNL d   1      -2.048   0.330   0.000  0.00  0.00     0.104 A 
ATOM      8  C   UNL d   1       1.446  -0.311   0.000  0.00  0.00     0.015 A 
ATOM      9  C   UNL d   1      -1.495  -0.281   0.000  0.00  0.00     0.015 A 
ATOM     10  C   UNL d   1      -0.985   1.262   0.000  0.00  0.00     0.001 A 
ATOM     11  C   UNL d   1       0.951   1.262   0.000  0.00  0.00     0.001 A 
ATOM     12  C   UNL d   1      -1.786   1.073   0.000  0.00  0.00     0.013 A 
ATOM     13  C   UNL d   1       1.733   1.073   0.000  0.00  0.00     0.013 A 
ENDROOT
BRANCH   6  14
ATOM     14  S   UNL d   1       2.839   0.112   0.000  0.00  0.00     0.271 S 
ATOM     15  O   UNL d   1       2.664  -0.718   0.000  0.00  0.00    -0.200 OA
ATOM     16  O   UNL d   1       2.975   0.946   0.000  0.00  0.00    -0.200 OA
BRANCH  14  17
ATOM     17  N   UNL d   1       3.645  -0.034   0.000  0.00  0.00    -0.229 N 
ATOM     18  C   UNL d   1       4.169   0.592   0.000  0.00  0.00     0.092 A 
ATOM     19  C   UNL d   1       4.970   0.432   0.000  0.00  0.00     0.020 A 
ATOM     20  C   UNL d   1       5.256  -0.335   0.000  0.00  0.00     0.003 A 
ATOM     21  C   UNL d   1       4.722  -0.976   0.000  0.00  0.00     0.020 A 
ATOM     22  C   UNL d   1       6.076  -0.485   0.000  0.00  0.00     0.000 C 
ATOM     23  C   UNL d   1       3.907  -0.820   0.000  0.00  0.00     0.092 A 
ENDBRANCH  14  17
ENDBRANCH   6  14
BRANCH   3  24
ATOM     24  N   UNL d   1      -0.053  -1.441   0.000  0.00  0.00    -0.096 NA
ATOM     25  O   UNL d   1       0.675  -1.854   0.000  0.00  0.00    -0.061 OA
ENDBRANCH   3  24
BRANCH   7  26
ATOM     26  S   UNL d   1      -2.868   0.184   0.000  0.00  0.00     0.271 S 
ATOM     27  O   UNL d   1      -2.718  -0.645   0.000  0.00  0.00    -0.200 OA
ATOM     28  O   UNL d   1      -2.994   1.005   0.000  0.00  0.00    -0.200 OA
BRANCH  26  29
ATOM     29  N   UNL d   1      -3.693   0.024   0.000  0.00  0.00    -0.229 N 
ATOM     30  C   UNL d   1      -4.208   0.665   0.000  0.00  0.00     0.092 A 
ATOM     31  C   UNL d   1      -5.008   0.539   0.000  0.00  0.00     0.020 A 
ATOM     32  C   UNL d   1      -5.324  -0.223   0.000  0.00  0.00     0.003 A 
ATOM     33  C   UNL d   1      -4.800  -0.878   0.000  0.00  0.00     0.020 A 
ATOM     34  C   UNL d   1      -6.154  -0.335   0.000  0.00  0.00     0.000 C 
ATOM     35  C   UNL d   1      -3.984  -0.747   0.000  0.00  0.00     0.092 A 
ENDBRANCH  26  29
ENDBRANCH   7  26
TORSDOF 5
