REMARK  4 active torsions:
REMARK  status: ('A' for Active; 'I' for Inactive)
REMARK    1  A    between atoms: N_6  and  S_1 
REMARK    2  A    between atoms: C_10  and  S_1 
REMARK    3  A    between atoms: S_2  and  C_11 
REMARK    4  A    between atoms: N_7  and  S_2 
REMARK       I    between atoms: C_14  and  N_6 
REMARK       I    between atoms: C_15  and  N_7 
ROOT
ATOM      1  C   UNL d   1       0.067   0.647   0.000  0.00  0.00     0.040 A 
ATOM      2  C   UNL d   1       0.017  -0.681   0.000  0.00  0.00     0.040 A 
ATOM      3  C   UNL d   1       0.526  -0.029   0.000  0.00  0.00     0.196 A 
ATOM      4  C   UNL d   1      -0.752  -0.393   0.000  0.00  0.00     0.003 A 
ATOM      5  C   UNL d   1      -0.727   0.422   0.000  0.00  0.00     0.003 A 
ATOM      6  C   UNL d   1      -0.326   2.026   0.000  0.00  0.00     0.105 A 
ATOM      7  C   UNL d   1      -0.472  -2.009   0.000  0.00  0.00     0.105 A 
ATOM      8  C   UNL d   1       0.267   1.462   0.000  0.00  0.00     0.016 A 
ATOM      9  C   UNL d   1       0.163  -1.495   0.000  0.00  0.00     0.016 A 
ATOM     10  C   UNL d   1      -1.387  -0.919   0.000  0.00  0.00     0.001 A 
ATOM     11  C   UNL d   1      -1.324   0.998   0.000  0.00  0.00     0.001 A 
ATOM     12  O   UNL d   1       1.353  -0.067   0.000  0.00  0.00    -0.287 OA
ATOM     13  C   UNL d   1      -1.249  -1.733   0.000  0.00  0.00     0.013 A 
ATOM     14  C   UNL d   1      -1.123   1.804   0.000  0.00  0.00     0.013 A 
ENDROOT
BRANCH   6  15
ATOM     15  S   UNL d   1      -0.134   2.828   0.000  0.00  0.00     0.288 S 
ATOM     16  O   UNL d   1       0.668   2.627   0.000  0.00  0.00    -0.198 OA
ATOM     17  O   UNL d   1      -0.935   3.041   0.000  0.00  0.00    -0.198 OA
BRANCH  15  18
ATOM     18  N   UNL d   1       0.079   3.642   0.000  0.00  0.00    -0.118 NA
ATOM     19  C   UNL d   1       0.877   3.855   0.000  0.00  0.00     0.289 C 
ATOM     20  O   UNL d   1       1.466   3.266   0.000  0.00  0.00    -0.265 OA
ATOM     21  C   UNL d   1       1.090   4.640   0.000  0.00  0.00     0.068 C 
ENDBRANCH  15  18
ENDBRANCH   6  15
BRANCH   7  22
ATOM     22  S   UNL d   1      -0.326  -2.823   0.000  0.00  0.00     0.288 S 
ATOM     23  O   UNL d   1      -1.140  -2.961   0.000  0.00  0.00    -0.198 OA
ATOM     24  O   UNL d   1       0.489  -2.686   0.000  0.00  0.00    -0.198 OA
BRANCH  22  25
ATOM     25  N   UNL d   1      -0.113  -3.625   0.000  0.00  0.00    -0.118 NA
ATOM     26  C   UNL d   1       0.681  -3.838   0.000  0.00  0.00     0.289 C 
ATOM     27  O   UNL d   1       0.890  -4.640   0.000  0.00  0.00    -0.265 OA
ATOM     28  C   UNL d   1       1.266  -3.262   0.000  0.00  0.00     0.068 C 
ENDBRANCH  22  25
ENDBRANCH   7  22
TORSDOF 4
