REMARK  9 active torsions:
REMARK  status: ('A' for Active; 'I' for Inactive)
REMARK    1  A    between atoms: C_9  and  S_1 
REMARK    2  A    between atoms: N_12  and  S_1 
REMARK    3  A    between atoms: S_2  and  C_8 
REMARK    4  A    between atoms: N_13  and  S_2 
REMARK    5  A    between atoms: N_20  and  C_5 
REMARK    6  A    between atoms: C_23  and  N_12 
REMARK    7  A    between atoms: C_24  and  N_13 
REMARK    8  A    between atoms: C_31  and  C_23 
REMARK    9  A    between atoms: C_30  and  C_24 
ROOT
ATOM      1  C   UNL d   1      -0.724  -0.155   0.000  0.00  0.00     0.021 A 
ATOM      2  C   UNL d   1       0.612  -0.172   0.000  0.00  0.00     0.021 A 
ATOM      3  C   UNL d   1      -0.065  -0.651   0.000  0.00  0.00     0.111 A 
ATOM      4  C   UNL d   1       0.366   0.616   0.000  0.00  0.00     0.002 A 
ATOM      5  C   UNL d   1      -0.461   0.616   0.000  0.00  0.00     0.002 A 
ATOM      6  C   UNL d   1       1.966   0.241   0.000  0.00  0.00     0.104 A 
ATOM      7  C   UNL d   1      -2.069   0.259   0.000  0.00  0.00     0.104 A 
ATOM      8  C   UNL d   1       1.414  -0.366   0.000  0.00  0.00     0.015 A 
ATOM      9  C   UNL d   1      -1.496  -0.353   0.000  0.00  0.00     0.015 A 
ATOM     10  C   UNL d   1      -1.022   1.224   0.000  0.00  0.00     0.001 A 
ATOM     11  C   UNL d   1       0.922   1.198   0.000  0.00  0.00     0.001 A 
ATOM     12  C   UNL d   1      -1.806   1.030   0.000  0.00  0.00     0.013 A 
ATOM     13  C   UNL d   1       1.694   1.030   0.000  0.00  0.00     0.013 A 
ENDROOT
BRANCH   6  14
ATOM     14  S   UNL d   1       2.793   0.086   0.000  0.00  0.00     0.272 S 
ATOM     15  O   UNL d   1       2.953   0.914   0.000  0.00  0.00    -0.200 OA
ATOM     16  O   UNL d   1       2.655  -0.742   0.000  0.00  0.00    -0.200 OA
BRANCH  14  17
ATOM     17  N   UNL d   1       3.621  -0.043   0.000  0.00  0.00    -0.225 N 
ATOM     18  C   UNL d   1       3.931  -0.828   0.000  0.00  0.00     0.111 C 
BRANCH  17  19
ATOM     19  C   UNL d   1       4.168   0.591   0.000  0.00  0.00     0.137 C 
BRANCH  19  20
ATOM     20  C   UNL d   1       4.979   0.461   0.000  0.00  0.00     0.254 C 
ATOM     21  O   UNL d   1       5.513   1.086   0.000  0.00  0.00    -0.281 OA
ENDBRANCH  19  20
ENDBRANCH  17  19
ENDBRANCH  14  17
ENDBRANCH   6  14
BRANCH   3  22
ATOM     22  N   UNL d   1      -0.065  -1.479   0.000  0.00  0.00    -0.096 NA
ATOM     23  O   UNL d   1       0.651  -1.892   0.000  0.00  0.00    -0.061 OA
ENDBRANCH   3  22
BRANCH   7  24
ATOM     24  S   UNL d   1      -2.897   0.103   0.000  0.00  0.00     0.272 S 
ATOM     25  O   UNL d   1      -3.035   0.931   0.000  0.00  0.00    -0.200 OA
ATOM     26  O   UNL d   1      -2.755  -0.724   0.000  0.00  0.00    -0.200 OA
BRANCH  24  27
ATOM     27  N   UNL d   1      -3.733  -0.017   0.000  0.00  0.00    -0.225 N 
ATOM     28  C   UNL d   1      -4.250   0.616   0.000  0.00  0.00     0.111 C 
BRANCH  27  29
ATOM     29  C   UNL d   1      -4.018  -0.806   0.000  0.00  0.00     0.137 C 
BRANCH  29  30
ATOM     30  C   UNL d   1      -4.824  -0.935   0.000  0.00  0.00     0.254 C 
ATOM     31  O   UNL d   1      -5.130  -1.711   0.000  0.00  0.00    -0.281 OA
ENDBRANCH  29  30
ENDBRANCH  27  29
ENDBRANCH  24  27
ENDBRANCH   7  24
TORSDOF 9
