REMARK  4 active torsions:
REMARK  status: ('A' for Active; 'I' for Inactive)
REMARK    1  A    between atoms: N_2  and  S_1 
REMARK    2  A    between atoms: C_4  and  S_1 
REMARK    3  A    between atoms: C_3  and  N_2 
REMARK    4  A    between atoms: N_5  and  C_6 
REMARK       I    between atoms: C_9  and  N_5 
ROOT
ATOM      1  N   UNL d   1       0.341  -0.522   0.000  0.00  0.00    -0.157 NA
ENDROOT
BRANCH   1   2
ATOM      2  S   UNL d   1      -0.393  -0.090   0.000  0.00  0.00     0.285 S 
ATOM      3  O   UNL d   1       0.032   0.634   0.000  0.00  0.00    -0.198 OA
ATOM      4  O   UNL d   1      -0.818  -0.815   0.000  0.00  0.00    -0.198 OA
BRANCH   2   5
ATOM      5  C   UNL d   1      -1.117   0.328   0.000  0.00  0.00     0.105 A 
ATOM      6  C   UNL d   1      -1.117   1.156   0.000  0.00  0.00     0.013 A 
ATOM      7  C   UNL d   1      -1.822   1.565   0.000  0.00  0.00     0.001 A 
ATOM      8  C   UNL d   1      -2.537   1.156   0.000  0.00  0.00     0.000 A 
ATOM      9  C   UNL d   1      -2.537   0.328   0.000  0.00  0.00     0.001 A 
ATOM     10  C   UNL d   1      -3.261   1.584   0.000  0.00  0.00     0.000 C 
ATOM     11  C   UNL d   1      -1.822  -0.081   0.000  0.00  0.00     0.013 A 
ENDBRANCH   2   5
ENDBRANCH   1   2
BRANCH   1  12
ATOM     12  C   UNL d   1       1.066  -0.106   0.000  0.00  0.00     0.112 A 
ATOM     13  C   UNL d   1       1.780  -0.522   0.000  0.00  0.00     0.103 A 
ATOM     14  C   UNL d   1       2.495  -0.110   0.000  0.00  0.00     0.021 A 
ATOM     15  C   UNL d   1       2.495   0.715   0.000  0.00  0.00     0.002 A 
ATOM     16  C   UNL d   1       1.771   1.130   0.000  0.00  0.00     0.002 A 
ATOM     17  C   UNL d   1       1.066   0.731   0.000  0.00  0.00     0.021 A 
BRANCH  13  18
ATOM     18  N   UNL d   1       1.790  -1.346   0.000  0.00  0.00    -0.206 NA
ATOM     19  C   UNL d   1       1.075  -1.758   0.000  0.00  0.00     0.280 C 
ATOM     20  O   UNL d   1       0.370  -1.346   0.000  0.00  0.00    -0.265 OA
ATOM     21  C   UNL d   1       1.075  -2.582   0.000  0.00  0.00     0.068 C 
ENDBRANCH  13  18
ENDBRANCH   1  12
TORSDOF 4
