REMARK  7 active torsions:
REMARK  status: ('A' for Active; 'I' for Inactive)
REMARK    1  A    between atoms: C_2  and  S_1 
REMARK    2  A    between atoms: N_3  and  S_1 
REMARK    3  A    between atoms: C_15  and  N_3 
REMARK    4  A    between atoms: C_6  and  C_16 
REMARK       I    between atoms: N_7  and  C_6 
REMARK    5  A    between atoms: C_8  and  N_7 
REMARK    6  A    between atoms: C_17  and  C_15 
REMARK    7  A    between atoms: C_16  and  C_17 
ROOT
ATOM      1  N   UNL d   1       3.567  -0.542   0.000  0.00  0.00    -0.228 N 
ATOM      2  C   UNL d   1       3.154  -1.262   0.000  0.00  0.00     0.111 C 
ENDROOT
BRANCH   1   3
ATOM      3  S   UNL d   1       3.150   0.171   0.000  0.00  0.00     0.271 S 
ATOM      4  O   UNL d   1       3.562   0.883   0.000  0.00  0.00    -0.200 OA
ATOM      5  O   UNL d   1       2.729  -0.542   0.000  0.00  0.00    -0.200 OA
BRANCH   3   6
ATOM      6  C   UNL d   1       2.317   0.163   0.000  0.00  0.00     0.104 A 
ATOM      7  C   UNL d   1       1.913   0.883   0.000  0.00  0.00     0.013 A 
ATOM      8  C   UNL d   1       1.087   0.875   0.000  0.00  0.00     0.001 A 
ATOM      9  C   UNL d   1       0.675   0.158   0.000  0.00  0.00     0.000 A 
ATOM     10  C   UNL d   1       1.092  -0.554   0.000  0.00  0.00     0.001 A 
ATOM     11  C   UNL d   1      -0.150   0.158   0.000  0.00  0.00     0.000 C 
ATOM     12  C   UNL d   1       1.917  -0.550   0.000  0.00  0.00     0.013 A 
ENDBRANCH   3   6
ENDBRANCH   1   3
BRANCH   1  13
ATOM     13  C   UNL d   1       4.392  -0.542   0.000  0.00  0.00     0.092 C 
BRANCH  13  14
ATOM     14  C   UNL d   1       4.804  -1.254   0.000  0.00  0.00     0.025 C 
BRANCH  14  15
ATOM     15  C   UNL d   1       5.629  -1.254   0.000  0.00  0.00     0.064 C 
BRANCH  15  16
ATOM     16  C   UNL d   1       6.042  -1.967   0.000  0.00  0.00     0.275 C 
ATOM     17  N   UNL d   1       6.867  -1.967   0.000  0.00  0.00    -0.238 NA
ATOM     18  O   UNL d   1       5.638  -2.679   0.000  0.00  0.00    -0.266 OA
BRANCH  17  19
ATOM     19  C   UNL d   1       7.287  -2.679   0.000  0.00  0.00     0.088 C 
ATOM     20  C   UNL d   1       8.113  -2.675   0.000  0.00  0.00     0.025 C 
ATOM     21  C   UNL d   1       6.875  -3.392   0.000  0.00  0.00     0.025 C 
ATOM     22  C   UNL d   1       7.492  -1.879   0.000  0.00  0.00     0.025 C 
ENDBRANCH  17  19
ENDBRANCH  15  16
ENDBRANCH  14  15
ENDBRANCH  13  14
ENDBRANCH   1  13
TORSDOF 7
