REMARK  0 active torsions:
REMARK  status: ('A' for Active; 'I' for Inactive)
ROOT
ATOM      1  C   UNL d   1      -0.015  -0.268   0.000  0.00  0.00     0.138 A 
ATOM      2  C   UNL d   1      -0.015   0.557   0.000  0.00  0.00     0.102 A 
ATOM      3  N   UNL d   1       0.701  -0.681   0.000  0.00  0.00    -0.239 NA
ATOM      4  C   UNL d   1      -0.722  -0.681   0.000  0.00  0.00     0.214 A 
ATOM      5  N   UNL d   1       0.701   0.969   0.000  0.00  0.00    -0.242 NA
ATOM      6  C   UNL d   1      -1.438   0.557   0.000  0.00  0.00     0.022 A 
ATOM      7  C   UNL d   1      -1.438  -0.268   0.000  0.00  0.00     0.042 A 
ATOM      8  C   UNL d   1       1.423  -0.268   0.000  0.00  0.00     0.099 A 
ATOM      9  C   UNL d   1       1.423   0.557   0.000  0.00  0.00     0.099 A 
ATOM     10  O   UNL d   1      -0.722  -1.506   0.000  0.00  0.00    -0.285 OA
ATOM     11  C   UNL d   1      -2.145   0.969   0.000  0.00  0.00     0.002 A 
ATOM     12  C   UNL d   1      -2.145  -0.681   0.000  0.00  0.00     0.003 A 
ATOM     13  C   UNL d   1       2.124   0.954   0.000  0.00  0.00     0.021 A 
ATOM     14  C   UNL d   1       2.124  -0.686   0.000  0.00  0.00     0.021 A 
ATOM     15  C   UNL d   1      -2.846   0.557   0.000  0.00  0.00     0.000 A 
ATOM     16  C   UNL d   1      -2.846  -0.268   0.000  0.00  0.00     0.000 A 
ATOM     17  C   UNL d   1       2.867   0.557   0.000  0.00  0.00     0.002 A 
ATOM     18  C   UNL d   1       2.867  -0.268   0.000  0.00  0.00     0.002 A 
ENDROOT
TORSDOF 0
