REMARK  10 active torsions:
REMARK  status: ('A' for Active; 'I' for Inactive)
REMARK    1  A    between atoms: C_8  and  S_1 
REMARK    2  A    between atoms: N_18  and  S_1 
REMARK    3  A    between atoms: S_2  and  C_9 
REMARK    4  A    between atoms: N_19  and  S_2 
REMARK    5  A    between atoms: C_23  and  N_18 
REMARK    6  A    between atoms: C_24  and  N_19 
REMARK    7  A    between atoms: C_27  and  C_23 
REMARK    8  A    between atoms: C_28  and  C_24 
REMARK    9  A    between atoms: O_25  and  C_27 
REMARK   10  A    between atoms: O_26  and  C_28 
ROOT
ATOM      1  C   UNL d   1      -0.725  -0.178   0.000  0.00  0.00     0.040 A 
ATOM      2  C   UNL d   1       0.622  -0.227   0.000  0.00  0.00     0.040 A 
ATOM      3  C   UNL d   1      -0.069  -0.701   0.000  0.00  0.00     0.196 A 
ATOM      4  C   UNL d   1       0.355   0.557   0.000  0.00  0.00     0.003 A 
ATOM      5  C   UNL d   1      -0.473   0.577   0.000  0.00  0.00     0.003 A 
ATOM      6  C   UNL d   1      -2.082   0.276   0.000  0.00  0.00     0.105 A 
ATOM      7  C   UNL d   1       1.973   0.202   0.000  0.00  0.00     0.105 A 
ATOM      8  C   UNL d   1      -1.539  -0.345   0.000  0.00  0.00     0.016 A 
ATOM      9  C   UNL d   1       1.421  -0.414   0.000  0.00  0.00     0.016 A 
ATOM     10  C   UNL d   1       0.932   1.169   0.000  0.00  0.00     0.001 A 
ATOM     11  C   UNL d   1      -1.016   1.194   0.000  0.00  0.00     0.001 A 
ATOM     12  O   UNL d   1      -0.089  -1.529   0.000  0.00  0.00    -0.287 OA
ATOM     13  C   UNL d   1       1.736   0.987   0.000  0.00  0.00     0.013 A 
ATOM     14  C   UNL d   1      -1.815   1.031   0.000  0.00  0.00     0.013 A 
ENDROOT
BRANCH   6  15
ATOM     15  S   UNL d   1      -2.910   0.104   0.000  0.00  0.00     0.285 S 
ATOM     16  O   UNL d   1      -2.738  -0.725   0.000  0.00  0.00    -0.198 OA
ATOM     17  O   UNL d   1      -3.048   0.912   0.000  0.00  0.00    -0.198 OA
BRANCH  15  18
ATOM     18  N   UNL d   1      -3.709  -0.059   0.000  0.00  0.00    -0.155 NA
BRANCH  18  19
ATOM     19  C   UNL d   1      -3.995  -0.844   0.000  0.00  0.00     0.138 C 
BRANCH  19  20
ATOM     20  C   UNL d   1      -4.804  -1.006   0.000  0.00  0.00     0.138 C 
BRANCH  20  21
ATOM     21  O   UNL d   1      -5.071  -1.766   0.000  0.00  0.00    -0.325 OA
ATOM     22  C   UNL d   1      -5.870  -1.929   0.000  0.00  0.00     0.182 C 
ENDBRANCH  20  21
ENDBRANCH  19  20
ENDBRANCH  18  19
ENDBRANCH  15  18
ENDBRANCH   6  15
BRANCH   7  23
ATOM     23  S   UNL d   1       2.802   0.039   0.000  0.00  0.00     0.285 S 
ATOM     24  O   UNL d   1       2.634  -0.789   0.000  0.00  0.00    -0.198 OA
ATOM     25  O   UNL d   1       2.945   0.868   0.000  0.00  0.00    -0.198 OA
BRANCH  23  26
ATOM     26  N   UNL d   1       3.601  -0.109   0.000  0.00  0.00    -0.155 NA
BRANCH  26  27
ATOM     27  C   UNL d   1       4.143   0.513   0.000  0.00  0.00     0.138 C 
BRANCH  27  28
ATOM     28  C   UNL d   1       4.933   0.365   0.000  0.00  0.00     0.138 C 
BRANCH  28  29
ATOM     29  O   UNL d   1       5.475   1.006   0.000  0.00  0.00    -0.325 OA
ATOM     30  C   UNL d   1       6.274   0.888   0.000  0.00  0.00     0.182 C 
ENDBRANCH  28  29
ENDBRANCH  27  28
ENDBRANCH  26  27
ENDBRANCH  23  26
ENDBRANCH   7  23
TORSDOF 10
