REMARK  8 active torsions:
REMARK  status: ('A' for Active; 'I' for Inactive)
REMARK    1  A    between atoms: C_2  and  S_1 
REMARK    2  A    between atoms: N_6  and  S_1 
REMARK    3  A    between atoms: C_3  and  C_14 
REMARK       I    between atoms: N_7  and  C_3 
REMARK    4  A    between atoms: C_17  and  N_6 
REMARK    5  A    between atoms: C_14  and  C_19 
REMARK    6  A    between atoms: C_20  and  C_17 
REMARK    7  A    between atoms: C_19  and  C_21 
REMARK    8  A    between atoms: C_21  and  C_20 
ROOT
ATOM      1  N   UNL d   1       7.551   0.126   0.000  0.00  0.00    -0.157 NA
ENDROOT
BRANCH   1   2
ATOM      2  S   UNL d   1       6.723   0.126   0.000  0.00  0.00     0.285 S 
ATOM      3  O   UNL d   1       7.145   0.841   0.000  0.00  0.00    -0.198 OA
ATOM      4  O   UNL d   1       7.137  -0.590   0.000  0.00  0.00    -0.198 OA
BRANCH   2   5
ATOM      5  C   UNL d   1       5.894   0.126   0.000  0.00  0.00     0.105 A 
ATOM      6  C   UNL d   1       5.479   0.841   0.000  0.00  0.00     0.013 A 
ATOM      7  C   UNL d   1       4.663   0.841   0.000  0.00  0.00     0.001 A 
ATOM      8  C   UNL d   1       4.257   0.134   0.000  0.00  0.00     0.000 A 
ATOM      9  C   UNL d   1       4.663  -0.582   0.000  0.00  0.00     0.001 A 
ATOM     10  C   UNL d   1       3.428   0.138   0.000  0.00  0.00     0.000 C 
ATOM     11  C   UNL d   1       5.479  -0.582   0.000  0.00  0.00     0.013 A 
ENDBRANCH   2   5
ENDBRANCH   1   2
BRANCH   1  12
ATOM     12  C   UNL d   1       7.966  -0.590   0.000  0.00  0.00     0.112 C 
BRANCH  12  13
ATOM     13  C   UNL d   1       7.551  -1.306   0.000  0.00  0.00     0.021 C 
BRANCH  13  14
ATOM     14  C   UNL d   1       7.966  -2.026   0.000  0.00  0.00     0.002 C 
BRANCH  14  15
ATOM     15  C   UNL d   1       7.560  -2.742   0.000  0.00  0.00     0.005 C 
BRANCH  15  16
ATOM     16  C   UNL d   1       7.966  -3.458   0.000  0.00  0.00     0.061 C 
BRANCH  16  17
ATOM     17  C   UNL d   1       7.551  -4.173   0.000  0.00  0.00     0.265 C 
ATOM     18  N   UNL d   1       7.962  -4.889   0.000  0.00  0.00    -0.269 N 
ATOM     19  C   UNL d   1       7.539  -5.605   0.000  0.00  0.00     0.102 C 
ATOM     20  C   UNL d   1       8.790  -4.889   0.000  0.00  0.00     0.102 C 
ATOM     21  O   UNL d   1       6.723  -4.169   0.000  0.00  0.00    -0.267 OA
ENDBRANCH  16  17
ENDBRANCH  15  16
ENDBRANCH  14  15
ENDBRANCH  13  14
ENDBRANCH  12  13
ENDBRANCH   1  12
TORSDOF 8
