REMARK  3 active torsions:
REMARK  status: ('A' for Active; 'I' for Inactive)
REMARK    1  A    between atoms: N_6  and  C_1 
REMARK    2  A    between atoms: C_14  and  N_4 
REMARK    3  A    between atoms: C_7  and  N_6 
ROOT
ATOM      1  C   UNL d   1       0.277  -0.124   0.000  0.00  0.00     0.157 A 
ATOM      2  C   UNL d   1       1.041  -0.437   0.000  0.00  0.00     0.298 A 
ATOM      3  N   UNL d   1       1.095   0.859   0.000  0.00  0.00    -0.238 N 
ATOM      4  N   UNL d   1       1.554   0.160   0.000  0.00  0.00    -0.209 N 
ATOM      5  C   UNL d   1       0.331   0.619   0.000  0.00  0.00     0.104 A 
ATOM      6  O   UNL d   1       1.237  -1.248   0.000  0.00  0.00    -0.263 OA
ATOM      7  C   UNL d   1       1.343   1.659   0.000  0.00  0.00     0.120 C 
ATOM      8  C   UNL d   1      -0.291   1.121   0.000  0.00  0.00     0.022 C 
ENDROOT
BRANCH   1   9
ATOM      9  N   UNL d   1      -0.433  -0.538   0.000  0.00  0.00    -0.239 NA
BRANCH   9  10
ATOM     10  C   UNL d   1      -1.131  -0.135   0.000  0.00  0.00     0.082 A 
ATOM     11  C   UNL d   1      -1.874  -0.538   0.000  0.00  0.00     0.021 A 
ATOM     12  C   UNL d   1      -2.587  -0.135   0.000  0.00  0.00     0.040 A 
ATOM     13  C   UNL d   1      -1.874  -1.357   0.000  0.00  0.00     0.002 A 
ATOM     14  C   UNL d   1      -3.304  -0.538   0.000  0.00  0.00     0.003 A 
ATOM     15  C   UNL d   1      -2.587   0.684   0.000  0.00  0.00     0.196 A 
ATOM     16  C   UNL d   1      -3.285  -1.364   0.000  0.00  0.00     0.000 A 
ATOM     17  C   UNL d   1      -2.583  -1.772   0.000  0.00  0.00     0.000 A 
ATOM     18  C   UNL d   1      -1.874   1.099   0.000  0.00  0.00     0.044 A 
ATOM     19  O   UNL d   1      -3.336   1.099   0.000  0.00  0.00    -0.287 OA
ATOM     20  C   UNL d   1      -1.131   0.673   0.000  0.00  0.00     0.022 A 
ENDBRANCH   9  10
ENDBRANCH   1   9
BRANCH   4  21
ATOM     21  C   UNL d   1       2.372   0.095   0.000  0.00  0.00     0.085 A 
ATOM     22  C   UNL d   1       2.842   0.793   0.000  0.00  0.00     0.019 A 
ATOM     23  C   UNL d   1       3.671   0.739   0.000  0.00  0.00     0.002 A 
ATOM     24  C   UNL d   1       4.053   0.000   0.000  0.00  0.00     0.000 A 
ATOM     25  C   UNL d   1       3.595  -0.699   0.000  0.00  0.00     0.002 A 
ATOM     26  C   UNL d   1       2.765  -0.637   0.000  0.00  0.00     0.019 A 
ENDBRANCH   4  21
TORSDOF 3
