REMARK  5 active torsions:
REMARK  status: ('A' for Active; 'I' for Inactive)
REMARK    1  A    between atoms: N_5  and  S_1 
REMARK    2  A    between atoms: C_9  and  S_1 
REMARK    3  A    between atoms: C_2  and  N_4 
REMARK    4  A    between atoms: C_7  and  C_3 
REMARK       I    between atoms: N_4  and  C_6 
REMARK    5  A    between atoms: C_6  and  C_14 
ROOT
ATOM      1  C   UNL d   1       0.062  -0.254   0.000  0.00  0.00     0.104 A 
ATOM      2  C   UNL d   1      -1.506   0.262   0.000  0.00  0.00     0.058 A 
ATOM      3  C   UNL d   1      -0.557  -0.803   0.000  0.00  0.00     0.013 A 
ATOM      4  C   UNL d   1      -0.108   0.549   0.000  0.00  0.00     0.013 A 
ATOM      5  C   UNL d   1      -1.336  -0.541   0.000  0.00  0.00     0.005 A 
ATOM      6  C   UNL d   1      -0.886   0.811   0.000  0.00  0.00     0.005 A 
ENDROOT
BRANCH   2   7
ATOM      7  C   UNL d   1      -2.293   0.524   0.000  0.00  0.00     0.280 C 
ATOM      8  N   UNL d   1      -2.459   1.331   0.000  0.00  0.00    -0.201 NA
ATOM      9  O   UNL d   1      -2.892  -0.025   0.000  0.00  0.00    -0.265 OA
BRANCH   8  10
ATOM     10  C   UNL d   1      -3.241   1.585   0.000  0.00  0.00     0.119 A 
ATOM     11  C   UNL d   1      -3.495   2.372   0.000  0.00  0.00     0.084 A 
ATOM     12  C   UNL d   1      -4.327   2.372   0.000  0.00  0.00     0.014 A 
ATOM     13  C   UNL d   1      -4.577   1.585   0.000  0.00  0.00     0.037 A 
ATOM     14  S   UNL d   1      -3.907   1.107   0.000  0.00  0.00    -0.067 SA
BRANCH  11  15
ATOM     15  C   UNL d   1      -3.017   3.042   0.000  0.00  0.00     0.299 C 
ATOM     16  O   UNL d   1      -2.193   2.954   0.000  0.00  0.00    -0.264 OA
ATOM     17  N   UNL d   1      -3.354   3.795   0.000  0.00  0.00    -0.102 N 
ENDBRANCH  11  15
ENDBRANCH   8  10
ENDBRANCH   2   7
BRANCH   1  18
ATOM     18  S   UNL d   1       0.841  -0.516   0.000  0.00  0.00     0.271 S 
ATOM     19  O   UNL d   1       0.578  -1.302   0.000  0.00  0.00    -0.200 OA
ATOM     20  O   UNL d   1       1.103   0.262   0.000  0.00  0.00    -0.200 OA
BRANCH  18  21
ATOM     21  N   UNL d   1       1.623  -0.778   0.000  0.00  0.00    -0.229 N 
ATOM     22  C   UNL d   1       1.789  -1.585   0.000  0.00  0.00     0.092 A 
ATOM     23  C   UNL d   1       2.576  -1.847   0.000  0.00  0.00     0.020 A 
ATOM     24  C   UNL d   1       3.187  -1.302   0.000  0.00  0.00     0.003 A 
ATOM     25  C   UNL d   1       3.025  -0.491   0.000  0.00  0.00     0.020 A 
ATOM     26  C   UNL d   1       2.247  -0.229   0.000  0.00  0.00     0.092 A 
ENDBRANCH  18  21
ENDBRANCH   1  18
TORSDOF 5
