REMARK  4 active torsions:
REMARK  status: ('A' for Active; 'I' for Inactive)
REMARK    1  A    between atoms: N_3  and  C_1 
REMARK    2  A    between atoms: C_7  and  C_2 
REMARK       I    between atoms: C_5  and  N_3 
REMARK    3  A    between atoms: C_4  and  C_5 
REMARK    4  A    between atoms: O_17  and  C_7 
ROOT
ATOM      1  N   UNL d   1      -2.459   1.331   0.000  0.00  0.00    -0.200 NA
ATOM      2  C   UNL d   1      -2.292   0.524   0.000  0.00  0.00     0.304 C 
ATOM      3  O   UNL d   1      -1.498   0.275   0.000  0.00  0.00    -0.263 OA
ENDROOT
BRANCH   2   4
ATOM      4  C   UNL d   1      -2.908  -0.025   0.000  0.00  0.00     0.182 A 
ATOM      5  O   UNL d   1      -3.682   0.237   0.000  0.00  0.00    -0.298 OA
ATOM      6  C   UNL d   1      -4.289  -0.312   0.000  0.00  0.00     0.123 A 
ATOM      7  C   UNL d   1      -5.076  -0.054   0.000  0.00  0.00     0.027 A 
ATOM      8  C   UNL d   1      -4.140  -1.115   0.000  0.00  0.00     0.123 A 
ATOM      9  C   UNL d   1      -5.687  -0.603   0.000  0.00  0.00     0.002 A 
ATOM     10  C   UNL d   1      -5.525  -1.415   0.000  0.00  0.00     0.002 A 
ATOM     11  C   UNL d   1      -4.739  -1.673   0.000  0.00  0.00     0.027 A 
ATOM     12  O   UNL d   1      -3.345  -1.373   0.000  0.00  0.00    -0.301 OA
ATOM     13  C   UNL d   1      -2.729  -0.828   0.000  0.00  0.00     0.152 A 
ENDBRANCH   2   4
BRANCH   1  14
ATOM     14  C   UNL d   1      -3.241   1.585   0.000  0.00  0.00     0.119 A 
ATOM     15  C   UNL d   1      -3.495   2.372   0.000  0.00  0.00     0.087 A 
ATOM     16  C   UNL d   1      -4.327   2.372   0.000  0.00  0.00     0.014 A 
ATOM     17  C   UNL d   1      -4.577   1.585   0.000  0.00  0.00     0.037 A 
ATOM     18  S   UNL d   1      -3.907   1.107   0.000  0.00  0.00    -0.067 SA
BRANCH  15  19
ATOM     19  C   UNL d   1      -3.016   3.041   0.000  0.00  0.00     0.298 C 
ATOM     20  O   UNL d   1      -2.192   2.954   0.000  0.00  0.00    -0.259 OA
BRANCH  19  21
ATOM     21  O   UNL d   1      -3.353   3.794   0.000  0.00  0.00    -0.296 OA
ATOM     22  C   UNL d   1      -4.169   3.877   0.000  0.00  0.00     0.185 C 
ENDBRANCH  19  21
ENDBRANCH  15  19
ENDBRANCH   1  14
TORSDOF 4
