REMARK  6 active torsions:
REMARK  status: ('A' for Active; 'I' for Inactive)
REMARK    1  A    between atoms: C_8  and  C_1 
REMARK    2  A    between atoms: C_2  and  N_3 
REMARK       I    between atoms: N_3  and  C_8 
REMARK    3  A    between atoms: S_4  and  C_14 
REMARK    4  A    between atoms: C_23  and  N_7 
REMARK    5  A    between atoms: C_27  and  C_23 
REMARK    6  A    between atoms: O_26  and  C_27 
ROOT
ATOM      1  C   UNL d   1      -1.163   2.383   0.000  0.00  0.00     0.182 A 
ATOM      2  N   UNL d   1      -1.646   1.721   0.000  0.00  0.00    -0.283 N 
ATOM      3  S   UNL d   1      -1.646   3.050   0.000  0.00  0.00    -0.048 SA
ATOM      4  C   UNL d   1      -2.433   2.796   0.000  0.00  0.00     0.049 A 
ATOM      5  C   UNL d   1      -2.433   1.971   0.000  0.00  0.00     0.072 A 
ATOM      6  C   UNL d   1      -3.858   2.796   0.000  0.00  0.00     0.107 A 
ATOM      7  C   UNL d   1      -3.146   3.208   0.000  0.00  0.00     0.021 A 
ATOM      8  C   UNL d   1      -3.146   1.558   0.000  0.00  0.00     0.019 A 
ATOM      9  C   UNL d   1      -3.858   1.971   0.000  0.00  0.00     0.015 A 
ENDROOT
BRANCH   1  10
ATOM     10  N   UNL d   1      -0.338   2.375   0.000  0.00  0.00    -0.183 NA
ATOM     11  C   UNL d   1       0.075   3.087   0.000  0.00  0.00     0.288 C 
ATOM     12  O   UNL d   1      -0.338   3.800   0.000  0.00  0.00    -0.265 OA
BRANCH  11  13
ATOM     13  C   UNL d   1       0.900   3.087   0.000  0.00  0.00     0.098 A 
ATOM     14  S   UNL d   1       1.379   2.425   0.000  0.00  0.00    -0.081 SA
ATOM     15  C   UNL d   1       2.163   2.671   0.000  0.00  0.00     0.030 A 
ATOM     16  C   UNL d   1       2.875   2.246   0.000  0.00  0.00     0.006 A 
ATOM     17  C   UNL d   1       2.179   3.496   0.000  0.00  0.00     0.017 A 
ATOM     18  C   UNL d   1       3.604   2.646   0.000  0.00  0.00     0.001 A 
ATOM     19  C   UNL d   1       3.604   3.483   0.000  0.00  0.00     0.000 A 
ATOM     20  C   UNL d   1       2.904   3.896   0.000  0.00  0.00     0.001 A 
ATOM     21  C   UNL d   1       1.387   3.758   0.000  0.00  0.00     0.069 A 
ATOM     22 CL   UNL d   1       1.142   4.542   0.000  0.00  0.00    -0.082 Cl
ENDBRANCH  11  13
ENDBRANCH   1  10
BRANCH   2  23
ATOM     23  C   UNL d   1      -1.396   0.933   0.000  0.00  0.00     0.108 C 
BRANCH  23  24
ATOM     24  C   UNL d   1      -1.946   0.321   0.000  0.00  0.00     0.135 C 
BRANCH  24  25
ATOM     25  O   UNL d   1      -2.750   0.487   0.000  0.00  0.00    -0.325 OA
ATOM     26  C   UNL d   1      -3.308  -0.125   0.000  0.00  0.00     0.182 C 
ENDBRANCH  24  25
ENDBRANCH  23  24
ENDBRANCH   2  23
BRANCH   6  27
ATOM     27  S   UNL d   1      -4.583   3.212   0.000  0.00  0.00     0.302 S 
ATOM     28  O   UNL d   1      -5.021   2.508   0.000  0.00  0.00    -0.197 OA
ATOM     29  O   UNL d   1      -4.146   3.908   0.000  0.00  0.00    -0.197 OA
ATOM     30  N   UNL d   1      -5.283   3.646   0.000  0.00  0.00    -0.043 N 
ENDBRANCH   6  27
TORSDOF 6
