REMARK  3 active torsions:
REMARK  status: ('A' for Active; 'I' for Inactive)
REMARK    1  A    between atoms: N_3  and  C_1 
REMARK    2  A    between atoms: C_5  and  C_2 
REMARK       I    between atoms: C_4  and  N_3 
REMARK    3  A    between atoms: C_10  and  C_4 
ROOT
ATOM      1  N   UNL d   1      -2.464   1.334   0.000  0.00  0.00    -0.201 NA
ATOM      2  C   UNL d   1      -2.297   0.525   0.000  0.00  0.00     0.280 C 
ATOM      3  O   UNL d   1      -2.910  -0.025   0.000  0.00  0.00    -0.265 OA
ENDROOT
BRANCH   1   4
ATOM      4  C   UNL d   1      -3.248   1.589   0.000  0.00  0.00     0.119 A 
ATOM      5  C   UNL d   1      -3.503   2.377   0.000  0.00  0.00     0.084 A 
ATOM      6  C   UNL d   1      -4.337   2.377   0.000  0.00  0.00     0.014 A 
ATOM      7  C   UNL d   1      -4.587   1.589   0.000  0.00  0.00     0.037 A 
ATOM      8  S   UNL d   1      -3.915   1.109   0.000  0.00  0.00    -0.067 SA
BRANCH   5   9
ATOM      9  C   UNL d   1      -3.023   3.048   0.000  0.00  0.00     0.299 C 
ATOM     10  O   UNL d   1      -2.197   2.961   0.000  0.00  0.00    -0.264 OA
ATOM     11  N   UNL d   1      -3.361   3.803   0.000  0.00  0.00    -0.102 N 
ENDBRANCH   5   9
ENDBRANCH   1   4
BRANCH   2  12
ATOM     12  C   UNL d   1      -1.514   0.275   0.000  0.00  0.00     0.058 A 
ATOM     13  C   UNL d   1      -0.909   0.834   0.000  0.00  0.00     0.005 A 
ATOM     14  C   UNL d   1      -0.121   0.575   0.000  0.00  0.00     0.000 A 
ATOM     15  C   UNL d   1       0.054  -0.229   0.000  0.00  0.00     0.000 A 
ATOM     16  C   UNL d   1      -0.559  -0.780   0.000  0.00  0.00     0.000 A 
ATOM     17  C   UNL d   1      -1.347  -0.530   0.000  0.00  0.00     0.005 A 
ENDBRANCH   2  12
TORSDOF 3
