REMARK  8 active torsions:
REMARK  status: ('A' for Active; 'I' for Inactive)
REMARK    1  A    between atoms: N_3  and  C_1 
REMARK    2  A    between atoms: C_20  and  N_2 
REMARK       I    between atoms: C_7  and  N_3 
REMARK    3  A    between atoms: C_10  and  C_7 
REMARK    4  A    between atoms: C_9  and  C_10 
REMARK    5  A    between atoms: C_15  and  C_9 
REMARK       I    between atoms: C_12  and  N_13 
REMARK    6  A    between atoms: N_13  and  C_14 
REMARK    7  A    between atoms: C_26  and  C_20 
REMARK    8  A    between atoms: O_22  and  C_26 
ROOT
ATOM      1  C   UNL d   1      -1.164   2.386   0.000  0.00  0.00     0.182 A 
ATOM      2  N   UNL d   1      -1.648   1.723   0.000  0.00  0.00    -0.283 N 
ATOM      3  S   UNL d   1      -1.648   3.054   0.000  0.00  0.00    -0.048 SA
ATOM      4  C   UNL d   1      -2.436   2.799   0.000  0.00  0.00     0.050 A 
ATOM      5  C   UNL d   1      -2.436   1.973   0.000  0.00  0.00     0.072 A 
ATOM      6  C   UNL d   1      -3.150   3.212   0.000  0.00  0.00     0.027 A 
ATOM      7  C   UNL d   1      -3.150   1.560   0.000  0.00  0.00     0.020 A 
ATOM      8  C   UNL d   1      -3.863   2.799   0.000  0.00  0.00     0.085 A 
ATOM      9  C   UNL d   1      -3.863   1.973   0.000  0.00  0.00     0.021 A 
ENDROOT
BRANCH   1  10
ATOM     10  N   UNL d   1      -0.338   2.378   0.000  0.00  0.00    -0.184 NA
ATOM     11  C   UNL d   1       0.075   3.091   0.000  0.00  0.00     0.281 C 
ATOM     12  O   UNL d   1      -0.338   3.805   0.000  0.00  0.00    -0.265 OA
BRANCH  11  13
ATOM     13  C   UNL d   1       0.901   3.091   0.000  0.00  0.00     0.063 C 
BRANCH  13  14
ATOM     14  C   UNL d   1       1.314   3.801   0.000  0.00  0.00     0.006 C 
BRANCH  14  15
ATOM     15  C   UNL d   1       2.132   3.813   0.000  0.00  0.00     0.011 A 
ATOM     16  C   UNL d   1       2.557   3.100   0.000  0.00  0.00     0.058 A 
ATOM     17 CL   UNL d   1       2.144   2.374   0.000  0.00  0.00    -0.082 Cl
ATOM     18  C   UNL d   1       3.396   3.112   0.000  0.00  0.00     0.011 A 
ATOM     19  C   UNL d   1       3.805   3.817   0.000  0.00  0.00     0.001 A 
ATOM     20  C   UNL d   1       3.384   4.531   0.000  0.00  0.00     0.000 A 
ATOM     21  C   UNL d   1       2.553   4.522   0.000  0.00  0.00     0.001 A 
ENDBRANCH  14  15
ENDBRANCH  13  14
ENDBRANCH  11  13
ENDBRANCH   1  10
BRANCH   2  22
ATOM     22  C   UNL d   1      -1.398   0.934   0.000  0.00  0.00     0.108 C 
BRANCH  22  23
ATOM     23  C   UNL d   1      -1.948   0.321   0.000  0.00  0.00     0.135 C 
BRANCH  23  24
ATOM     24  O   UNL d   1      -2.753   0.488   0.000  0.00  0.00    -0.325 OA
ATOM     25  C   UNL d   1      -3.312  -0.125   0.000  0.00  0.00     0.182 C 
ENDBRANCH  23  24
ENDBRANCH  22  23
ENDBRANCH   2  22
BRANCH   8  26
ATOM     26  N   UNL d   1      -4.589   3.217   0.000  0.00  0.00    -0.208 NA
ATOM     27  C   UNL d   1      -5.294   2.804   0.000  0.00  0.00     0.279 C 
ATOM     28  O   UNL d   1      -6.008   3.217   0.000  0.00  0.00    -0.265 OA
ATOM     29  C   UNL d   1      -5.303   1.978   0.000  0.00  0.00     0.068 C 
ENDBRANCH   8  26
TORSDOF 8
