REMARK  9 active torsions:
REMARK  status: ('A' for Active; 'I' for Inactive)
REMARK    1  A    between atoms: N_3  and  C_1 
REMARK    2  A    between atoms: C_20  and  N_2 
REMARK       I    between atoms: C_7  and  N_3 
REMARK    3  A    between atoms: C_10  and  C_7 
REMARK    4  A    between atoms: C_9  and  C_10 
REMARK    5  A    between atoms: C_15  and  C_9 
REMARK       I    between atoms: C_12  and  N_13 
REMARK    6  A    between atoms: N_13  and  C_14 
REMARK    7  A    between atoms: C_26  and  C_20 
REMARK    8  A    between atoms: O_22  and  C_26 
REMARK    9  A    between atoms: C_27  and  O_22 
ROOT
ATOM      1  C   UNL d   1      -1.163   2.385   0.000  0.00  0.00     0.182 A 
ATOM      2  N   UNL d   1      -1.647   1.722   0.000  0.00  0.00    -0.283 N 
ATOM      3  S   UNL d   1      -1.647   3.052   0.000  0.00  0.00    -0.048 SA
ATOM      4  C   UNL d   1      -2.435   2.798   0.000  0.00  0.00     0.050 A 
ATOM      5  C   UNL d   1      -2.435   1.972   0.000  0.00  0.00     0.072 A 
ATOM      6  C   UNL d   1      -3.148   3.210   0.000  0.00  0.00     0.027 A 
ATOM      7  C   UNL d   1      -3.148   1.559   0.000  0.00  0.00     0.020 A 
ATOM      8  C   UNL d   1      -3.861   2.798   0.000  0.00  0.00     0.085 A 
ATOM      9  C   UNL d   1      -3.861   1.972   0.000  0.00  0.00     0.021 A 
ENDROOT
BRANCH   1  10
ATOM     10  N   UNL d   1      -0.338   2.377   0.000  0.00  0.00    -0.184 NA
ATOM     11  C   UNL d   1       0.075   3.090   0.000  0.00  0.00     0.281 C 
ATOM     12  O   UNL d   1      -0.338   3.802   0.000  0.00  0.00    -0.265 OA
BRANCH  11  13
ATOM     13  C   UNL d   1       0.901   3.090   0.000  0.00  0.00     0.063 C 
BRANCH  13  14
ATOM     14  C   UNL d   1       1.313   3.798   0.000  0.00  0.00     0.006 C 
BRANCH  14  15
ATOM     15  C   UNL d   1       2.131   3.811   0.000  0.00  0.00     0.011 A 
ATOM     16  C   UNL d   1       2.556   3.098   0.000  0.00  0.00     0.058 A 
ATOM     17 CL   UNL d   1       2.143   2.372   0.000  0.00  0.00    -0.082 Cl
ATOM     18  C   UNL d   1       3.394   3.110   0.000  0.00  0.00     0.011 A 
ATOM     19  C   UNL d   1       3.802   3.815   0.000  0.00  0.00     0.001 A 
ATOM     20  C   UNL d   1       3.381   4.528   0.000  0.00  0.00     0.000 A 
ATOM     21  C   UNL d   1       2.552   4.520   0.000  0.00  0.00     0.001 A 
ENDBRANCH  14  15
ENDBRANCH  13  14
ENDBRANCH  11  13
ENDBRANCH   1  10
BRANCH   2  22
ATOM     22  C   UNL d   1      -1.397   0.934   0.000  0.00  0.00     0.109 C 
BRANCH  22  23
ATOM     23  C   UNL d   1      -1.947   0.321   0.000  0.00  0.00     0.142 C 
BRANCH  23  24
ATOM     24  O   UNL d   1      -2.748   0.488   0.000  0.00  0.00    -0.302 OA
BRANCH  24  25
ATOM     25  C   UNL d   1      -3.315  -0.117   0.000  0.00  0.00     0.123 C 
ATOM     26  C   UNL d   1      -4.123   0.058   0.000  0.00  0.00     0.029 C 
ENDBRANCH  24  25
ENDBRANCH  23  24
ENDBRANCH  22  23
ENDBRANCH   2  22
BRANCH   8  27
ATOM     27  N   UNL d   1      -4.586   3.215   0.000  0.00  0.00    -0.208 NA
ATOM     28  C   UNL d   1      -5.291   2.802   0.000  0.00  0.00     0.279 C 
ATOM     29  O   UNL d   1      -6.004   3.215   0.000  0.00  0.00    -0.265 OA
ATOM     30  C   UNL d   1      -5.299   1.976   0.000  0.00  0.00     0.068 C 
ENDBRANCH   8  27
TORSDOF 9
