REMARK  7 active torsions:
REMARK  status: ('A' for Active; 'I' for Inactive)
REMARK    1  A    between atoms: N_2  and  C_1 
REMARK       I    between atoms: C_6  and  N_2 
REMARK    2  A    between atoms: S_3  and  C_12 
REMARK    3  A    between atoms: C_28  and  N_4 
REMARK    4  A    between atoms: C_8  and  C_6 
REMARK    5  A    between atoms: C_15  and  C_11 
REMARK    6  A    between atoms: C_32  and  C_28 
REMARK    7  A    between atoms: O_31  and  C_32 
ROOT
ATOM      1  N   UNL d   1      -0.338   2.375   0.000  0.00  0.00    -0.184 NA
ATOM      2  C   UNL d   1       0.075   3.087   0.000  0.00  0.00     0.281 C 
ATOM      3  O   UNL d   1      -0.338   3.800   0.000  0.00  0.00    -0.265 OA
ENDROOT
BRANCH   1   4
ATOM      4  C   UNL d   1      -1.163   2.383   0.000  0.00  0.00     0.182 A 
ATOM      5  N   UNL d   1      -1.646   1.721   0.000  0.00  0.00    -0.283 N 
ATOM      6  C   UNL d   1      -2.433   1.971   0.000  0.00  0.00     0.072 A 
ATOM      7  C   UNL d   1      -3.146   1.558   0.000  0.00  0.00     0.019 A 
ATOM      8  C   UNL d   1      -2.433   2.796   0.000  0.00  0.00     0.049 A 
ATOM      9  C   UNL d   1      -3.858   1.971   0.000  0.00  0.00     0.015 A 
ATOM     10  C   UNL d   1      -3.858   2.796   0.000  0.00  0.00     0.107 A 
ATOM     11  C   UNL d   1      -3.146   3.208   0.000  0.00  0.00     0.021 A 
ATOM     12  S   UNL d   1      -1.646   3.050   0.000  0.00  0.00    -0.048 SA
BRANCH   5  13
ATOM     13  C   UNL d   1      -1.396   0.933   0.000  0.00  0.00     0.108 C 
BRANCH  13  14
ATOM     14  C   UNL d   1      -1.946   0.321   0.000  0.00  0.00     0.135 C 
BRANCH  14  15
ATOM     15  O   UNL d   1      -2.750   0.487   0.000  0.00  0.00    -0.325 OA
ATOM     16  C   UNL d   1      -3.308  -0.125   0.000  0.00  0.00     0.182 C 
ENDBRANCH  14  15
ENDBRANCH  13  14
ENDBRANCH   5  13
BRANCH  10  17
ATOM     17  S   UNL d   1      -4.583   3.212   0.000  0.00  0.00     0.302 S 
ATOM     18  O   UNL d   1      -4.146   3.908   0.000  0.00  0.00    -0.197 OA
ATOM     19  O   UNL d   1      -5.021   2.508   0.000  0.00  0.00    -0.197 OA
ATOM     20  N   UNL d   1      -5.283   3.646   0.000  0.00  0.00    -0.043 N 
ENDBRANCH  10  17
ENDBRANCH   1   4
BRANCH   2  21
ATOM     21  C   UNL d   1       0.900   3.087   0.000  0.00  0.00     0.061 A 
ATOM     22  C   UNL d   1       1.325   3.808   0.000  0.00  0.00     0.025 A 
ATOM     23  C   UNL d   1       2.150   3.808   0.000  0.00  0.00     0.087 A 
ATOM     24  N   UNL d   1       2.562   3.083   0.000  0.00  0.00    -0.245 NA
ATOM     25  C   UNL d   1       2.142   2.371   0.000  0.00  0.00     0.082 A 
ATOM     26  C   UNL d   1       1.317   2.371   0.000  0.00  0.00     0.022 A 
ATOM     27  C   UNL d   1       2.554   1.650   0.000  0.00  0.00     0.019 A 
ATOM     28  C   UNL d   1       0.892   1.658   0.000  0.00  0.00     0.002 A 
ATOM     29  C   UNL d   1       1.317   0.933   0.000  0.00  0.00     0.000 A 
ATOM     30  C   UNL d   1       2.142   0.933   0.000  0.00  0.00     0.002 A 
BRANCH  23  31
ATOM     31  C   UNL d   1       2.567   4.517   0.000  0.00  0.00     0.047 A 
ATOM     32  S   UNL d   1       3.392   4.513   0.000  0.00  0.00    -0.085 SA
ATOM     33  C   UNL d   1       3.663   5.292   0.000  0.00  0.00     0.035 A 
ATOM     34  C   UNL d   1       2.992   5.775   0.000  0.00  0.00     0.007 A 
ATOM     35  C   UNL d   1       2.317   5.304   0.000  0.00  0.00     0.009 A 
ENDBRANCH  23  31
ENDBRANCH   2  21
TORSDOF 7
