REMARK  5 active torsions:
REMARK  status: ('A' for Active; 'I' for Inactive)
REMARK    1  A    between atoms: N_3  and  C_1 
REMARK    2  A    between atoms: C_12  and  N_2 
REMARK       I    between atoms: C_5  and  N_3 
REMARK    3  A    between atoms: C_8  and  C_5 
REMARK    4  A    between atoms: C_15  and  C_12 
REMARK    5  A    between atoms: O_22  and  C_15 
ROOT
ATOM      1  C   UNL d   1      -1.167   2.392   0.000  0.00  0.00     0.183 A 
ATOM      2  N   UNL d   1      -1.652   1.727   0.000  0.00  0.00    -0.280 N 
ATOM      3  S   UNL d   1      -1.652   3.061   0.000  0.00  0.00    -0.048 SA
ATOM      4  C   UNL d   1      -2.442   1.978   0.000  0.00  0.00     0.072 A 
ATOM      5  C   UNL d   1      -2.442   2.806   0.000  0.00  0.00     0.048 A 
ATOM      6  C   UNL d   1      -3.157   1.564   0.000  0.00  0.00     0.018 A 
ATOM      7  C   UNL d   1      -3.157   3.220   0.000  0.00  0.00     0.008 A 
ATOM      8  C   UNL d   1      -3.872   1.978   0.000  0.00  0.00     0.002 A 
ATOM      9  C   UNL d   1      -3.872   2.806   0.000  0.00  0.00     0.001 A 
ATOM     10  C   UNL d   1      -4.579   3.220   0.000  0.00  0.00     0.000 C 
ENDROOT
BRANCH   1  11
ATOM     11  N   UNL d   1      -0.339   2.384   0.000  0.00  0.00    -0.183 NA
ATOM     12  C   UNL d   1       0.075   3.099   0.000  0.00  0.00     0.287 C 
ATOM     13  O   UNL d   1      -0.339   3.814   0.000  0.00  0.00    -0.265 OA
BRANCH  12  14
ATOM     14  C   UNL d   1       0.891   3.099   0.000  0.00  0.00     0.088 A 
ATOM     15  S   UNL d   1       1.384   2.429   0.000  0.00  0.00    -0.071 SA
ATOM     16  C   UNL d   1       2.158   2.684   0.000  0.00  0.00     0.087 A 
ATOM     17 CL   UNL d   1       2.835   2.220   0.000  0.00  0.00    -0.075 Cl
ATOM     18  C   UNL d   1       2.149   3.500   0.000  0.00  0.00     0.019 A 
ATOM     19  C   UNL d   1       1.372   3.751   0.000  0.00  0.00     0.013 A 
ENDBRANCH  12  14
ENDBRANCH   1  11
BRANCH   2  20
ATOM     20  C   UNL d   1      -1.769   0.911   0.000  0.00  0.00     0.151 C 
BRANCH  20  21
ATOM     21  C   UNL d   1      -2.530   0.611   0.000  0.00  0.00     0.314 C 
ATOM     22  O   UNL d   1      -2.643  -0.201   0.000  0.00  0.00    -0.257 OA
BRANCH  21  23
ATOM     23  O   UNL d   1      -3.170   1.112   0.000  0.00  0.00    -0.295 OA
ATOM     24  C   UNL d   1      -3.926   0.811   0.000  0.00  0.00     0.185 C 
ENDBRANCH  21  23
ENDBRANCH  20  21
ENDBRANCH   2  20
TORSDOF 5
