REMARK  3 active torsions:
REMARK  status: ('A' for Active; 'I' for Inactive)
REMARK    1  A    between atoms: C_8  and  N_2 
REMARK    2  A    between atoms: C_12  and  C_8 
REMARK    3  A    between atoms: N_11  and  C_12 
ROOT
ATOM      1  C   UNL d   1       2.581   3.899   0.000  0.00  0.00     0.166 A 
ATOM      2  N   UNL d   1       1.896   3.435   0.000  0.00  0.00    -0.288 N 
ATOM      3  C   UNL d   1       2.360   4.695   0.000  0.00  0.00     0.117 A 
ATOM      4  N   UNL d   1       3.376   3.683   0.000  0.00  0.00    -0.225 NA
ATOM      5  N   UNL d   1       2.939   5.277   0.000  0.00  0.00    -0.241 NA
ATOM      6  C   UNL d   1       1.535   4.724   0.000  0.00  0.00     0.037 A 
ATOM      7  C   UNL d   1       1.262   3.956   0.000  0.00  0.00     0.067 A 
ATOM      8  C   UNL d   1       3.956   4.260   0.000  0.00  0.00     0.101 A 
ATOM      9  C   UNL d   1       3.737   5.056   0.000  0.00  0.00     0.099 A 
ATOM     10  C   UNL d   1       1.016   5.387   0.000  0.00  0.00     0.003 A 
ATOM     11  C   UNL d   1       0.437   3.818   0.000  0.00  0.00     0.018 A 
ATOM     12  C   UNL d   1       4.754   4.039   0.000  0.00  0.00     0.021 A 
ATOM     13  C   UNL d   1       4.312   5.549   0.000  0.00  0.00     0.021 A 
ATOM     14  C   UNL d   1       0.216   5.247   0.000  0.00  0.00     0.000 A 
ATOM     15  C   UNL d   1       0.000   4.474   0.000  0.00  0.00     0.002 A 
ATOM     16  C   UNL d   1       5.112   5.414   0.000  0.00  0.00     0.002 A 
ATOM     17  C   UNL d   1       5.328   4.614   0.000  0.00  0.00     0.002 A 
ENDROOT
BRANCH   2  18
ATOM     18  C   UNL d   1       1.483   2.721   0.000  0.00  0.00     0.101 C 
BRANCH  18  19
ATOM     19  C   UNL d   1       2.058   2.148   0.000  0.00  0.00     0.100 C 
BRANCH  19  20
ATOM     20  N   UNL d   1       1.645   1.434   0.000  0.00  0.00    -0.298 N 
ATOM     21  C   UNL d   1       0.820   1.434   0.000  0.00  0.00     0.107 A 
ATOM     22  C   UNL d   1       0.408   0.719   0.000  0.00  0.00     0.142 A 
ATOM     23  O   UNL d   1       0.820   0.000   0.000  0.00  0.00    -0.300 OA
ATOM     24  C   UNL d   1       1.645   0.000   0.000  0.00  0.00     0.142 A 
ATOM     25  C   UNL d   1       2.058   0.719   0.000  0.00  0.00     0.107 A 
ENDBRANCH  19  20
ENDBRANCH  18  19
ENDBRANCH   2  18
TORSDOF 3
