REMARK  5 active torsions:
REMARK  status: ('A' for Active; 'I' for Inactive)
REMARK    1  A    between atoms: N_3  and  C_1 
REMARK    2  A    between atoms: C_12  and  N_2 
REMARK       I    between atoms: C_6  and  N_3 
REMARK    3  A    between atoms: C_8  and  C_6 
REMARK    4  A    between atoms: C_16  and  C_12 
REMARK    5  A    between atoms: O_22  and  C_16 
ROOT
ATOM      1  C   UNL d   1      -1.165   2.388   0.000  0.00  0.00     0.183 A 
ATOM      2  N   UNL d   1      -1.649   1.724   0.000  0.00  0.00    -0.280 N 
ATOM      3  S   UNL d   1      -1.649   3.056   0.000  0.00  0.00    -0.048 SA
ATOM      4  C   UNL d   1      -2.438   2.802   0.000  0.00  0.00     0.051 A 
ATOM      5  C   UNL d   1      -2.438   1.975   0.000  0.00  0.00     0.072 A 
ATOM      6  C   UNL d   1      -3.152   3.215   0.000  0.00  0.00     0.038 A 
ATOM      7  C   UNL d   1      -3.152   1.562   0.000  0.00  0.00     0.020 A 
ATOM      8  C   UNL d   1      -3.866   2.802   0.000  0.00  0.00     0.141 A 
ATOM      9  C   UNL d   1      -3.866   1.975   0.000  0.00  0.00     0.031 A 
ATOM     10  F   UNL d   1      -4.572   3.215   0.000  0.00  0.00    -0.204 F 
ENDROOT
BRANCH   1  11
ATOM     11  N   UNL d   1      -0.338   2.380   0.000  0.00  0.00    -0.183 NA
ATOM     12  C   UNL d   1       0.075   3.094   0.000  0.00  0.00     0.287 C 
ATOM     13  O   UNL d   1      -0.338   3.808   0.000  0.00  0.00    -0.265 OA
BRANCH  12  14
ATOM     14  C   UNL d   1       0.889   3.094   0.000  0.00  0.00     0.088 A 
ATOM     15  S   UNL d   1       1.382   2.426   0.000  0.00  0.00    -0.071 SA
ATOM     16  C   UNL d   1       2.155   2.680   0.000  0.00  0.00     0.087 A 
ATOM     17 CL   UNL d   1       2.831   2.217   0.000  0.00  0.00    -0.075 Cl
ATOM     18  C   UNL d   1       2.146   3.495   0.000  0.00  0.00     0.019 A 
ATOM     19  C   UNL d   1       1.369   3.745   0.000  0.00  0.00     0.013 A 
ENDBRANCH  12  14
ENDBRANCH   1  11
BRANCH   2  20
ATOM     20  C   UNL d   1      -1.766   0.910   0.000  0.00  0.00     0.151 C 
BRANCH  20  21
ATOM     21  C   UNL d   1      -2.526   0.610   0.000  0.00  0.00     0.314 C 
ATOM     22  O   UNL d   1      -2.639  -0.200   0.000  0.00  0.00    -0.257 OA
BRANCH  21  23
ATOM     23  O   UNL d   1      -3.165   1.111   0.000  0.00  0.00    -0.295 OA
ATOM     24  C   UNL d   1      -3.921   0.810   0.000  0.00  0.00     0.185 C 
ENDBRANCH  21  23
ENDBRANCH  20  21
ENDBRANCH   2  20
TORSDOF 5
