REMARK  5 active torsions:
REMARK  status: ('A' for Active; 'I' for Inactive)
REMARK    1  A    between atoms: N_2  and  C_1 
REMARK       I    between atoms: C_7  and  N_2 
REMARK    2  A    between atoms: C_21  and  N_3 
REMARK    3  A    between atoms: C_8  and  C_7 
REMARK       I    between atoms: C_12  and  N_13 
REMARK    4  A    between atoms: N_13  and  C_14 
REMARK    5  A    between atoms: C_20  and  C_21 
ROOT
ATOM      1  C   UNL d   1      -1.163   2.383   0.000  0.00  0.00     0.182 A 
ATOM      2  N   UNL d   1      -1.646   1.721   0.000  0.00  0.00    -0.285 N 
ATOM      3  S   UNL d   1      -1.646   3.050   0.000  0.00  0.00    -0.048 SA
ATOM      4  C   UNL d   1      -2.433   2.796   0.000  0.00  0.00     0.050 A 
ATOM      5  C   UNL d   1      -2.433   1.971   0.000  0.00  0.00     0.072 A 
ATOM      6  C   UNL d   1      -3.146   3.208   0.000  0.00  0.00     0.027 A 
ATOM      7  C   UNL d   1      -3.146   1.558   0.000  0.00  0.00     0.020 A 
ATOM      8  C   UNL d   1      -3.858   2.796   0.000  0.00  0.00     0.085 A 
ATOM      9  C   UNL d   1      -3.858   1.971   0.000  0.00  0.00     0.021 A 
ENDROOT
BRANCH   1  10
ATOM     10  N   UNL d   1      -0.338   2.375   0.000  0.00  0.00    -0.183 NA
ATOM     11  C   UNL d   1       0.075   3.087   0.000  0.00  0.00     0.287 C 
ATOM     12  O   UNL d   1      -0.338   3.800   0.000  0.00  0.00    -0.265 OA
BRANCH  11  13
ATOM     13  C   UNL d   1       0.900   3.087   0.000  0.00  0.00     0.087 A 
ATOM     14  S   UNL d   1       1.392   2.421   0.000  0.00  0.00    -0.082 SA
ATOM     15  C   UNL d   1       2.179   2.671   0.000  0.00  0.00     0.036 A 
ATOM     16  C   UNL d   1       2.175   3.496   0.000  0.00  0.00     0.008 A 
ATOM     17  C   UNL d   1       1.392   3.758   0.000  0.00  0.00     0.012 A 
ENDBRANCH  11  13
ENDBRANCH   1  10
BRANCH   2  18
ATOM     18  C   UNL d   1      -1.396   0.933   0.000  0.00  0.00     0.082 C 
BRANCH  18  19
ATOM     19  C   UNL d   1      -1.946   0.321   0.000  0.00  0.00     0.019 C 
ATOM     20  C   UNL d   1      -2.750   0.487   0.000  0.00  0.00     0.002 C 
ENDBRANCH  18  19
ENDBRANCH   2  18
BRANCH   8  21
ATOM     21  N   UNL d   1      -4.583   3.212   0.000  0.00  0.00    -0.208 NA
ATOM     22  C   UNL d   1      -5.287   2.800   0.000  0.00  0.00     0.279 C 
ATOM     23  O   UNL d   1      -6.000   3.212   0.000  0.00  0.00    -0.265 OA
ATOM     24  C   UNL d   1      -5.296   1.975   0.000  0.00  0.00     0.068 C 
ENDBRANCH   8  21
TORSDOF 5
