REMARK  4 active torsions:
REMARK  status: ('A' for Active; 'I' for Inactive)
REMARK    1  A    between atoms: N_2  and  C_1 
REMARK       I    between atoms: C_6  and  N_2 
REMARK    2  A    between atoms: C_21  and  N_3 
REMARK    3  A    between atoms: C_8  and  C_6 
REMARK       I    between atoms: C_17  and  N_18 
REMARK    4  A    between atoms: N_18  and  C_19 
ROOT
ATOM      1  C   UNL d   1      -1.950   0.322   0.000  0.00  0.00    -0.031 C 
ATOM      2  C   UNL d   1      -2.501  -0.292   0.000  0.00  0.00    -0.008 C 
ATOM      3  C   UNL d   1      -1.399   0.935   0.000  0.00  0.00     0.133 C 
ENDROOT
BRANCH   3   4
ATOM      4  N   UNL d   1      -1.649   1.724   0.000  0.00  0.00    -0.278 N 
ATOM      5  C   UNL d   1      -1.165   2.388   0.000  0.00  0.00     0.183 A 
ATOM      6  S   UNL d   1      -1.649   3.056   0.000  0.00  0.00    -0.048 SA
ATOM      7  C   UNL d   1      -2.438   2.802   0.000  0.00  0.00     0.050 A 
ATOM      8  C   UNL d   1      -3.152   3.215   0.000  0.00  0.00     0.027 A 
ATOM      9  C   UNL d   1      -2.438   1.975   0.000  0.00  0.00     0.073 A 
ATOM     10  C   UNL d   1      -3.866   2.802   0.000  0.00  0.00     0.085 A 
ATOM     11  C   UNL d   1      -3.866   1.975   0.000  0.00  0.00     0.021 A 
ATOM     12  C   UNL d   1      -3.152   1.562   0.000  0.00  0.00     0.020 A 
BRANCH   5  13
ATOM     13  N   UNL d   1      -0.338   2.380   0.000  0.00  0.00    -0.183 NA
ATOM     14  C   UNL d   1       0.075   3.094   0.000  0.00  0.00     0.287 C 
ATOM     15  O   UNL d   1      -0.338   3.808   0.000  0.00  0.00    -0.265 OA
BRANCH  14  16
ATOM     16  C   UNL d   1       0.902   3.094   0.000  0.00  0.00     0.088 A 
ATOM     17  S   UNL d   1       1.403   2.417   0.000  0.00  0.00    -0.075 SA
ATOM     18  C   UNL d   1       2.184   2.676   0.000  0.00  0.00     0.064 A 
ATOM     19 BR   UNL d   1       2.873   2.200   0.000  0.00  0.00    -0.042 Br
ATOM     20  C   UNL d   1       2.179   3.503   0.000  0.00  0.00     0.014 A 
ATOM     21  C   UNL d   1       1.395   3.754   0.000  0.00  0.00     0.012 A 
ENDBRANCH  14  16
ENDBRANCH   5  13
BRANCH  10  22
ATOM     22  N   UNL d   1      -4.593   3.219   0.000  0.00  0.00    -0.208 NA
ATOM     23  C   UNL d   1      -5.298   2.806   0.000  0.00  0.00     0.279 C 
ATOM     24  O   UNL d   1      -6.012   3.219   0.000  0.00  0.00    -0.265 OA
ATOM     25  C   UNL d   1      -5.307   1.979   0.000  0.00  0.00     0.068 C 
ENDBRANCH  10  22
ENDBRANCH   3   4
TORSDOF 4
