REMARK  0 active torsions:
REMARK  status: ('A' for Active; 'I' for Inactive)
ROOT
ATOM      1  C   UNL d   1       2.918   1.186   0.000  0.00  0.00     0.166 A 
ATOM      2  C   UNL d   1       2.697   1.983   0.000  0.00  0.00     0.117 A 
ATOM      3  N   UNL d   1       2.229   0.721   0.000  0.00  0.00    -0.288 N 
ATOM      4  C   UNL d   1       1.870   2.013   0.000  0.00  0.00     0.037 A 
ATOM      5  N   UNL d   1       3.715   0.964   0.000  0.00  0.00    -0.225 NA
ATOM      6  C   UNL d   1       1.597   1.240   0.000  0.00  0.00     0.067 A 
ATOM      7  N   UNL d   1       3.277   2.561   0.000  0.00  0.00    -0.241 NA
ATOM      8  C   UNL d   1       4.296   1.543   0.000  0.00  0.00     0.101 A 
ATOM      9  C   UNL d   1       4.074   2.345   0.000  0.00  0.00     0.099 A 
ATOM     10  C   UNL d   1       0.770   1.105   0.000  0.00  0.00     0.018 A 
ATOM     11  C   UNL d   1       1.346   2.667   0.000  0.00  0.00     0.003 A 
ATOM     12  C   UNL d   1       1.816   0.000   0.000  0.00  0.00     0.101 C 
ATOM     13  C   UNL d   1       0.549   2.527   0.000  0.00  0.00     0.000 A 
ATOM     14  C   UNL d   1       0.273   1.764   0.000  0.00  0.00     0.002 A 
ATOM     15  C   UNL d   1       4.652   2.889   0.000  0.00  0.00     0.021 A 
ATOM     16  C   UNL d   1       5.093   1.326   0.000  0.00  0.00     0.021 A 
ATOM     17  C   UNL d   1       0.000   3.080   0.000  0.00  0.00     0.000 C 
ATOM     18  C   UNL d   1       5.450   2.697   0.000  0.00  0.00     0.002 A 
ATOM     19  C   UNL d   1       5.671   1.902   0.000  0.00  0.00     0.002 A 
ENDROOT
TORSDOF 0
