REMARK  4 active torsions:
REMARK  status: ('A' for Active; 'I' for Inactive)
REMARK    1  A    between atoms: N_8  and  C_1 
REMARK    2  A    between atoms: O_11  and  C_2 
REMARK       I    between atoms: C_12  and  N_8 
REMARK    3  A    between atoms: C_16  and  O_11 
REMARK    4  A    between atoms: O_22  and  C_17 
ROOT
ATOM      1  C   UNL d   1       5.629  -5.878   0.000  0.00  0.00     0.272 A 
ATOM      2  C   UNL d   1       6.355  -6.146   0.000  0.00  0.00     0.284 A 
ATOM      3  C   UNL d   1       4.088  -5.420   0.000  0.00  0.00     0.207 A 
ATOM      4  C   UNL d   1       4.561  -6.263   0.000  0.00  0.00     0.220 A 
ATOM      5  O   UNL d   1       5.882  -5.298   0.000  0.00  0.00    -0.325 OA
ATOM      6  C   UNL d   1       4.869  -5.684   0.000  0.00  0.00     0.182 A 
ATOM      7  O   UNL d   1       3.346  -5.706   0.000  0.00  0.00    -0.327 OA
ATOM      8  C   UNL d   1       3.027  -5.122   0.000  0.00  0.00     0.188 A 
ATOM      9  O   UNL d   1       3.732  -4.935   0.000  0.00  0.00    -0.332 OA
ATOM     10  C   UNL d   1       4.539  -5.122   0.000  0.00  0.00     0.177 A 
ATOM     11  O   UNL d   1       3.963  -6.014   0.000  0.00  0.00    -0.290 OA
ATOM     12  C   UNL d   1       2.392  -5.482   0.000  0.00  0.00     0.061 C 
ATOM     13  C   UNL d   1       2.657  -4.491   0.000  0.00  0.00     0.061 C 
ENDROOT
BRANCH   2  14
ATOM     14  O   UNL d   1       7.100  -5.860   0.000  0.00  0.00    -0.303 OA
BRANCH  14  15
ATOM     15  C   UNL d   1       7.225  -5.034   0.000  0.00  0.00     0.097 A 
ATOM     16  C   UNL d   1       7.995  -4.744   0.000  0.00  0.00     0.026 A 
ATOM     17  C   UNL d   1       8.127  -3.922   0.000  0.00  0.00     0.026 A 
ATOM     18  C   UNL d   1       7.478  -3.401   0.000  0.00  0.00     0.094 A 
ATOM     19  C   UNL d   1       6.704  -3.702   0.000  0.00  0.00     0.026 A 
ATOM     20  C   UNL d   1       6.575  -4.524   0.000  0.00  0.00     0.026 A 
BRANCH  18  21
ATOM     21  O   UNL d   1       7.610  -2.579   0.000  0.00  0.00    -0.328 OA
ATOM     22  C   UNL d   1       8.381  -2.282   0.000  0.00  0.00     0.181 C 
ENDBRANCH  18  21
ENDBRANCH  14  15
ENDBRANCH   2  14
BRANCH   1  23
ATOM     23  N   UNL d   1       5.959  -6.443   0.000  0.00  0.00    -0.380 NA
ATOM     24  C   UNL d   1       6.289  -7.005   0.000  0.00  0.00     0.324 C 
ATOM     25  O   UNL d   1       5.966  -7.573   0.000  0.00  0.00    -0.251 OA
ATOM     26  C   UNL d   1       6.946  -7.005   0.000  0.00  0.00     0.082 C 
ENDBRANCH   1  23
TORSDOF 4
