REMARK  8 active torsions:
REMARK  status: ('A' for Active; 'I' for Inactive)
REMARK    1  A    between atoms: S_11  and  C_6 
REMARK    2  A    between atoms: O_23  and  C_10 
REMARK    3  A    between atoms: C_19  and  S_11 
REMARK    4  A    between atoms: C_12  and  C_19 
REMARK       I    between atoms: N_18  and  C_12 
REMARK    5  A    between atoms: O_25  and  C_13 
REMARK    6  A    between atoms: C_26  and  N_18 
REMARK    7  A    between atoms: C_20  and  C_27 
REMARK    8  A    between atoms: C_27  and  C_26 
ROOT
ATOM      1  C   UNL d   1       2.618  -1.044   0.000  0.00  0.00     0.286 C 
ATOM      2  O   UNL d   1       2.873  -1.829   0.000  0.00  0.00    -0.265 OA
ATOM      3  N   UNL d   1       3.169  -0.426   0.000  0.00  0.00    -0.206 NA
ENDROOT
BRANCH   1   4
ATOM      4  C   UNL d   1       1.808  -0.869   0.000  0.00  0.00     0.101 C 
BRANCH   4   5
ATOM      5  S   UNL d   1       1.553  -0.088   0.000  0.00  0.00    -0.043 SA
BRANCH   5   6
ATOM      6  C   UNL d   1       0.743   0.084   0.000  0.00  0.00     0.198 A 
ATOM      7  N   UNL d   1       0.480   0.877   0.000  0.00  0.00    -0.200 NA
ATOM      8  C   UNL d   1      -0.334   1.048   0.000  0.00  0.00     0.189 A 
ATOM      9  C   UNL d   1      -0.885   0.426   0.000  0.00  0.00     0.081 A 
ATOM     10  N   UNL d   1      -0.589   1.829   0.000  0.00  0.00    -0.127 N 
ATOM     11  C   UNL d   1      -0.626  -0.363   0.000  0.00  0.00     0.187 A 
ATOM     12  C   UNL d   1      -1.712   0.426   0.000  0.00  0.00     0.029 A 
ATOM     13  N   UNL d   1       0.188  -0.530   0.000  0.00  0.00    -0.197 NA
ATOM     14  O   UNL d   1      -1.299  -0.844   0.000  0.00  0.00    -0.289 OA
ATOM     15  C   UNL d   1      -1.975  -0.363   0.000  0.00  0.00     0.102 A 
ATOM     16  C   UNL d   1      -2.752  -0.618   0.000  0.00  0.00     0.027 C 
ATOM     17  C   UNL d   1      -2.201   1.098   0.000  0.00  0.00     0.002 C 
ENDBRANCH   5   6
ENDBRANCH   4   5
ENDBRANCH   1   4
BRANCH   3  18
ATOM     18  C   UNL d   1       3.975  -0.593   0.000  0.00  0.00     0.102 C 
BRANCH  18  19
ATOM     19  C   UNL d   1       4.522   0.021   0.000  0.00  0.00     0.021 C 
BRANCH  19  20
ATOM     20  C   UNL d   1       5.328  -0.150   0.000  0.00  0.00     0.004 A 
ATOM     21  C   UNL d   1       5.875   0.464   0.000  0.00  0.00     0.026 A 
ATOM     22  C   UNL d   1       6.681   0.301   0.000  0.00  0.00     0.116 A 
ATOM     23  C   UNL d   1       6.944  -0.480   0.000  0.00  0.00     0.116 A 
ATOM     24  C   UNL d   1       6.393  -1.094   0.000  0.00  0.00     0.026 A 
ATOM     25  C   UNL d   1       5.587  -0.931   0.000  0.00  0.00     0.002 A 
BRANCH  22  26
ATOM     26  O   UNL d   1       7.228   0.923   0.000  0.00  0.00    -0.326 OA
ATOM     27  C   UNL d   1       8.034   0.760   0.000  0.00  0.00     0.181 C 
ENDBRANCH  22  26
BRANCH  23  28
ATOM     28  O   UNL d   1       7.754  -0.643   0.000  0.00  0.00    -0.326 OA
ATOM     29  C   UNL d   1       8.009  -1.432   0.000  0.00  0.00     0.181 C 
ENDBRANCH  23  28
ENDBRANCH  19  20
ENDBRANCH  18  19
ENDBRANCH   3  18
TORSDOF 8
