REMARK  2 active torsions:
REMARK  status: ('A' for Active; 'I' for Inactive)
REMARK    1  A    between atoms: C_6  and  C_1 
REMARK       I    between atoms: N_11  and  C_6 
REMARK    2  A    between atoms: C_13  and  N_11 
ROOT
ATOM      1  C   UNL d   1      -0.139  -1.302   0.000  0.00  0.00     0.108 A 
ATOM      2  C   UNL d   1      -1.399  -0.910   0.000  0.00  0.00     0.044 A 
ATOM      3  C   UNL d   1      -1.399  -1.734   0.000  0.00  0.00     0.112 A 
ATOM      4  S   UNL d   1      -0.612  -1.975   0.000  0.00  0.00    -0.061 SA
ATOM      5  C   UNL d   1      -0.643  -0.653   0.000  0.00  0.00     0.116 A 
ATOM      6  N   UNL d   1      -2.114  -2.160   0.000  0.00  0.00    -0.239 NA
ATOM      7  C   UNL d   1      -2.819  -0.910   0.000  0.00  0.00     0.057 A 
ATOM      8  C   UNL d   1      -2.114  -0.494   0.000  0.00  0.00     0.008 A 
ATOM      9  C   UNL d   1      -2.819  -1.734   0.000  0.00  0.00     0.085 A 
ATOM     10  C   UNL d   1      -3.534  -0.499   0.000  0.00  0.00     0.197 A 
ATOM     11  N   UNL d   1      -0.489   0.303   0.000  0.00  0.00    -0.147 N 
ATOM     12  O   UNL d   1      -3.518   0.509   0.000  0.00  0.00    -0.286 OA
ATOM     13  C   UNL d   1      -3.534  -2.145   0.000  0.00  0.00     0.019 A 
ATOM     14  C   UNL d   1      -4.239  -0.910   0.000  0.00  0.00     0.042 A 
ATOM     15  C   UNL d   1      -4.239  -1.734   0.000  0.00  0.00     0.005 A 
ENDROOT
BRANCH   1  16
ATOM     16  C   UNL d   1       0.839  -1.240   0.000  0.00  0.00     0.287 C 
ATOM     17  N   UNL d   1       1.589  -0.617   0.000  0.00  0.00    -0.205 NA
ATOM     18  O   UNL d   1       1.085  -2.011   0.000  0.00  0.00    -0.265 OA
BRANCH  17  19
ATOM     19  C   UNL d   1       1.456   0.242   0.000  0.00  0.00     0.112 A 
ATOM     20  C   UNL d   1       2.135   0.782   0.000  0.00  0.00     0.158 A 
ATOM     21  F   UNL d   1       3.246   0.720   0.000  0.00  0.00    -0.203 F 
ATOM     22  C   UNL d   1       1.996   1.661   0.000  0.00  0.00     0.031 A 
ATOM     23  C   UNL d   1       1.178   1.975   0.000  0.00  0.00     0.002 A 
ATOM     24  C   UNL d   1       0.499   1.420   0.000  0.00  0.00     0.002 A 
ATOM     25  C   UNL d   1       0.623   0.550   0.000  0.00  0.00     0.021 A 
ENDBRANCH  17  19
ENDBRANCH   1  16
TORSDOF 2
