REMARK  2 active torsions:
REMARK  status: ('A' for Active; 'I' for Inactive)
REMARK    1  A    between atoms: C_7  and  C_2 
REMARK    2  A    between atoms: C_5  and  C_7 
ROOT
ATOM      1  C   UNL d   1       2.004  -0.887   0.000  0.00  0.00     0.021 A 
ATOM      2  N   UNL d   1       1.175   0.146   0.000  0.00  0.00    -0.244 NA
ATOM      3  C   UNL d   1       1.212  -0.675   0.000  0.00  0.00     0.099 A 
ATOM      4  C   UNL d   1       2.454  -0.204   0.000  0.00  0.00     0.019 A 
ATOM      5  C   UNL d   1       1.941   0.437   0.000  0.00  0.00     0.081 A 
ATOM      6  C   UNL d   1       3.274  -0.079   0.000  0.00  0.00     0.002 A 
ATOM      7  C   UNL d   1       2.241   1.208   0.000  0.00  0.00     0.019 A 
ATOM      8  C   UNL d   1       3.579   0.687   0.000  0.00  0.00     0.000 A 
ATOM      9  C   UNL d   1       3.062   1.333   0.000  0.00  0.00     0.002 A 
ENDROOT
BRANCH   1  10
ATOM     10  C   UNL d   1       2.291  -1.666   0.000  0.00  0.00     0.011 C 
BRANCH  10  11
ATOM     11  C   UNL d   1       3.104  -1.804   0.000  0.00  0.00     0.062 A 
ATOM     12  C   UNL d   1       3.387  -2.579   0.000  0.00  0.00     0.145 A 
ATOM     13  N   UNL d   1       4.212  -2.541   0.000  0.00  0.00    -0.191 NA
ATOM     14  S   UNL d   1       2.924  -3.274   0.000  0.00  0.00    -0.057 SA
ATOM     15  C   UNL d   1       4.437  -1.762   0.000  0.00  0.00     0.311 A 
ATOM     16  S   UNL d   1       3.753  -1.300   0.000  0.00  0.00    -0.023 SA
ATOM     17  O   UNL d   1       5.224  -1.487   0.000  0.00  0.00    -0.258 OA
ENDBRANCH  10  11
ENDBRANCH   1  10
TORSDOF 2
