REMARK  6 active torsions:
REMARK  status: ('A' for Active; 'I' for Inactive)
REMARK    1  A    between atoms: S_10  and  C_6 
REMARK    2  A    between atoms: C_14  and  S_10 
REMARK    3  A    between atoms: C_11  and  C_14 
REMARK       I    between atoms: N_15  and  C_11 
REMARK    4  A    between atoms: C_20  and  N_15 
REMARK    5  A    between atoms: C_18  and  C_20 
REMARK    6  A    between atoms: C_21  and  C_18 
ROOT
ATOM      1  C   UNL d   1      -2.717  -0.229   0.000  0.00  0.00     0.187 A 
ATOM      2  C   UNL d   1      -2.966   0.557   0.000  0.00  0.00     0.081 A 
ATOM      3  N   UNL d   1      -1.905  -0.399   0.000  0.00  0.00    -0.197 NA
ATOM      4  N   UNL d   1      -1.610   1.007   0.000  0.00  0.00    -0.200 NA
ATOM      5  C   UNL d   1      -2.417   1.173   0.000  0.00  0.00     0.189 A 
ATOM      6  C   UNL d   1      -1.348   0.221   0.000  0.00  0.00     0.198 A 
ATOM      7  C   UNL d   1      -3.790   0.557   0.000  0.00  0.00     0.029 A 
ATOM      8  O   UNL d   1      -3.378  -0.711   0.000  0.00  0.00    -0.289 OA
ATOM      9  C   UNL d   1      -4.052  -0.229   0.000  0.00  0.00     0.102 A 
ATOM     10  N   UNL d   1      -2.679   1.955   0.000  0.00  0.00    -0.127 N 
ATOM     11  C   UNL d   1      -4.277   1.232   0.000  0.00  0.00     0.002 C 
ATOM     12  C   UNL d   1      -4.839  -0.478   0.000  0.00  0.00     0.027 C 
ENDROOT
BRANCH   6  13
ATOM     13  S   UNL d   1      -0.545   0.046   0.000  0.00  0.00    -0.043 SA
BRANCH  13  14
ATOM     14  C   UNL d   1      -0.287  -0.736   0.000  0.00  0.00     0.101 C 
BRANCH  14  15
ATOM     15  C   UNL d   1       0.516  -0.903   0.000  0.00  0.00     0.286 C 
ATOM     16  O   UNL d   1       0.778  -1.689   0.000  0.00  0.00    -0.265 OA
ATOM     17  N   UNL d   1       1.065  -0.291   0.000  0.00  0.00    -0.206 NA
BRANCH  17  18
ATOM     18  C   UNL d   1       1.876  -0.462   0.000  0.00  0.00     0.106 C 
BRANCH  18  19
ATOM     19  C   UNL d   1       2.413   0.150   0.000  0.00  0.00     0.066 C 
BRANCH  19  20
ATOM     20  C   UNL d   1       3.224  -0.017   0.000  0.00  0.00     0.236 C 
ATOM     21  O   UNL d   1       3.482  -0.790   0.000  0.00  0.00    -0.283 OA
ENDBRANCH  19  20
ENDBRANCH  18  19
ENDBRANCH  17  18
ENDBRANCH  14  15
ENDBRANCH  13  14
ENDBRANCH   6  13
TORSDOF 6
