REMARK  4 active torsions:
REMARK  status: ('A' for Active; 'I' for Inactive)
REMARK       I    between atoms: C_3  and  N_1 
REMARK    1  A    between atoms: C_5  and  N_2 
REMARK    2  A    between atoms: C_4  and  C_3 
REMARK    3  A    between atoms: C_7  and  C_4 
REMARK    4  A    between atoms: C_13  and  C_7 
ROOT
ATOM      1  N   UNL d   1       0.939  -1.899   0.000  0.00  0.00    -0.269 N 
ATOM      2  N   UNL d   1       2.584  -1.720   0.000  0.00  0.00    -0.301 N 
ATOM      3  C   UNL d   1       0.125  -1.998   0.000  0.00  0.00     0.265 C 
ATOM      4  C   UNL d   1       1.437  -2.571   0.000  0.00  0.00     0.102 A 
ATOM      5  C   UNL d   1       1.275  -1.147   0.000  0.00  0.00     0.102 A 
ATOM      6  C   UNL d   1       2.260  -2.480   0.000  0.00  0.00     0.100 A 
ATOM      7  C   UNL d   1       2.094  -1.051   0.000  0.00  0.00     0.100 A 
ATOM      8  O   UNL d   1      -0.208  -2.746   0.000  0.00  0.00    -0.267 OA
ENDROOT
BRANCH   3   9
ATOM      9  C   UNL d   1      -0.370  -1.333   0.000  0.00  0.00     0.061 C 
BRANCH   9  10
ATOM     10  C   UNL d   1      -1.192  -1.425   0.000  0.00  0.00     0.005 C 
BRANCH  10  11
ATOM     11  C   UNL d   1      -1.678  -0.764   0.000  0.00  0.00     0.000 A 
ATOM     12  C   UNL d   1      -2.493  -0.864   0.000  0.00  0.00     0.002 A 
ATOM     13  C   UNL d   1      -2.987  -0.204   0.000  0.00  0.00     0.030 A 
ATOM     14  C   UNL d   1      -2.655   0.557   0.000  0.00  0.00     0.140 A 
ATOM     15  C   UNL d   1      -1.840   0.644   0.000  0.00  0.00     0.030 A 
ATOM     16  F   UNL d   1      -3.149   1.217   0.000  0.00  0.00    -0.204 F 
ATOM     17  C   UNL d   1      -1.354  -0.017   0.000  0.00  0.00     0.002 A 
ENDBRANCH  10  11
ENDBRANCH   9  10
ENDBRANCH   3   9
BRANCH   2  18
ATOM     18  C   UNL d   1       3.406  -1.624   0.000  0.00  0.00     0.065 A 
ATOM     19  C   UNL d   1       3.731  -0.864   0.000  0.00  0.00     0.029 A 
ATOM     20  C   UNL d   1       4.549  -0.764   0.000  0.00  0.00     0.059 A 
ATOM     21 CL   UNL d   1       4.873  -0.004   0.000  0.00  0.00    -0.082 Cl
ATOM     22  C   UNL d   1       5.047  -1.425   0.000  0.00  0.00     0.011 A 
ATOM     23  C   UNL d   1       4.715  -2.185   0.000  0.00  0.00     0.002 A 
ATOM     24  C   UNL d   1       3.893  -2.285   0.000  0.00  0.00     0.018 A 
ENDBRANCH   2  18
TORSDOF 4
