REMARK  3 active torsions:
REMARK  status: ('A' for Active; 'I' for Inactive)
REMARK    1  A    between atoms: C_5  and  C_1 
REMARK       I    between atoms: N_7  and  C_5 
REMARK    2  A    between atoms: C_15  and  N_10 
REMARK    3  A    between atoms: C_21  and  C_15 
ROOT
ATOM      1  C   UNL d   1      -1.403  -0.221   0.000  0.00  0.00     0.270 C 
ATOM      2  N   UNL d   1      -0.676  -0.651   0.000  0.00  0.00    -0.270 N 
ATOM      3  N   UNL d   1       0.770  -1.493   0.000  0.00  0.00    -0.300 N 
ATOM      4  O   UNL d   1      -2.088  -0.629   0.000  0.00  0.00    -0.269 OA
ATOM      5  C   UNL d   1      -0.676  -1.493   0.000  0.00  0.00     0.102 A 
ATOM      6  C   UNL d   1       0.038  -0.221   0.000  0.00  0.00     0.102 A 
ATOM      7  C   UNL d   1       0.038  -1.905   0.000  0.00  0.00     0.100 A 
ATOM      8  C   UNL d   1       0.770  -0.651   0.000  0.00  0.00     0.100 A 
ENDROOT
BRANCH   1   9
ATOM      9  C   UNL d   1      -1.403   0.570   0.000  0.00  0.00     0.191 A 
ATOM     10  O   UNL d   1      -0.625   0.570   0.000  0.00  0.00    -0.293 OA
ATOM     11  C   UNL d   1      -0.625   1.361   0.000  0.00  0.00     0.275 A 
ATOM     12  O   UNL d   1      -0.064   1.939   0.000  0.00  0.00    -0.264 OA
ATOM     13  C   UNL d   1      -1.416   1.378   0.000  0.00  0.00     0.099 A 
ATOM     14  C   UNL d   1      -1.990   1.935   0.000  0.00  0.00     0.047 A 
ATOM     15  C   UNL d   1      -1.225   2.139   0.000  0.00  0.00     0.014 C 
ATOM     16  C   UNL d   1      -2.101   0.965   0.000  0.00  0.00    -0.019 A 
ATOM     17  C   UNL d   1      -1.786   2.700   0.000  0.00  0.00     0.004 C 
ATOM     18  C   UNL d   1      -2.781   1.935   0.000  0.00  0.00     0.004 C 
ATOM     19  C   UNL d   1      -2.092   0.174   0.000  0.00  0.00     0.006 A 
ENDBRANCH   1   9
BRANCH   3  20
ATOM     20  C   UNL d   1       1.505  -1.914   0.000  0.00  0.00     0.080 C 
BRANCH  20  21
ATOM     21  C   UNL d   1       2.233  -1.493   0.000  0.00  0.00     0.018 A 
ATOM     22  C   UNL d   1       2.233  -0.655   0.000  0.00  0.00     0.002 A 
ATOM     23  C   UNL d   1       2.960  -0.221   0.000  0.00  0.00     0.000 A 
ATOM     24  C   UNL d   1       3.687  -0.655   0.000  0.00  0.00     0.000 A 
ATOM     25  C   UNL d   1       3.687  -1.497   0.000  0.00  0.00     0.000 A 
ATOM     26  C   UNL d   1       2.960  -1.914   0.000  0.00  0.00     0.002 A 
ENDBRANCH  20  21
ENDBRANCH   3  20
TORSDOF 3
