REMARK  3 active torsions:
REMARK  status: ('A' for Active; 'I' for Inactive)
REMARK    1  A    between atoms: C_8  and  C_1 
REMARK    2  A    between atoms: N_5  and  C_2 
REMARK       I    between atoms: C_7  and  N_5 
REMARK    3  A    between atoms: C_10  and  C_7 
ROOT
ATOM      1  C   UNL d   1      -3.790   3.016   0.000  0.00  0.00     0.212 A 
ATOM      2  C   UNL d   1      -2.454   3.016   0.000  0.00  0.00     0.297 A 
ATOM      3  O   UNL d   1      -3.120   2.529   0.000  0.00  0.00    -0.253 OA
ATOM      4  N   UNL d   1      -3.532   3.794   0.000  0.00  0.00    -0.119 NA
ATOM      5  N   UNL d   1      -2.708   3.794   0.000  0.00  0.00    -0.101 NA
ENDROOT
BRANCH   2   6
ATOM      6  N   UNL d   1      -1.672   2.754   0.000  0.00  0.00    -0.165 NA
ATOM      7  C   UNL d   1      -1.506   1.955   0.000  0.00  0.00     0.282 C 
ATOM      8  O   UNL d   1      -2.117   1.398   0.000  0.00  0.00    -0.265 OA
BRANCH   7   9
ATOM      9  C   UNL d   1      -0.720   1.693   0.000  0.00  0.00     0.060 A 
ATOM     10  C   UNL d   1      -0.545   0.886   0.000  0.00  0.00     0.034 A 
ATOM     11  C   UNL d   1       0.237   0.632   0.000  0.00  0.00     0.140 A 
ATOM     12  F   UNL d   1       0.416  -0.187   0.000  0.00  0.00    -0.204 F 
ATOM     13  C   UNL d   1       0.853   1.181   0.000  0.00  0.00     0.030 A 
ATOM     14  C   UNL d   1       0.678   1.984   0.000  0.00  0.00     0.003 A 
ATOM     15  C   UNL d   1      -0.100   2.242   0.000  0.00  0.00     0.005 A 
ENDBRANCH   7   9
ENDBRANCH   2   6
BRANCH   1  16
ATOM     16  C   UNL d   1      -4.576   2.754   0.000  0.00  0.00     0.072 A 
ATOM     17  S   UNL d   1      -4.825   1.972   0.000  0.00  0.00    -0.083 SA
ATOM     18  C   UNL d   1      -5.649   1.968   0.000  0.00  0.00     0.035 A 
ATOM     19  C   UNL d   1      -5.911   2.754   0.000  0.00  0.00     0.008 A 
ATOM     20  C   UNL d   1      -5.242   3.241   0.000  0.00  0.00     0.011 A 
ENDBRANCH   1  16
TORSDOF 3
