REMARK  3 active torsions:
REMARK  status: ('A' for Active; 'I' for Inactive)
REMARK    1  A    between atoms: C_9  and  C_1 
REMARK    2  A    between atoms: C_11  and  C_2 
REMARK    3  A    between atoms: C_3  and  C_9 
ROOT
ATOM      1  C   UNL d   1       2.579  -1.154   0.000  0.00  0.00     0.003 A 
ATOM      2  C   UNL d   1       0.942  -1.142   0.000  0.00  0.00    -0.023 A 
ATOM      3  C   UNL d   1       2.167  -0.442   0.000  0.00  0.00    -0.000 A 
ATOM      4  C   UNL d   1       2.167  -1.854   0.000  0.00  0.00    -0.000 A 
ATOM      5  C   UNL d   1       1.350  -1.854   0.000  0.00  0.00    -0.004 A 
ATOM      6  C   UNL d   1       1.354  -0.442   0.000  0.00  0.00    -0.004 A 
ATOM      7  C   UNL d   1       2.579  -2.575   0.000  0.00  0.00    -0.000 C 
ATOM      8  C   UNL d   1       2.579   0.275   0.000  0.00  0.00    -0.000 C 
ENDROOT
BRANCH   1   9
ATOM      9  C   UNL d   1       3.404  -1.154   0.000  0.00  0.00     0.039 C 
BRANCH   9  10
ATOM     10  C   UNL d   1       3.987  -0.567   0.000  0.00  0.00     0.163 A 
ATOM     11  N   UNL d   1       4.804  -0.692   0.000  0.00  0.00    -0.224 NA
ATOM     12  C   UNL d   1       5.167   0.046   0.000  0.00  0.00     0.121 A 
ATOM     13  C   UNL d   1       4.588   0.633   0.000  0.00  0.00     0.121 A 
ATOM     14  N   UNL d   1       3.854   0.258   0.000  0.00  0.00    -0.224 NA
ENDBRANCH   9  10
ENDBRANCH   1   9
BRANCH   2  15
ATOM     15  C   UNL d   1       0.117  -1.142   0.000  0.00  0.00     0.019 C 
ATOM     16  C   UNL d   1      -0.708  -1.142   0.000  0.00  0.00     0.004 C 
ATOM     17  C   UNL d   1       0.117  -1.967   0.000  0.00  0.00     0.004 C 
ATOM     18  C   UNL d   1       0.117  -0.317   0.000  0.00  0.00     0.004 C 
ENDBRANCH   2  15
TORSDOF 3
