REMARK  4 active torsions:
REMARK  status: ('A' for Active; 'I' for Inactive)
REMARK    1  A    between atoms: C_8  and  C_1 
REMARK    2  A    between atoms: N_5  and  C_2 
REMARK       I    between atoms: C_7  and  N_5 
REMARK    3  A    between atoms: C_10  and  C_7 
REMARK    4  A    between atoms: O_17  and  C_16 
ROOT
ATOM      1  N   UNL d   1      -1.673   2.755   0.000  0.00  0.00    -0.165 NA
ATOM      2  C   UNL d   1      -1.506   1.956   0.000  0.00  0.00     0.282 C 
ATOM      3  O   UNL d   1      -2.118   1.398   0.000  0.00  0.00    -0.265 OA
ENDROOT
BRANCH   1   4
ATOM      4  C   UNL d   1      -2.455   3.017   0.000  0.00  0.00     0.297 A 
ATOM      5  O   UNL d   1      -3.121   2.530   0.000  0.00  0.00    -0.253 OA
ATOM      6  C   UNL d   1      -3.791   3.017   0.000  0.00  0.00     0.212 A 
ATOM      7  N   UNL d   1      -3.533   3.795   0.000  0.00  0.00    -0.119 NA
ATOM      8  N   UNL d   1      -2.709   3.795   0.000  0.00  0.00    -0.101 NA
BRANCH   6   9
ATOM      9  C   UNL d   1      -4.578   2.755   0.000  0.00  0.00     0.072 A 
ATOM     10  S   UNL d   1      -4.827   1.973   0.000  0.00  0.00    -0.083 SA
ATOM     11  C   UNL d   1      -5.651   1.968   0.000  0.00  0.00     0.035 A 
ATOM     12  C   UNL d   1      -5.913   2.755   0.000  0.00  0.00     0.008 A 
ATOM     13  C   UNL d   1      -5.244   3.242   0.000  0.00  0.00     0.011 A 
ENDBRANCH   6   9
ENDBRANCH   1   4
BRANCH   2  14
ATOM     14  C   UNL d   1      -0.720   1.694   0.000  0.00  0.00     0.060 A 
ATOM     15  C   UNL d   1      -0.549   0.886   0.000  0.00  0.00     0.029 A 
ATOM     16  C   UNL d   1       0.229   0.632   0.000  0.00  0.00     0.094 A 
ATOM     17  C   UNL d   1       0.841   1.182   0.000  0.00  0.00     0.024 A 
ATOM     18  C   UNL d   1       0.674   1.993   0.000  0.00  0.00     0.002 A 
ATOM     19  C   UNL d   1      -0.108   2.243   0.000  0.00  0.00     0.005 A 
BRANCH  16  20
ATOM     20  O   UNL d   1       0.412  -0.192   0.000  0.00  0.00    -0.328 OA
ATOM     21  C   UNL d   1       1.190  -0.441   0.000  0.00  0.00     0.181 C 
ENDBRANCH  16  20
ENDBRANCH   2  14
TORSDOF 4
