REMARK  4 active torsions:
REMARK  status: ('A' for Active; 'I' for Inactive)
REMARK    1  A    between atoms: C_6  and  C_1 
REMARK    2  A    between atoms: S_7  and  C_3 
REMARK    3  A    between atoms: C_17  and  S_7 
REMARK    4  A    between atoms: C_18  and  C_17 
ROOT
ATOM      1  C   UNL d   1       2.841  -3.503   0.000  0.00  0.00     0.087 A 
ATOM      2  N   UNL d   1       2.190  -3.998   0.000  0.00  0.00    -0.245 NA
ATOM      3  C   UNL d   1       2.588  -2.717   0.000  0.00  0.00     0.049 A 
ATOM      4  C   UNL d   1       1.772  -2.717   0.000  0.00  0.00     0.025 A 
ATOM      5  C   UNL d   1       1.524  -3.508   0.000  0.00  0.00     0.082 A 
ATOM      6  C   UNL d   1       1.230  -2.097   0.000  0.00  0.00     0.002 A 
ATOM      7  C   UNL d   1       0.734  -3.694   0.000  0.00  0.00     0.019 A 
ATOM      8  C   UNL d   1       0.424  -2.283   0.000  0.00  0.00     0.000 A 
ATOM      9  C   UNL d   1       0.186  -3.074   0.000  0.00  0.00     0.002 A 
ENDROOT
BRANCH   1  10
ATOM     10  C   UNL d   1       3.632  -3.709   0.000  0.00  0.00     0.018 A 
ATOM     11  C   UNL d   1       3.849  -4.515   0.000  0.00  0.00     0.002 A 
ATOM     12  C   UNL d   1       4.634  -4.732   0.000  0.00  0.00     0.011 A 
ATOM     13  C   UNL d   1       5.207  -4.143   0.000  0.00  0.00     0.058 A 
ATOM     14  C   UNL d   1       4.975  -3.332   0.000  0.00  0.00     0.011 A 
ATOM     15 CL   UNL d   1       5.998  -4.360   0.000  0.00  0.00    -0.082 Cl
ATOM     16  C   UNL d   1       4.200  -3.120   0.000  0.00  0.00     0.002 A 
ENDBRANCH   1  10
BRANCH   3  17
ATOM     17  S   UNL d   1       3.058  -2.035   0.000  0.00  0.00    -0.083 SA
BRANCH  17  18
ATOM     18  C   UNL d   1       2.717  -1.271   0.000  0.00  0.00     0.058 C 
BRANCH  18  19
ATOM     19  C   UNL d   1       3.182  -0.589   0.000  0.00  0.00     0.129 C 
ATOM     20  N   UNL d   1       2.841   0.165   0.000  0.00  0.00    -0.146 N 
ENDBRANCH  18  19
ENDBRANCH  17  18
ENDBRANCH   3  17
TORSDOF 4
