REMARK  2 active torsions:
REMARK  status: ('A' for Active; 'I' for Inactive)
REMARK    1  A    between atoms: C_2  and  C_1 
REMARK    2  A    between atoms: C_6  and  C_2 
ROOT
ATOM      1  C   UNL d   1       5.013   0.170   0.000  0.00  0.00     0.059 A 
ATOM      2  C   UNL d   1       4.615   0.883   0.000  0.00  0.00     0.106 A 
ATOM      3  C   UNL d   1       5.829   0.146   0.000  0.00  0.00     0.011 A 
ATOM      4  C   UNL d   1       5.028   1.582   0.000  0.00  0.00     0.021 A 
ATOM      5  C   UNL d   1       6.266   0.869   0.000  0.00  0.00     0.035 A 
ATOM      6  N   UNL d   1       3.790   0.883   0.000  0.00  0.00    -0.148 N 
ATOM      7  C   UNL d   1       5.853   1.567   0.000  0.00  0.00     0.008 A 
ATOM      8 BR   UNL d   1       7.081   0.854   0.000  0.00  0.00    -0.049 Br
ENDROOT
BRANCH   1   9
ATOM      9  C   UNL d   1       4.586  -0.544   0.000  0.00  0.00     0.197 C 
ATOM     10  O   UNL d   1       3.761  -0.587   0.000  0.00  0.00    -0.286 OA
BRANCH   9  11
ATOM     11  C   UNL d   1       5.013  -1.242   0.000  0.00  0.00     0.039 A 
ATOM     12  C   UNL d   1       5.829  -1.228   0.000  0.00  0.00     0.003 A 
ATOM     13  C   UNL d   1       6.266  -1.936   0.000  0.00  0.00     0.000 A 
ATOM     14  C   UNL d   1       5.858  -2.669   0.000  0.00  0.00     0.000 A 
ATOM     15  C   UNL d   1       5.028  -2.684   0.000  0.00  0.00     0.000 A 
ATOM     16  C   UNL d   1       4.615  -1.956   0.000  0.00  0.00     0.003 A 
ENDBRANCH   9  11
ENDBRANCH   1   9
TORSDOF 2
