REMARK  7 active torsions:
REMARK  status: ('A' for Active; 'I' for Inactive)
REMARK    1  A    between atoms: C_4  and  C_10 
REMARK    2  A    between atoms: O_17  and  C_4 
REMARK    3  A    between atoms: O_19  and  C_5 
REMARK    4  A    between atoms: O_20  and  C_7 
REMARK    5  A    between atoms: C_12  and  C_8 
REMARK    6  A    between atoms: O_15  and  C_12 
REMARK    7  A    between atoms: C_16  and  O_15 
ROOT
ATOM      1  C   UNL d   1       2.705   1.771   0.000  0.00  0.00     0.022 A 
ATOM      2  C   UNL d   1       1.997   1.353   0.000  0.00  0.00     0.028 A 
ATOM      3  C   UNL d   1       2.705   2.607   0.000  0.00  0.00     0.005 A 
ATOM      4  C   UNL d   1       1.289   1.771   0.000  0.00  0.00     0.116 A 
ATOM      5  C   UNL d   1       1.997   3.020   0.000  0.00  0.00     0.026 A 
ATOM      6  C   UNL d   1       1.289   2.607   0.000  0.00  0.00     0.116 A 
ATOM      7  C   UNL d   1       3.409   1.353   0.000  0.00  0.00     0.106 A 
ATOM      8  N   UNL d   1       4.117   1.771   0.000  0.00  0.00    -0.242 NA
ATOM      9  C   UNL d   1       4.117   2.607   0.000  0.00  0.00     0.099 A 
ATOM     10  C   UNL d   1       3.409   3.020   0.000  0.00  0.00     0.021 A 
ENDROOT
BRANCH   7  11
ATOM     11  C   UNL d   1       3.409   0.516   0.000  0.00  0.00     0.142 C 
BRANCH  11  12
ATOM     12  O   UNL d   1       4.117   0.103   0.000  0.00  0.00    -0.304 OA
BRANCH  12  13
ATOM     13  C   UNL d   1       4.117  -0.728   0.000  0.00  0.00     0.100 A 
ATOM     14  C   UNL d   1       4.825  -1.151   0.000  0.00  0.00     0.025 A 
ATOM     15  C   UNL d   1       4.825  -1.982   0.000  0.00  0.00     0.007 A 
ATOM     16  C   UNL d   1       4.117  -2.405   0.000  0.00  0.00     0.063 A 
ATOM     17  C   UNL d   1       3.409  -1.982   0.000  0.00  0.00     0.007 A 
ATOM     18  C   UNL d   1       3.409  -1.151   0.000  0.00  0.00     0.025 A 
BRANCH  16  19
ATOM     19  C   UNL d   1       4.122  -3.237   0.000  0.00  0.00     0.296 C 
ATOM     20  O   UNL d   1       3.424  -3.665   0.000  0.00  0.00    -0.259 OA
BRANCH  19  21
ATOM     21  O   UNL d   1       4.845  -3.650   0.000  0.00  0.00    -0.296 OA
ATOM     22  C   UNL d   1       4.855  -4.491   0.000  0.00  0.00     0.185 C 
ENDBRANCH  19  21
ENDBRANCH  16  19
ENDBRANCH  12  13
ENDBRANCH  11  12
ENDBRANCH   7  11
BRANCH   4  23
ATOM     23  O   UNL d   1       0.566   1.353   0.000  0.00  0.00    -0.326 OA
ATOM     24  C   UNL d   1      -0.143   1.766   0.000  0.00  0.00     0.181 C 
ENDBRANCH   4  23
BRANCH   6  25
ATOM     25  O   UNL d   1       0.566   3.035   0.000  0.00  0.00    -0.326 OA
ATOM     26  C   UNL d   1      -0.143   2.612   0.000  0.00  0.00     0.181 C 
ENDBRANCH   6  25
TORSDOF 7
