REMARK  4 active torsions:
REMARK  status: ('A' for Active; 'I' for Inactive)
REMARK    1  A    between atoms: C_6  and  C_1 
REMARK    2  A    between atoms: S_7  and  C_3 
REMARK    3  A    between atoms: C_17  and  S_7 
REMARK    4  A    between atoms: C_18  and  C_17 
ROOT
ATOM      1  C   UNL d   1       2.241  -1.940   0.000  0.00  0.00     0.087 A 
ATOM      2  N   UNL d   1       1.577  -2.435   0.000  0.00  0.00    -0.245 NA
ATOM      3  C   UNL d   1       1.979  -1.155   0.000  0.00  0.00     0.049 A 
ATOM      4  C   UNL d   1       1.155  -1.155   0.000  0.00  0.00     0.025 A 
ATOM      5  C   UNL d   1       0.907  -1.950   0.000  0.00  0.00     0.082 A 
ATOM      6  C   UNL d   1       0.602  -0.553   0.000  0.00  0.00     0.002 A 
ATOM      7  C   UNL d   1       0.102  -2.129   0.000  0.00  0.00     0.019 A 
ATOM      8  C   UNL d   1      -0.204  -0.733   0.000  0.00  0.00     0.000 A 
ATOM      9  C   UNL d   1      -0.451  -1.518   0.000  0.00  0.00     0.002 A 
ENDROOT
BRANCH   1  10
ATOM     10  C   UNL d   1       3.002  -2.226   0.000  0.00  0.00     0.018 A 
ATOM     11  C   UNL d   1       3.643  -1.693   0.000  0.00  0.00     0.004 A 
ATOM     12  C   UNL d   1       4.414  -1.984   0.000  0.00  0.00     0.030 A 
ATOM     13  C   UNL d   1       4.555  -2.799   0.000  0.00  0.00     0.140 A 
ATOM     14  C   UNL d   1       3.919  -3.332   0.000  0.00  0.00     0.030 A 
ATOM     15  F   UNL d   1       5.331  -3.099   0.000  0.00  0.00    -0.204 F 
ATOM     16  C   UNL d   1       3.148  -3.041   0.000  0.00  0.00     0.004 A 
ENDBRANCH   1  10
BRANCH   3  17
ATOM     17  S   UNL d   1       2.459  -0.485   0.000  0.00  0.00    -0.083 SA
BRANCH  17  18
ATOM     18  C   UNL d   1       2.100   0.272   0.000  0.00  0.00     0.058 C 
BRANCH  18  19
ATOM     19  C   UNL d   1       2.590   0.946   0.000  0.00  0.00     0.129 C 
ATOM     20  N   UNL d   1       2.241   1.683   0.000  0.00  0.00    -0.146 N 
ENDBRANCH  18  19
ENDBRANCH  17  18
ENDBRANCH   3  17
TORSDOF 4
