REMARK  2 active torsions:
REMARK  status: ('A' for Active; 'I' for Inactive)
REMARK    1  A    between atoms: C_10  and  N_3 
REMARK    2  A    between atoms: C_11  and  C_4 
ROOT
ATOM      1  C   UNL d   1       3.496  -0.470   0.000  0.00  0.00     0.152 A 
ATOM      2  C   UNL d   1       3.496   0.349   0.000  0.00  0.00     0.065 A 
ATOM      3  N   UNL d   1       2.710  -0.727   0.000  0.00  0.00    -0.290 N 
ATOM      4  C   UNL d   1       2.710   0.606   0.000  0.00  0.00     0.023 A 
ATOM      5  C   UNL d   1       2.230  -0.058   0.000  0.00  0.00     0.082 A 
ATOM      6  N   UNL d   1       4.208  -0.887   0.000  0.00  0.00    -0.206 NA
ATOM      7  C   UNL d   1       4.208   0.766   0.000  0.00  0.00     0.143 A 
ATOM      8  N   UNL d   1       4.921   0.349   0.000  0.00  0.00    -0.212 NA
ATOM      9  C   UNL d   1       4.921  -0.470   0.000  0.00  0.00     0.201 A 
ATOM     10 CL   UNL d   1       4.208   1.585   0.000  0.00  0.00    -0.061 Cl
ENDROOT
BRANCH   3  11
ATOM     11  C   UNL d   1       2.419  -1.488   0.000  0.00  0.00     0.065 A 
ATOM     12  C   UNL d   1       1.605  -1.619   0.000  0.00  0.00     0.018 A 
ATOM     13  C   UNL d   1       1.309  -2.390   0.000  0.00  0.00     0.002 A 
ATOM     14  C   UNL d   1       1.833  -3.040   0.000  0.00  0.00     0.000 A 
ATOM     15  C   UNL d   1       2.647  -2.899   0.000  0.00  0.00     0.002 A 
ATOM     16  C   UNL d   1       2.938  -2.128   0.000  0.00  0.00     0.018 A 
ENDBRANCH   3  11
BRANCH   4  17
ATOM     17  C   UNL d   1       2.579   1.421   0.000  0.00  0.00     0.002 A 
ATOM     18  C   UNL d   1       3.219   1.944   0.000  0.00  0.00     0.000 A 
ATOM     19  C   UNL d   1       3.088   2.759   0.000  0.00  0.00     0.000 A 
ATOM     20  C   UNL d   1       2.318   3.050   0.000  0.00  0.00     0.000 A 
ATOM     21  C   UNL d   1       1.678   2.526   0.000  0.00  0.00     0.000 A 
ATOM     22  C   UNL d   1       1.808   1.716   0.000  0.00  0.00     0.000 A 
ENDBRANCH   4  17
TORSDOF 2
