REMARK  4 active torsions:
REMARK  status: ('A' for Active; 'I' for Inactive)
REMARK    1  A    between atoms: C_2  and  C_1 
REMARK    2  A    between atoms: C_4  and  C_3 
REMARK       I    between atoms: N_6  and  C_4 
REMARK    3  A    between atoms: C_5  and  C_10 
REMARK       I    between atoms: N_9  and  C_5 
REMARK    4  A    between atoms: C_10  and  N_6 
ROOT
ATOM      1  C   UNL d   1       2.701   0.447   0.000  0.00  0.00     0.076 A 
ATOM      2  C   UNL d   1       3.425   0.039   0.000  0.00  0.00     0.062 A 
ATOM      3  C   UNL d   1       1.997   0.029   0.000  0.00  0.00     0.004 A 
ATOM      4  C   UNL d   1       3.425  -0.792   0.000  0.00  0.00     0.005 A 
ATOM      5  C   UNL d   1       2.701  -1.210   0.000  0.00  0.00     0.000 A 
ATOM      6  C   UNL d   1       1.997  -0.792   0.000  0.00  0.00    -0.000 A 
ENDROOT
BRANCH   2   7
ATOM      7  C   UNL d   1       4.139   0.452   0.000  0.00  0.00     0.279 C 
ATOM      8  N   UNL d   1       4.854   0.039   0.000  0.00  0.00    -0.201 NA
ATOM      9  O   UNL d   1       4.130   1.278   0.000  0.00  0.00    -0.265 OA
BRANCH   8  10
ATOM     10  C   UNL d   1       4.858  -0.787   0.000  0.00  0.00     0.166 C 
BRANCH  10  11
ATOM     11  C   UNL d   1       5.573  -1.195   0.000  0.00  0.00     0.318 C 
ATOM     12  O   UNL d   1       5.573  -2.016   0.000  0.00  0.00    -0.262 OA
ATOM     13  N   UNL d   1       6.287  -0.777   0.000  0.00  0.00    -0.083 NA
ATOM     14  N   UNL d   1       7.001  -1.185   0.000  0.00  0.00    -0.019 N 
ENDBRANCH  10  11
ENDBRANCH   8  10
ENDBRANCH   2   7
BRANCH   1  15
ATOM     15  C   UNL d   1       2.701   1.278   0.000  0.00  0.00     0.419 C 
ATOM     16  F   UNL d   1       2.701   2.036   0.000  0.00  0.00    -0.166 F 
ATOM     17  F   UNL d   1       3.381   1.817   0.000  0.00  0.00    -0.166 F 
ATOM     18  F   UNL d   1       2.041   1.817   0.000  0.00  0.00    -0.166 F 
ENDBRANCH   1  15
TORSDOF 4
