REMARK  8 active torsions:
REMARK  status: ('A' for Active; 'I' for Inactive)
REMARK    1  A    between atoms: C_14  and  N_1 
REMARK    2  A    between atoms: N_9  and  C_2 
REMARK    3  A    between atoms: C_6  and  C_5 
REMARK    4  A    between atoms: C_7  and  C_6 
REMARK       I    between atoms: N_8  and  C_7 
REMARK    5  A    between atoms: C_10  and  N_8 
REMARK    6  A    between atoms: C_16  and  N_9 
REMARK    7  A    between atoms: O_15  and  C_13 
REMARK    8  A    between atoms: C_19  and  O_15 
ROOT
ATOM      1  C   UNL d   1       5.516  -1.542   0.000  0.00  0.00     0.074 C 
ENDROOT
BRANCH   1   2
ATOM      2  C   UNL d   1       5.937  -2.254   0.000  0.00  0.00     0.093 A 
ATOM      3  C   UNL d   1       5.612  -3.012   0.000  0.00  0.00     0.272 A 
ATOM      4  N   UNL d   1       6.229  -3.562   0.000  0.00  0.00    -0.252 N 
ATOM      5  O   UNL d   1       4.804  -3.191   0.000  0.00  0.00    -0.266 OA
ATOM      6  C   UNL d   1       6.941  -3.141   0.000  0.00  0.00     0.182 A 
ATOM      7  S   UNL d   1       6.766  -2.337   0.000  0.00  0.00    -0.045 SA
BRANCH   4   8
ATOM      8  C   UNL d   1       6.141  -4.379   0.000  0.00  0.00     0.085 C 
ATOM      9  C   UNL d   1       5.391  -4.716   0.000  0.00  0.00     0.021 C 
ENDBRANCH   4   8
BRANCH   6  10
ATOM     10  N   UNL d   1       7.691  -3.475   0.000  0.00  0.00    -0.221 NA
BRANCH  10  11
ATOM     11  C   UNL d   1       7.787  -4.291   0.000  0.00  0.00     0.101 C 
ATOM     12  C   UNL d   1       8.541  -4.629   0.000  0.00  0.00     0.022 C 
ENDBRANCH  10  11
ENDBRANCH   6  10
ENDBRANCH   1   2
BRANCH   1  13
ATOM     13  C   UNL d   1       4.691  -1.554   0.000  0.00  0.00     0.280 C 
ATOM     14  N   UNL d   1       4.287  -2.266   0.000  0.00  0.00    -0.206 NA
ATOM     15  O   UNL d   1       4.279  -0.842   0.000  0.00  0.00    -0.265 OA
BRANCH  14  16
ATOM     16  C   UNL d   1       3.462  -2.275   0.000  0.00  0.00     0.107 A 
ATOM     17  C   UNL d   1       3.054  -2.991   0.000  0.00  0.00     0.118 A 
ATOM     18  C   UNL d   1       2.229  -3.000   0.000  0.00  0.00     0.026 A 
ATOM     19  C   UNL d   1       1.812  -2.279   0.000  0.00  0.00     0.002 A 
ATOM     20  C   UNL d   1       2.216  -1.567   0.000  0.00  0.00     0.002 A 
ATOM     21  C   UNL d   1       3.041  -1.554   0.000  0.00  0.00     0.021 A 
BRANCH  17  22
ATOM     22  O   UNL d   1       3.479  -3.700   0.000  0.00  0.00    -0.304 OA
BRANCH  22  23
ATOM     23  C   UNL d   1       3.075  -4.416   0.000  0.00  0.00     0.123 C 
ATOM     24  C   UNL d   1       3.491  -5.129   0.000  0.00  0.00     0.029 C 
ENDBRANCH  22  23
ENDBRANCH  17  22
ENDBRANCH  14  16
ENDBRANCH   1  13
TORSDOF 8
