REMARK  4 active torsions:
REMARK  status: ('A' for Active; 'I' for Inactive)
REMARK    1  A    between atoms: N_3  and  C_1 
REMARK       I    between atoms: C_7  and  N_3 
REMARK    2  A    between atoms: C_11  and  C_7 
REMARK    3  A    between atoms: C_12  and  C_11 
REMARK    4  A    between atoms: C_13  and  C_12 
ROOT
ATOM      1  C   UNL d   1      -3.248   1.689   0.000  0.00  0.00     0.124 A 
ATOM      2  C   UNL d   1      -3.503   2.477   0.000  0.00  0.00     0.093 A 
ATOM      3  C   UNL d   1      -3.023   3.148   0.000  0.00  0.00     0.103 C 
ATOM      4  S   UNL d   1      -3.915   1.209   0.000  0.00  0.00    -0.067 SA
ATOM      5  N   UNL d   1      -2.573   3.803   0.000  0.00  0.00    -0.191 NA
ATOM      6  C   UNL d   1      -4.337   2.477   0.000  0.00  0.00     0.019 A 
ATOM      7  C   UNL d   1      -4.587   1.689   0.000  0.00  0.00     0.038 A 
ENDROOT
BRANCH   1   8
ATOM      8  N   UNL d   1      -2.464   1.434   0.000  0.00  0.00    -0.201 NA
ATOM      9  C   UNL d   1      -2.297   0.625   0.000  0.00  0.00     0.280 C 
ATOM     10  O   UNL d   1      -2.910   0.075   0.000  0.00  0.00    -0.265 OA
BRANCH   9  11
ATOM     11  C   UNL d   1      -1.509   0.371   0.000  0.00  0.00     0.062 C 
BRANCH  11  12
ATOM     12  C   UNL d   1      -0.896   0.921   0.000  0.00  0.00     0.005 C 
BRANCH  12  13
ATOM     13  C   UNL d   1      -0.100   0.663   0.000  0.00  0.00     0.000 A 
ATOM     14  C   UNL d   1       0.517   1.213   0.000  0.00  0.00     0.000 A 
ATOM     15  C   UNL d   1       1.293   0.959   0.000  0.00  0.00     0.000 A 
ATOM     16  C   UNL d   1       1.464   0.158   0.000  0.00  0.00     0.000 A 
ATOM     17  C   UNL d   1       0.851  -0.392   0.000  0.00  0.00     0.000 A 
ATOM     18  C   UNL d   1       0.075  -0.142   0.000  0.00  0.00     0.000 A 
ENDBRANCH  12  13
ENDBRANCH  11  12
ENDBRANCH   9  11
ENDBRANCH   1   8
TORSDOF 4
