REMARK  1 active torsions:
REMARK  status: ('A' for Active; 'I' for Inactive)
REMARK    1  A    between atoms: C_4  and  C_1 
ROOT
ATOM      1  C   UNL d   1       0.704  -0.180   0.000  0.00  0.00     0.036 A 
ATOM      2  C   UNL d   1       0.078   0.364   0.000  0.00  0.00     0.061 A 
ATOM      3  C   UNL d   1       0.529  -0.981   0.000  0.00  0.00     0.004 A 
ATOM      4  C   UNL d   1      -0.695   0.112   0.000  0.00  0.00     0.023 A 
ATOM      5  C   UNL d   1      -0.860  -0.700   0.000  0.00  0.00     0.059 A 
ATOM      6 CL   UNL d   1       0.253   1.166   0.000  0.00  0.00    -0.082 Cl
ATOM      7  C   UNL d   1      -0.257  -1.244   0.000  0.00  0.00     0.011 A 
ATOM      8 CL   UNL d   1      -1.642  -0.947   0.000  0.00  0.00    -0.082 Cl
ENDROOT
BRANCH   1   9
ATOM      9  C   UNL d   1       1.491   0.068   0.000  0.00  0.00     0.136 A 
ATOM     10  S   UNL d   1       2.162  -0.413   0.000  0.00  0.00    -0.024 SA
ATOM     11  C   UNL d   1       2.832   0.068   0.000  0.00  0.00     0.236 A 
ATOM     12  N   UNL d   1       3.619  -0.180   0.000  0.00  0.00    -0.118 N 
ATOM     13  N   UNL d   1       2.579   0.870   0.000  0.00  0.00    -0.119 NA
ATOM     14  N   UNL d   1       1.754   0.870   0.000  0.00  0.00    -0.139 NA
ENDBRANCH   1   9
TORSDOF 1
