REMARK  1 active torsions:
REMARK  status: ('A' for Active; 'I' for Inactive)
REMARK    1  A    between atoms: C_6  and  C_1 
ROOT
ATOM      1  C   UNL d   1       2.621   2.020   0.000  0.00  0.00     0.162 A 
ATOM      2  N   UNL d   1       2.141   1.361   0.000  0.00  0.00    -0.225 NA
ATOM      3  N   UNL d   1       2.141   2.689   0.000  0.00  0.00    -0.225 NA
ATOM      4  C   UNL d   1       1.351   1.623   0.000  0.00  0.00     0.101 A 
ATOM      5  C   UNL d   1       1.351   2.442   0.000  0.00  0.00     0.101 A 
ATOM      6  C   UNL d   1       0.644   1.201   0.000  0.00  0.00     0.021 A 
ATOM      7  C   UNL d   1       0.644   2.858   0.000  0.00  0.00     0.021 A 
ATOM      8  C   UNL d   1      -0.068   2.442   0.000  0.00  0.00     0.002 A 
ATOM      9  C   UNL d   1      -0.068   1.608   0.000  0.00  0.00     0.002 A 
ENDROOT
BRANCH   1  10
ATOM     10  C   UNL d   1       3.449   2.020   0.000  0.00  0.00     0.037 A 
ATOM     11  C   UNL d   1       3.871   1.308   0.000  0.00  0.00     0.024 A 
ATOM     12  C   UNL d   1       4.694   1.308   0.000  0.00  0.00     0.103 A 
ATOM     13  N   UNL d   1       5.106   0.581   0.000  0.00  0.00    -0.148 N 
ATOM     14  C   UNL d   1       5.106   2.015   0.000  0.00  0.00     0.021 A 
ATOM     15  C   UNL d   1       4.694   2.742   0.000  0.00  0.00     0.002 A 
ATOM     16  C   UNL d   1       3.856   2.742   0.000  0.00  0.00     0.003 A 
ENDBRANCH   1  10
TORSDOF 1
