REMARK  2 active torsions:
REMARK  status: ('A' for Active; 'I' for Inactive)
REMARK    1  A    between atoms: C_6  and  C_2 
REMARK    2  A    between atoms: O_13  and  C_10 
ROOT
ATOM      1  C   UNL d   1       0.174  -0.131   0.000  0.00  0.00     0.026 A 
ATOM      2  C   UNL d   1      -0.450   0.416   0.000  0.00  0.00     0.004 A 
ATOM      3  C   UNL d   1       0.000  -0.929   0.000  0.00  0.00     0.004 A 
ATOM      4  C   UNL d   1      -1.389  -0.644   0.000  0.00  0.00     0.094 A 
ATOM      5  C   UNL d   1      -1.229   0.169   0.000  0.00  0.00     0.024 A 
ATOM      6  C   UNL d   1      -0.794  -1.191   0.000  0.00  0.00     0.024 A 
ENDROOT
BRANCH   1   7
ATOM      7  C   UNL d   1       0.958   0.126   0.000  0.00  0.00     0.135 A 
ATOM      8  S   UNL d   1       1.626  -0.353   0.000  0.00  0.00    -0.024 SA
ATOM      9  C   UNL d   1       2.285   0.126   0.000  0.00  0.00     0.236 A 
ATOM     10  N   UNL d   1       2.038   0.915   0.000  0.00  0.00    -0.119 NA
ATOM     11  N   UNL d   1       3.069  -0.131   0.000  0.00  0.00    -0.118 N 
ATOM     12  N   UNL d   1       1.210   0.915   0.000  0.00  0.00    -0.139 NA
ENDBRANCH   1   7
BRANCH   4  13
ATOM     13  O   UNL d   1      -2.173  -0.891   0.000  0.00  0.00    -0.328 OA
ATOM     14  C   UNL d   1      -2.783  -0.339   0.000  0.00  0.00     0.181 C 
ENDBRANCH   4  13
TORSDOF 2
