REMARK  8 active torsions:
REMARK  status: ('A' for Active; 'I' for Inactive)
REMARK    1  A    between atoms: C_7  and  C_1 
REMARK    2  A    between atoms: N_5  and  C_2 
REMARK       I    between atoms: C_8  and  N_5 
REMARK    3  A    between atoms: N_9  and  C_7 
REMARK    4  A    between atoms: C_12  and  C_7 
REMARK    5  A    between atoms: C_10  and  C_8 
REMARK    6  A    between atoms: C_11  and  C_14 
REMARK    7  A    between atoms: O_25  and  C_11 
REMARK    8  A    between atoms: C_31  and  O_25 
ROOT
ATOM      1  C   UNL d   1      -0.093   0.448   0.000  0.00  0.00     0.068 C 
ENDROOT
BRANCH   1   2
ATOM      2  C   UNL d   1      -0.853   0.112   0.000  0.00  0.00     0.041 A 
ATOM      3  C   UNL d   1      -1.100  -0.671   0.000  0.00  0.00     0.115 A 
ATOM      4  S   UNL d   1      -1.925  -0.671   0.000  0.00  0.00    -0.068 SA
ATOM      5  C   UNL d   1      -2.177   0.112   0.000  0.00  0.00     0.031 A 
ATOM      6  C   UNL d   1      -1.506   0.611   0.000  0.00  0.00     0.009 A 
ATOM      7  C   UNL d   1      -2.978   0.359   0.000  0.00  0.00     0.007 C 
ATOM      8  C   UNL d   1      -1.506   1.436   0.000  0.00  0.00     0.001 C 
BRANCH   3   9
ATOM      9  N   UNL d   1      -0.611  -1.361   0.000  0.00  0.00    -0.200 NA
ATOM     10  C   UNL d   1      -0.965  -2.125   0.000  0.00  0.00     0.302 C 
ATOM     11  O   UNL d   1      -1.771  -2.186   0.000  0.00  0.00    -0.263 OA
BRANCH  10  12
ATOM     12  C   UNL d   1      -0.471  -2.797   0.000  0.00  0.00     0.158 A 
ATOM     13  O   UNL d   1       0.354  -2.857   0.000  0.00  0.00    -0.300 OA
ATOM     14  C   UNL d   1       0.536  -3.668   0.000  0.00  0.00     0.123 A 
ATOM     15  C   UNL d   1      -0.205  -4.088   0.000  0.00  0.00     0.029 A 
ATOM     16  C   UNL d   1      -0.806  -3.528   0.000  0.00  0.00     0.032 A 
ENDBRANCH  10  12
ENDBRANCH   3   9
ENDBRANCH   1   2
BRANCH   1  17
ATOM     17  N   UNL d   1       0.601  -0.033   0.000  0.00  0.00    -0.304 N 
ATOM     18  C   UNL d   1       1.361   0.294   0.000  0.00  0.00     0.080 A 
ATOM     19  C   UNL d   1       2.014  -0.201   0.000  0.00  0.00     0.024 A 
ATOM     20  C   UNL d   1       1.920  -1.007   0.000  0.00  0.00     0.067 A 
ATOM     21  C   UNL d   1       1.179  -1.361   0.000  0.00  0.00     0.024 A 
ATOM     22  C   UNL d   1       0.508  -0.872   0.000  0.00  0.00     0.080 A 
BRANCH  20  23
ATOM     23  C   UNL d   1       2.592  -1.459   0.000  0.00  0.00     0.300 C 
ATOM     24  O   UNL d   1       3.342  -1.123   0.000  0.00  0.00    -0.259 OA
BRANCH  23  25
ATOM     25  O   UNL d   1       2.559  -2.293   0.000  0.00  0.00    -0.271 OA
BRANCH  25  26
ATOM     26  C   UNL d   1       3.430  -2.592   0.000  0.00  0.00     0.126 C 
ATOM     27  C   UNL d   1       3.468  -3.361   0.000  0.00  0.00     0.029 C 
ENDBRANCH  25  26
ENDBRANCH  23  25
ENDBRANCH  20  23
ENDBRANCH   1  17
BRANCH   1  28
ATOM     28  C   UNL d   1       0.019   1.282   0.000  0.00  0.00     0.035 A 
ATOM     29  C   UNL d   1       0.783   1.589   0.000  0.00  0.00     0.100 A 
ATOM     30  N   UNL d   1       0.895   2.400   0.000  0.00  0.00    -0.242 NA
ATOM     31  C   UNL d   1       0.201   2.932   0.000  0.00  0.00     0.099 A 
ATOM     32  C   UNL d   1      -0.559   2.573   0.000  0.00  0.00     0.021 A 
ATOM     33  C   UNL d   1      -0.652   1.771   0.000  0.00  0.00     0.005 A 
ENDBRANCH   1  28
TORSDOF 8
