REMARK  7 active torsions:
REMARK  status: ('A' for Active; 'I' for Inactive)
REMARK    1  A    between atoms: C_7  and  C_1 
REMARK    2  A    between atoms: N_5  and  C_2 
REMARK       I    between atoms: C_8  and  N_5 
REMARK    3  A    between atoms: N_9  and  C_7 
REMARK    4  A    between atoms: C_12  and  C_7 
REMARK    5  A    between atoms: C_10  and  C_8 
REMARK    6  A    between atoms: C_26  and  N_11 
REMARK    7  A    between atoms: C_30  and  C_26 
ROOT
ATOM      1  C   UNL d   1      -0.092   0.456   0.000  0.00  0.00     0.068 C 
ENDROOT
BRANCH   1   2
ATOM      2  C   UNL d   1      -0.825   0.014   0.000  0.00  0.00     0.041 A 
ATOM      3  C   UNL d   1      -0.996  -0.779   0.000  0.00  0.00     0.115 A 
ATOM      4  S   UNL d   1      -1.820  -0.848   0.000  0.00  0.00    -0.068 SA
ATOM      5  C   UNL d   1      -2.180  -0.115   0.000  0.00  0.00     0.031 A 
ATOM      6  C   UNL d   1      -1.548   0.456   0.000  0.00  0.00     0.009 A 
ATOM      7  C   UNL d   1      -2.986   0.037   0.000  0.00  0.00     0.007 C 
ATOM      8  C   UNL d   1      -1.641   1.272   0.000  0.00  0.00     0.001 C 
BRANCH   3   9
ATOM      9  N   UNL d   1      -0.465  -1.401   0.000  0.00  0.00    -0.200 NA
ATOM     10  C   UNL d   1      -0.756  -2.175   0.000  0.00  0.00     0.302 C 
ATOM     11  O   UNL d   1      -1.571  -2.309   0.000  0.00  0.00    -0.263 OA
BRANCH  10  12
ATOM     12  C   UNL d   1      -0.244  -2.821   0.000  0.00  0.00     0.158 A 
ATOM     13  O   UNL d   1       0.595  -2.839   0.000  0.00  0.00    -0.300 OA
ATOM     14  C   UNL d   1       0.816  -3.636   0.000  0.00  0.00     0.123 A 
ATOM     15  C   UNL d   1       0.129  -4.079   0.000  0.00  0.00     0.029 A 
ATOM     16  C   UNL d   1      -0.535  -3.595   0.000  0.00  0.00     0.032 A 
ENDBRANCH  10  12
ENDBRANCH   3   9
ENDBRANCH   1   2
BRANCH   1  17
ATOM     17  N   UNL d   1       0.641   0.014   0.000  0.00  0.00    -0.301 N 
ATOM     18  C   UNL d   1       1.346   0.438   0.000  0.00  0.00     0.100 A 
ATOM     19  C   UNL d   1       2.051   0.014   0.000  0.00  0.00     0.100 A 
ATOM     20  N   UNL d   1       2.051  -0.830   0.000  0.00  0.00    -0.297 N 
ATOM     21  C   UNL d   1       1.346  -1.221   0.000  0.00  0.00     0.100 A 
ATOM     22  C   UNL d   1       0.641  -0.830   0.000  0.00  0.00     0.100 A 
BRANCH  20  23
ATOM     23  C   UNL d   1       2.784  -1.249   0.000  0.00  0.00     0.126 C 
BRANCH  23  24
ATOM     24  C   UNL d   1       3.517  -0.830   0.000  0.00  0.00     0.253 C 
ATOM     25  O   UNL d   1       4.245  -1.249   0.000  0.00  0.00    -0.281 OA
ENDBRANCH  23  24
ENDBRANCH  20  23
ENDBRANCH   1  17
BRANCH   1  26
ATOM     26  C   UNL d   1      -0.092   1.295   0.000  0.00  0.00     0.035 A 
ATOM     27  C   UNL d   1       0.641   1.696   0.000  0.00  0.00     0.100 A 
ATOM     28  N   UNL d   1       0.641   2.539   0.000  0.00  0.00    -0.242 NA
ATOM     29  C   UNL d   1      -0.092   2.931   0.000  0.00  0.00     0.099 A 
ATOM     30  C   UNL d   1      -0.797   2.539   0.000  0.00  0.00     0.021 A 
ATOM     31  C   UNL d   1      -0.797   1.696   0.000  0.00  0.00     0.005 A 
ENDBRANCH   1  26
TORSDOF 7
