REMARK  3 active torsions:
REMARK  status: ('A' for Active; 'I' for Inactive)
REMARK    1  A    between atoms: C_8  and  N_2 
REMARK    2  A    between atoms: C_14  and  C_8 
REMARK    3  A    between atoms: N_13  and  C_14 
ROOT
ATOM      1  C   UNL d   1       3.937  -0.601   0.000  0.00  0.00     0.166 A 
ATOM      2  N   UNL d   1       3.479  -1.277   0.000  0.00  0.00    -0.288 N 
ATOM      3  C   UNL d   1       3.474   0.086   0.000  0.00  0.00     0.117 A 
ATOM      4  C   UNL d   1       2.721  -0.176   0.000  0.00  0.00     0.037 A 
ATOM      5  C   UNL d   1       2.721  -1.034   0.000  0.00  0.00     0.067 A 
ATOM      6  N   UNL d   1       4.723  -0.505   0.000  0.00  0.00    -0.225 NA
ATOM      7  N   UNL d   1       3.789   0.853   0.000  0.00  0.00    -0.241 NA
ATOM      8  C   UNL d   1       5.037   0.267   0.000  0.00  0.00     0.101 A 
ATOM      9  C   UNL d   1       4.566   0.944   0.000  0.00  0.00     0.099 A 
ATOM     10  C   UNL d   1       2.035  -1.458   0.000  0.00  0.00     0.018 A 
ATOM     11  C   UNL d   1       2.035   0.238   0.000  0.00  0.00     0.010 A 
ATOM     12  C   UNL d   1       1.349  -0.176   0.000  0.00  0.00     0.035 A 
ATOM     13  C   UNL d   1       1.349  -1.034   0.000  0.00  0.00     0.008 A 
ATOM     14 BR   UNL d   1       0.643   0.210   0.000  0.00  0.00    -0.049 Br
ATOM     15  C   UNL d   1       4.890   1.711   0.000  0.00  0.00     0.021 A 
ATOM     16  C   UNL d   1       5.819   0.357   0.000  0.00  0.00     0.021 A 
ATOM     17  C   UNL d   1       6.133   1.125   0.000  0.00  0.00     0.002 A 
ATOM     18  C   UNL d   1       5.667   1.801   0.000  0.00  0.00     0.002 A 
ENDROOT
BRANCH   2  19
ATOM     19  C   UNL d   1       3.732  -2.087   0.000  0.00  0.00     0.101 C 
BRANCH  19  20
ATOM     20  C   UNL d   1       3.131  -2.678   0.000  0.00  0.00     0.100 C 
BRANCH  20  21
ATOM     21  N   UNL d   1       3.550  -3.408   0.000  0.00  0.00    -0.298 N 
ATOM     22  C   UNL d   1       3.122  -4.137   0.000  0.00  0.00     0.107 A 
ATOM     23  C   UNL d   1       3.536  -4.861   0.000  0.00  0.00     0.142 A 
ATOM     24  O   UNL d   1       4.375  -4.866   0.000  0.00  0.00    -0.300 OA
ATOM     25  C   UNL d   1       4.794  -4.137   0.000  0.00  0.00     0.142 A 
ATOM     26  C   UNL d   1       4.380  -3.408   0.000  0.00  0.00     0.107 A 
ENDBRANCH  20  21
ENDBRANCH  19  20
ENDBRANCH   2  19
TORSDOF 3
