REMARK  0 active torsions:
REMARK  status: ('A' for Active; 'I' for Inactive)
ROOT
ATOM      1  C   UNL d   1       3.545  -2.655   0.000  0.00  0.00     0.180 A 
ATOM      2  C   UNL d   1       3.056  -1.983   0.000  0.00  0.00     0.118 A 
ATOM      3  N   UNL d   1       3.382  -1.232   0.000  0.00  0.00    -0.241 NA
ATOM      4  N   UNL d   1       3.061  -3.324   0.000  0.00  0.00    -0.225 NA
ATOM      5  N   UNL d   1       4.363  -2.559   0.000  0.00  0.00    -0.224 NA
ATOM      6  C   UNL d   1       2.271  -2.246   0.000  0.00  0.00     0.038 A 
ATOM      7  C   UNL d   1       2.271  -3.073   0.000  0.00  0.00     0.085 A 
ATOM      8  C   UNL d   1       4.200  -1.144   0.000  0.00  0.00     0.099 A 
ATOM      9  C   UNL d   1       4.689  -1.808   0.000  0.00  0.00     0.101 A 
ATOM     10  C   UNL d   1       1.553  -1.833   0.000  0.00  0.00     0.003 A 
ATOM     11  C   UNL d   1       1.553  -3.495   0.000  0.00  0.00     0.019 A 
ATOM     12  C   UNL d   1       4.534  -0.393   0.000  0.00  0.00     0.021 A 
ATOM     13  C   UNL d   1       5.503  -1.716   0.000  0.00  0.00     0.021 A 
ATOM     14  C   UNL d   1       0.839  -2.255   0.000  0.00  0.00     0.000 A 
ATOM     15  C   UNL d   1       0.839  -3.081   0.000  0.00  0.00     0.002 A 
ATOM     16  C   UNL d   1       5.349  -0.301   0.000  0.00  0.00     0.002 A 
ATOM     17  C   UNL d   1       5.837  -0.965   0.000  0.00  0.00     0.002 A 
ENDROOT
TORSDOF 0
