REMARK  7 active torsions:
REMARK  status: ('A' for Active; 'I' for Inactive)
REMARK    1  A    between atoms: C_4  and  S_1 
REMARK    2  A    between atoms: N_6  and  S_1 
REMARK    3  A    between atoms: S_2  and  N_3 
REMARK    4  A    between atoms: C_8  and  S_2 
REMARK    5  A    between atoms: N_3  and  C_7 
REMARK    6  A    between atoms: C_20  and  N_13 
REMARK    7  A    between atoms: C_18  and  C_20 
ROOT
ATOM      1  C   UNL d   1       5.975  -7.112   0.000  0.00  0.00     0.105 A 
ATOM      2  C   UNL d   1       5.554  -6.404   0.000  0.00  0.00     0.029 A 
ATOM      3  C   UNL d   1       4.729  -6.412   0.000  0.00  0.00     0.076 A 
ATOM      4  C   UNL d   1       5.562  -7.838   0.000  0.00  0.00     0.013 A 
ATOM      5  C   UNL d   1       4.325  -7.125   0.000  0.00  0.00     0.017 A 
ATOM      6  C   UNL d   1       4.737  -7.838   0.000  0.00  0.00     0.002 A 
ATOM      7  C   UNL d   1       5.963  -5.688   0.000  0.00  0.00     0.002 C 
ATOM      8  C   UNL d   1       3.500  -7.129   0.000  0.00  0.00     0.002 C 
ENDROOT
BRANCH   1   9
ATOM      9  S   UNL d   1       6.800  -7.104   0.000  0.00  0.00     0.272 S 
ATOM     10  O   UNL d   1       7.204  -6.388   0.000  0.00  0.00    -0.200 OA
ATOM     11  O   UNL d   1       7.217  -7.817   0.000  0.00  0.00    -0.200 OA
BRANCH   9  12
ATOM     12  N   UNL d   1       7.625  -7.104   0.000  0.00  0.00    -0.226 N 
ATOM     13  C   UNL d   1       8.029  -7.817   0.000  0.00  0.00     0.111 A 
ATOM     14  C   UNL d   1       8.854  -7.817   0.000  0.00  0.00     0.100 A 
ATOM     15  N   UNL d   1       9.267  -7.104   0.000  0.00  0.00    -0.300 N 
ATOM     16  C   UNL d   1       8.854  -6.392   0.000  0.00  0.00     0.100 A 
ATOM     17  C   UNL d   1       8.029  -6.392   0.000  0.00  0.00     0.111 A 
BRANCH  15  18
ATOM     18  C   UNL d   1      10.092  -7.112   0.000  0.00  0.00     0.080 C 
BRANCH  18  19
ATOM     19  C   UNL d   1      10.504  -7.829   0.000  0.00  0.00     0.018 C 
ATOM     20  C   UNL d   1      11.329  -7.829   0.000  0.00  0.00     0.002 C 
ATOM     21  C   UNL d   1      10.092  -8.542   0.000  0.00  0.00     0.002 C 
ENDBRANCH  18  19
ENDBRANCH  15  18
ENDBRANCH   9  12
ENDBRANCH   1   9
BRANCH   3  22
ATOM     22  N   UNL d   1       4.317  -5.700   0.000  0.00  0.00    -0.229 N 
ATOM     23  C   UNL d   1       4.729  -4.979   0.000  0.00  0.00     0.111 C 
BRANCH  22  24
ATOM     24  S   UNL d   1       3.492  -5.700   0.000  0.00  0.00     0.271 S 
ATOM     25  O   UNL d   1       3.904  -6.417   0.000  0.00  0.00    -0.200 OA
ATOM     26  O   UNL d   1       3.913  -4.987   0.000  0.00  0.00    -0.200 OA
BRANCH  24  27
ATOM     27  C   UNL d   1       2.667  -5.700   0.000  0.00  0.00     0.104 A 
ATOM     28  C   UNL d   1       2.254  -4.987   0.000  0.00  0.00     0.013 A 
ATOM     29  C   UNL d   1       1.442  -4.987   0.000  0.00  0.00     0.001 A 
ATOM     30  C   UNL d   1       1.029  -5.692   0.000  0.00  0.00     0.000 A 
ATOM     31  C   UNL d   1       1.429  -6.412   0.000  0.00  0.00     0.001 A 
ATOM     32  C   UNL d   1       0.204  -5.692   0.000  0.00  0.00     0.000 C 
ATOM     33  C   UNL d   1       2.254  -6.417   0.000  0.00  0.00     0.013 A 
ENDBRANCH  24  27
ENDBRANCH  22  24
ENDBRANCH   3  22
TORSDOF 7
