REMARK  4 active torsions:
REMARK  status: ('A' for Active; 'I' for Inactive)
REMARK    1  A    between atoms: N_2  and  S_1 
REMARK    2  A    between atoms: C_3  and  S_1 
REMARK    3  A    between atoms: O_16  and  C_8 
REMARK    4  A    between atoms: O_17  and  C_11 
ROOT
ATOM      1  S   UNL d   1       2.593  -0.693   0.000  0.00  0.00     0.271 S 
ATOM      2  O   UNL d   1       2.184   0.021   0.000  0.00  0.00    -0.200 OA
ATOM      3  O   UNL d   1       3.006  -1.415   0.000  0.00  0.00    -0.200 OA
ENDROOT
BRANCH   1   4
ATOM      4  N   UNL d   1       1.879  -1.107   0.000  0.00  0.00    -0.229 N 
ATOM      5  C   UNL d   1       1.165  -0.693   0.000  0.00  0.00     0.092 A 
ATOM      6  C   UNL d   1       0.451  -1.107   0.000  0.00  0.00     0.018 A 
ATOM      7  C   UNL d   1      -0.263  -0.693   0.000  0.00  0.00     0.002 A 
ATOM      8  C   UNL d   1       0.451  -1.933   0.000  0.00  0.00     0.003 A 
ATOM      9  C   UNL d   1      -0.977  -1.107   0.000  0.00  0.00     0.000 A 
ATOM     10  C   UNL d   1      -0.977  -1.933   0.000  0.00  0.00     0.000 A 
ATOM     11  C   UNL d   1      -0.263  -2.347   0.000  0.00  0.00     0.000 A 
ATOM     12  C   UNL d   1       1.165  -2.347   0.000  0.00  0.00     0.020 A 
ATOM     13  C   UNL d   1       1.879  -1.933   0.000  0.00  0.00     0.092 A 
ENDBRANCH   1   4
BRANCH   1  14
ATOM     14  C   UNL d   1       3.307  -0.288   0.000  0.00  0.00     0.106 A 
ATOM     15  C   UNL d   1       3.307   0.539   0.000  0.00  0.00     0.039 A 
ATOM     16  C   UNL d   1       4.021   0.948   0.000  0.00  0.00     0.117 A 
ATOM     17  C   UNL d   1       4.735   0.539   0.000  0.00  0.00     0.116 A 
ATOM     18  C   UNL d   1       4.735  -0.288   0.000  0.00  0.00     0.027 A 
ATOM     19  C   UNL d   1       4.021  -0.693   0.000  0.00  0.00     0.015 A 
BRANCH  16  20
ATOM     20  O   UNL d   1       4.021   1.774   0.000  0.00  0.00    -0.326 OA
ATOM     21  C   UNL d   1       4.739   2.188   0.000  0.00  0.00     0.181 C 
ENDBRANCH  16  20
BRANCH  17  22
ATOM     22  O   UNL d   1       5.453   0.952   0.000  0.00  0.00    -0.326 OA
ATOM     23  C   UNL d   1       6.167   0.539   0.000  0.00  0.00     0.181 C 
ENDBRANCH  17  22
ENDBRANCH   1  14
TORSDOF 4
