REMARK  3 active torsions:
REMARK  status: ('A' for Active; 'I' for Inactive)
REMARK       I    between atoms: C_2  and  N_1 
REMARK    1  A    between atoms: C_4  and  C_2 
REMARK    2  A    between atoms: C_6  and  C_4 
REMARK    3  A    between atoms: C_10  and  C_6 
ROOT
ATOM      1  N   UNL d   1       2.436  -0.187   0.000  0.00  0.00    -0.273 N 
ATOM      2  C   UNL d   1       1.733  -0.603   0.000  0.00  0.00     0.265 C 
ATOM      3  C   UNL d   1       3.184  -0.515   0.000  0.00  0.00     0.067 A 
ATOM      4  C   UNL d   1       2.511   0.632   0.000  0.00  0.00     0.083 A 
ATOM      5  C   UNL d   1       3.733   0.100   0.000  0.00  0.00     0.018 A 
ATOM      6  O   UNL d   1       1.738  -1.426   0.000  0.00  0.00    -0.267 OA
ATOM      7  C   UNL d   1       3.321   0.811   0.000  0.00  0.00     0.021 A 
ATOM      8  C   UNL d   1       3.446  -1.301   0.000  0.00  0.00     0.018 A 
ATOM      9  C   UNL d   1       4.544  -0.067   0.000  0.00  0.00     0.002 A 
ATOM     10  C   UNL d   1       4.253  -1.463   0.000  0.00  0.00     0.002 A 
ATOM     11  C   UNL d   1       4.806  -0.848   0.000  0.00  0.00     0.000 A 
ENDROOT
BRANCH   2  12
ATOM     12  C   UNL d   1       1.014  -0.200   0.000  0.00  0.00     0.061 C 
BRANCH  12  13
ATOM     13  C   UNL d   1       0.303  -0.615   0.000  0.00  0.00     0.005 C 
BRANCH  13  14
ATOM     14  C   UNL d   1      -0.407  -0.204   0.000  0.00  0.00     0.002 A 
ATOM     15  C   UNL d   1      -1.122  -0.615   0.000  0.00  0.00     0.030 A 
ATOM     16  C   UNL d   1      -1.841  -0.204   0.000  0.00  0.00     0.140 A 
ATOM     17  F   UNL d   1      -2.552  -0.615   0.000  0.00  0.00    -0.204 F 
ATOM     18  C   UNL d   1      -1.841   0.624   0.000  0.00  0.00     0.030 A 
ATOM     19  C   UNL d   1      -1.122   1.035   0.000  0.00  0.00     0.002 A 
ATOM     20  C   UNL d   1      -0.407   0.624   0.000  0.00  0.00     0.000 A 
ENDBRANCH  13  14
ENDBRANCH  12  13
ENDBRANCH   2  12
TORSDOF 3
