REMARK  4 active torsions:
REMARK  status: ('A' for Active; 'I' for Inactive)
REMARK    1  A    between atoms: N_2  and  S_1 
REMARK    2  A    between atoms: C_4  and  S_1 
REMARK    3  A    between atoms: O_16  and  C_13 
REMARK    4  A    between atoms: C_19  and  O_16 
ROOT
ATOM      1  S   UNL d   1       3.325  -0.113   0.000  0.00  0.00     0.271 S 
ATOM      2  O   UNL d   1       2.913  -0.829   0.000  0.00  0.00    -0.200 OA
ATOM      3  O   UNL d   1       3.737   0.608   0.000  0.00  0.00    -0.200 OA
ENDROOT
BRANCH   1   4
ATOM      4  N   UNL d   1       2.604   0.300   0.000  0.00  0.00    -0.229 N 
ATOM      5  C   UNL d   1       1.892  -0.113   0.000  0.00  0.00     0.092 A 
ATOM      6  C   UNL d   1       1.179   0.300   0.000  0.00  0.00     0.018 A 
ATOM      7  C   UNL d   1       0.463  -0.113   0.000  0.00  0.00     0.002 A 
ATOM      8  C   UNL d   1       1.179   1.125   0.000  0.00  0.00     0.003 A 
ATOM      9  C   UNL d   1      -0.250   0.300   0.000  0.00  0.00     0.000 A 
ATOM     10  C   UNL d   1      -0.250   1.125   0.000  0.00  0.00     0.000 A 
ATOM     11  C   UNL d   1       0.463   1.538   0.000  0.00  0.00     0.000 A 
ATOM     12  C   UNL d   1       1.892   1.538   0.000  0.00  0.00     0.020 A 
ATOM     13  C   UNL d   1       2.604   1.125   0.000  0.00  0.00     0.092 A 
ENDBRANCH   1   4
BRANCH   1  14
ATOM     14  C   UNL d   1       4.037  -0.525   0.000  0.00  0.00     0.104 A 
ATOM     15  C   UNL d   1       4.754  -0.113   0.000  0.00  0.00     0.015 A 
ATOM     16  C   UNL d   1       5.467  -0.525   0.000  0.00  0.00     0.025 A 
ATOM     17  C   UNL d   1       5.467  -1.350   0.000  0.00  0.00     0.100 A 
ATOM     18  C   UNL d   1       4.754  -1.762   0.000  0.00  0.00     0.025 A 
ATOM     19  C   UNL d   1       4.037  -1.350   0.000  0.00  0.00     0.015 A 
BRANCH  17  20
ATOM     20  O   UNL d   1       6.179  -1.762   0.000  0.00  0.00    -0.305 OA
BRANCH  20  21
ATOM     21  C   UNL d   1       6.179  -2.587   0.000  0.00  0.00     0.123 C 
ATOM     22  C   UNL d   1       6.892  -3.000   0.000  0.00  0.00     0.029 C 
ENDBRANCH  20  21
ENDBRANCH  17  20
ENDBRANCH   1  14
TORSDOF 4
