REMARK  7 active torsions:
REMARK  status: ('A' for Active; 'I' for Inactive)
REMARK    1  A    between atoms: S_2  and  C_1 
REMARK    2  A    between atoms: N_7  and  S_2 
REMARK    3  A    between atoms: C_8  and  C_3 
REMARK    4  A    between atoms: C_10  and  C_6 
REMARK    5  A    between atoms: O_21  and  C_8 
REMARK    6  A    between atoms: C_17  and  N_9 
REMARK    7  A    between atoms: O_22  and  C_10 
ROOT
ATOM      1  S   UNL d   1       2.893   1.838   0.000  0.00  0.00     0.277 S 
ATOM      2  O   UNL d   1       2.510   1.107   0.000  0.00  0.00    -0.199 OA
ATOM      3  O   UNL d   1       2.102   1.970   0.000  0.00  0.00    -0.199 OA
ENDROOT
BRANCH   1   4
ATOM      4  C   UNL d   1       2.767   2.662   0.000  0.00  0.00     0.139 A 
ATOM      5  C   UNL d   1       3.400   3.163   0.000  0.00  0.00     0.082 A 
ATOM      6  C   UNL d   1       3.110   3.927   0.000  0.00  0.00     0.018 A 
ATOM      7  C   UNL d   1       3.558   4.658   0.000  0.00  0.00     0.001 C 
ATOM      8  C   UNL d   1       2.293   3.894   0.000  0.00  0.00     0.093 A 
ATOM      9  S   UNL d   1       2.062   3.103   0.000  0.00  0.00    -0.069 SA
BRANCH   5  10
ATOM     10  C   UNL d   1       4.250   2.978   0.000  0.00  0.00     0.297 C 
ATOM     11  O   UNL d   1       4.507   2.188   0.000  0.00  0.00    -0.259 OA
BRANCH  10  12
ATOM     12  O   UNL d   1       4.790   3.611   0.000  0.00  0.00    -0.296 OA
ATOM     13  C   UNL d   1       5.614   3.453   0.000  0.00  0.00     0.185 C 
ENDBRANCH  10  12
ENDBRANCH   5  10
BRANCH   8  14
ATOM     14  C   UNL d   1       1.786   4.560   0.000  0.00  0.00     0.302 C 
ATOM     15  O   UNL d   1       2.102   5.317   0.000  0.00  0.00    -0.259 OA
BRANCH  14  16
ATOM     16  O   UNL d   1       0.956   4.428   0.000  0.00  0.00    -0.295 OA
ATOM     17  C   UNL d   1       0.639   3.670   0.000  0.00  0.00     0.185 C 
ENDBRANCH  14  16
ENDBRANCH   8  14
ENDBRANCH   1   4
BRANCH   1  18
ATOM     18  N   UNL d   1       3.486   1.239   0.000  0.00  0.00    -0.226 N 
ATOM     19  C   UNL d   1       4.316   1.423   0.000  0.00  0.00     0.111 A 
ATOM     20  C   UNL d   1       4.883   0.824   0.000  0.00  0.00     0.100 A 
ATOM     21  N   UNL d   1       4.665   0.033   0.000  0.00  0.00    -0.301 N 
ATOM     22  C   UNL d   1       3.861  -0.145   0.000  0.00  0.00     0.100 A 
ATOM     23  C   UNL d   1       3.268   0.448   0.000  0.00  0.00     0.111 A 
BRANCH  21  24
ATOM     24  C   UNL d   1       5.199  -0.560   0.000  0.00  0.00     0.064 A 
ATOM     25  C   UNL d   1       4.981  -1.351   0.000  0.00  0.00     0.018 A 
ATOM     26  C   UNL d   1       5.541  -1.957   0.000  0.00  0.00     0.002 A 
ATOM     27  C   UNL d   1       6.332  -1.766   0.000  0.00  0.00     0.000 A 
ATOM     28  C   UNL d   1       6.563  -0.975   0.000  0.00  0.00     0.002 A 
ATOM     29  C   UNL d   1       6.016  -0.376   0.000  0.00  0.00     0.018 A 
ENDBRANCH  21  24
ENDBRANCH   1  18
TORSDOF 7
