REMARK  3 active torsions:
REMARK  status: ('A' for Active; 'I' for Inactive)
REMARK    1  A    between atoms: N_2  and  S_1 
REMARK    2  A    between atoms: C_5  and  S_1 
REMARK    3  A    between atoms: C_4  and  C_3 
ROOT
ATOM      1  C   UNL d   1       0.000   2.292   0.000  0.00  0.00     0.083 A 
ATOM      2  C   UNL d   1      -0.722   1.052   0.000  0.00  0.00     0.104 A 
ATOM      3  C   UNL d   1       0.000   1.471   0.000  0.00  0.00     0.018 A 
ATOM      4  C   UNL d   1      -0.722   2.711   0.000  0.00  0.00     0.062 A 
ATOM      5  C   UNL d   1      -1.433   1.471   0.000  0.00  0.00     0.014 A 
ATOM      6  C   UNL d   1      -1.433   2.292   0.000  0.00  0.00     0.012 A 
ATOM      7 CL   UNL d   1      -0.722   3.532   0.000  0.00  0.00    -0.082 Cl
ENDROOT
BRANCH   2   8
ATOM      8  S   UNL d   1      -0.722   0.226   0.000  0.00  0.00     0.272 S 
ATOM      9  O   UNL d   1      -1.537   0.226   0.000  0.00  0.00    -0.200 OA
ATOM     10  O   UNL d   1      -0.722  -0.617   0.000  0.00  0.00    -0.200 OA
BRANCH   8  11
ATOM     11  N   UNL d   1       0.132   0.226   0.000  0.00  0.00    -0.225 N 
ATOM     12  C   UNL d   1       0.551  -0.512   0.000  0.00  0.00     0.116 A 
ATOM     13  C   UNL d   1       1.372  -0.512   0.000  0.00  0.00     0.118 A 
ATOM     14  C   UNL d   1       1.791  -1.229   0.000  0.00  0.00     0.028 C 
ATOM     15  O   UNL d   1       1.791   0.226   0.000  0.00  0.00    -0.304 OA
ATOM     16  C   UNL d   1       1.372   0.942   0.000  0.00  0.00     0.118 A 
ATOM     17  C   UNL d   1       0.551   0.942   0.000  0.00  0.00     0.116 A 
ATOM     18  C   UNL d   1       1.791   1.653   0.000  0.00  0.00     0.028 C 
ENDBRANCH   8  11
ENDBRANCH   2   8
BRANCH   1  19
ATOM     19  C   UNL d   1       0.733   2.711   0.000  0.00  0.00     0.420 C 
ATOM     20  F   UNL d   1       1.455   3.135   0.000  0.00  0.00    -0.166 F 
ATOM     21  F   UNL d   1       1.163   2.000   0.000  0.00  0.00    -0.166 F 
ATOM     22  F   UNL d   1       0.314   3.433   0.000  0.00  0.00    -0.166 F 
ENDBRANCH   1  19
TORSDOF 3
