REMARK  5 active torsions:
REMARK  status: ('A' for Active; 'I' for Inactive)
REMARK    1  A    between atoms: C_3  and  S_1 
REMARK    2  A    between atoms: N_6  and  S_1 
REMARK    3  A    between atoms: S_2  and  N_4 
REMARK    4  A    between atoms: C_10  and  S_2 
REMARK    5  A    between atoms: N_4  and  C_5 
ROOT
ATOM      1  C   UNL d   1       1.131   0.141   0.000  0.00  0.00     0.105 A 
ATOM      2  C   UNL d   1       0.770  -1.237   0.000  0.00  0.00     0.076 A 
ATOM      3  C   UNL d   1       0.546  -0.452   0.000  0.00  0.00     0.031 A 
ATOM      4  C   UNL d   1       1.925  -0.075   0.000  0.00  0.00     0.012 A 
ATOM      5  C   UNL d   1       1.567  -1.453   0.000  0.00  0.00     0.017 A 
ATOM      6  C   UNL d   1       2.149  -0.876   0.000  0.00  0.00     0.002 A 
ATOM      7  C   UNL d   1       1.791  -2.255   0.000  0.00  0.00     0.002 C 
ATOM      8  C   UNL d   1       2.510   0.518   0.000  0.00  0.00     0.001 C 
ENDROOT
BRANCH   2   9
ATOM      9  N   UNL d   1       0.169  -1.807   0.000  0.00  0.00    -0.229 N 
ATOM     10  C   UNL d   1       0.369  -2.592   0.000  0.00  0.00     0.111 C 
BRANCH   9  11
ATOM     11  S   UNL d   1      -0.609  -1.571   0.000  0.00  0.00     0.271 S 
ATOM     12  O   UNL d   1      -0.848  -2.357   0.000  0.00  0.00    -0.200 OA
ATOM     13  O   UNL d   1      -0.385  -0.770   0.000  0.00  0.00    -0.200 OA
BRANCH  11  14
ATOM     14  C   UNL d   1      -1.414  -1.335   0.000  0.00  0.00     0.104 A 
ATOM     15  C   UNL d   1      -1.610  -0.534   0.000  0.00  0.00     0.013 A 
ATOM     16  C   UNL d   1      -2.392  -0.310   0.000  0.00  0.00     0.001 A 
ATOM     17  C   UNL d   1      -2.981  -0.896   0.000  0.00  0.00     0.000 A 
ATOM     18  C   UNL d   1      -2.789  -1.677   0.000  0.00  0.00     0.001 A 
ATOM     19  C   UNL d   1      -3.790  -0.676   0.000  0.00  0.00     0.000 C 
ATOM     20  C   UNL d   1      -2.003  -1.913   0.000  0.00  0.00     0.013 A 
ENDBRANCH  11  14
ENDBRANCH   9  11
ENDBRANCH   2   9
BRANCH   1  21
ATOM     21  S   UNL d   1       0.923   0.943   0.000  0.00  0.00     0.271 S 
ATOM     22  O   UNL d   1       1.732   1.163   0.000  0.00  0.00    -0.200 OA
ATOM     23  O   UNL d   1       0.110   0.727   0.000  0.00  0.00    -0.200 OA
BRANCH  21  24
ATOM     24  N   UNL d   1       0.711   1.744   0.000  0.00  0.00    -0.229 N 
ATOM     25  C   UNL d   1      -0.079   1.964   0.000  0.00  0.00     0.092 A 
ATOM     26  C   UNL d   1      -0.306   2.765   0.000  0.00  0.00     0.020 A 
ATOM     27  C   UNL d   1       0.275   3.343   0.000  0.00  0.00     0.003 A 
ATOM     28  C   UNL d   1       1.072   3.119   0.000  0.00  0.00     0.020 A 
ATOM     29  C   UNL d   1       0.071   4.128   0.000  0.00  0.00     0.000 C 
ATOM     30  C   UNL d   1       1.277   2.341   0.000  0.00  0.00     0.092 A 
ENDBRANCH  21  24
ENDBRANCH   1  21
TORSDOF 5
