REMARK  3 active torsions:
REMARK  status: ('A' for Active; 'I' for Inactive)
REMARK    1  A    between atoms: N_2  and  S_1 
REMARK    2  A    between atoms: C_3  and  S_1 
REMARK    3  A    between atoms: C_5  and  N_4 
ROOT
ATOM      1  N   UNL d   1       3.429   0.175   0.000  0.00  0.00    -0.226 N 
ATOM      2  N   UNL d   1       1.788   0.175   0.000  0.00  0.00    -0.301 N 
ATOM      3  C   UNL d   1       3.017   0.887   0.000  0.00  0.00     0.111 A 
ATOM      4  C   UNL d   1       3.017  -0.537   0.000  0.00  0.00     0.111 A 
ATOM      5  C   UNL d   1       2.192   0.887   0.000  0.00  0.00     0.100 A 
ATOM      6  C   UNL d   1       2.192  -0.537   0.000  0.00  0.00     0.100 A 
ENDROOT
BRANCH   1   7
ATOM      7  S   UNL d   1       4.254   0.175   0.000  0.00  0.00     0.271 S 
ATOM      8  O   UNL d   1       4.254   1.000   0.000  0.00  0.00    -0.200 OA
ATOM      9  O   UNL d   1       4.254  -0.650   0.000  0.00  0.00    -0.200 OA
BRANCH   7  10
ATOM     10  C   UNL d   1       5.079   0.175   0.000  0.00  0.00     0.104 A 
ATOM     11  C   UNL d   1       5.492  -0.537   0.000  0.00  0.00     0.015 A 
ATOM     12  C   UNL d   1       6.317  -0.537   0.000  0.00  0.00     0.028 A 
ATOM     13  C   UNL d   1       6.729  -1.254   0.000  0.00  0.00     0.002 C 
ATOM     14  C   UNL d   1       6.729   0.175   0.000  0.00  0.00     0.140 A 
ATOM     15  C   UNL d   1       6.317   0.887   0.000  0.00  0.00     0.030 A 
ATOM     16  F   UNL d   1       7.554   0.175   0.000  0.00  0.00    -0.204 F 
ATOM     17  C   UNL d   1       5.492   0.887   0.000  0.00  0.00     0.015 A 
ENDBRANCH   7  10
ENDBRANCH   1   7
BRANCH   2  18
ATOM     18  C   UNL d   1       0.963   0.175   0.000  0.00  0.00     0.064 A 
ATOM     19  C   UNL d   1       0.550  -0.537   0.000  0.00  0.00     0.016 A 
ATOM     20  C   UNL d   1      -0.275  -0.537   0.000  0.00  0.00     0.001 A 
ATOM     21  C   UNL d   1       0.963  -1.254   0.000  0.00  0.00     0.002 C 
ATOM     22  C   UNL d   1      -0.688   0.175   0.000  0.00  0.00     0.000 A 
ATOM     23  C   UNL d   1      -0.275   0.887   0.000  0.00  0.00     0.002 A 
ATOM     24  C   UNL d   1      -1.512   0.175   0.000  0.00  0.00     0.000 C 
ATOM     25  C   UNL d   1       0.550   0.887   0.000  0.00  0.00     0.018 A 
ENDBRANCH   2  18
TORSDOF 3
