REMARK  1 active torsions:
REMARK  status: ('A' for Active; 'I' for Inactive)
REMARK    1  A    between atoms: C_12  and  N_4 
ROOT
ATOM      1  C   UNL d   1      -0.524   0.531   0.000  0.00  0.00     0.081 A 
ATOM      2  C   UNL d   1      -0.077  -0.155   0.000  0.00  0.00     0.118 A 
ATOM      3  C   UNL d   1      -0.136   1.276   0.000  0.00  0.00     0.268 A 
ATOM      4  N   UNL d   1       0.686   1.315   0.000  0.00  0.00    -0.249 N 
ATOM      5  N   UNL d   1       0.745  -0.140   0.000  0.00  0.00    -0.212 NA
ATOM      6  C   UNL d   1       1.133   0.605   0.000  0.00  0.00     0.209 A 
ATOM      7  S   UNL d   1      -0.636  -0.791   0.000  0.00  0.00    -0.068 SA
ATOM      8  C   UNL d   1      -1.323   0.326   0.000  0.00  0.00     0.013 A 
ATOM      9  C   UNL d   1      -1.361  -0.512   0.000  0.00  0.00     0.031 A 
ATOM     10  S   UNL d   1       1.970   0.605   0.000  0.00  0.00    -0.038 SA
ATOM     11  O   UNL d   1      -0.578   2.001   0.000  0.00  0.00    -0.267 OA
ATOM     12  C   UNL d   1      -2.013   0.776   0.000  0.00  0.00     0.001 A 
ATOM     13  C   UNL d   1      -2.106  -0.884   0.000  0.00  0.00     0.006 A 
ATOM     14  C   UNL d   1      -2.742   0.403   0.000  0.00  0.00     0.000 A 
ATOM     15  C   UNL d   1      -2.793  -0.419   0.000  0.00  0.00     0.001 A 
ENDROOT
BRANCH   4  16
ATOM     16  C   UNL d   1       1.059   2.060   0.000  0.00  0.00     0.085 C 
ATOM     17  C   UNL d   1       1.877   2.114   0.000  0.00  0.00     0.021 C 
ENDBRANCH   4  16
TORSDOF 1
