REMARK  3 active torsions:
REMARK  status: ('A' for Active; 'I' for Inactive)
REMARK    1  A    between atoms: C_11  and  N_2 
REMARK    2  A    between atoms: N_7  and  C_4 
REMARK    3  A    between atoms: C_14  and  C_11 
ROOT
ATOM      1  C   UNL d   1      -4.295   1.707   0.000  0.00  0.00     0.091 A 
ATOM      2  N   UNL d   1      -5.004   0.469   0.000  0.00  0.00    -0.211 N 
ATOM      3  C   UNL d   1      -4.295   0.884   0.000  0.00  0.00     0.170 A 
ATOM      4  C   UNL d   1      -3.582   2.115   0.000  0.00  0.00     0.154 A 
ATOM      5  N   UNL d   1      -5.717   0.880   0.000  0.00  0.00    -0.162 NA
ATOM      6  C   UNL d   1      -5.717   1.707   0.000  0.00  0.00     0.127 A 
ATOM      7  N   UNL d   1      -3.582   0.472   0.000  0.00  0.00    -0.205 NA
ATOM      8  N   UNL d   1      -2.872   1.714   0.000  0.00  0.00    -0.206 NA
ATOM      9  C   UNL d   1      -2.872   0.884   0.000  0.00  0.00     0.202 A 
ENDROOT
BRANCH   2  10
ATOM     10  C   UNL d   1      -5.004  -0.355   0.000  0.00  0.00     0.102 C 
BRANCH  10  11
ATOM     11  C   UNL d   1      -4.295  -0.767   0.000  0.00  0.00     0.019 A 
ATOM     12  C   UNL d   1      -4.295  -1.590   0.000  0.00  0.00     0.002 A 
ATOM     13  C   UNL d   1      -3.582  -2.002   0.000  0.00  0.00     0.011 A 
ATOM     14  C   UNL d   1      -2.869  -1.590   0.000  0.00  0.00     0.058 A 
ATOM     15  C   UNL d   1      -2.869  -0.756   0.000  0.00  0.00     0.011 A 
ATOM     16 CL   UNL d   1      -2.149  -2.002   0.000  0.00  0.00    -0.082 Cl
ATOM     17  C   UNL d   1      -3.582  -0.351   0.000  0.00  0.00     0.002 A 
ENDBRANCH  10  11
ENDBRANCH   2  10
BRANCH   4  18
ATOM     18  N   UNL d   1      -3.582   2.969   0.000  0.00  0.00    -0.289 N 
ATOM     19  C   UNL d   1      -4.335   3.384   0.000  0.00  0.00     0.082 A 
ATOM     20  C   UNL d   1      -4.345   4.241   0.000  0.00  0.00     0.019 A 
ATOM     21  C   UNL d   1      -3.602   4.673   0.000  0.00  0.00     0.003 A 
ATOM     22  C   UNL d   1      -2.858   4.261   0.000  0.00  0.00     0.019 A 
ATOM     23  C   UNL d   1      -3.612   5.526   0.000  0.00  0.00     0.000 C 
ATOM     24  C   UNL d   1      -2.849   3.408   0.000  0.00  0.00     0.082 A 
ENDBRANCH   4  18
TORSDOF 3
