REMARK  4 active torsions:
REMARK  status: ('A' for Active; 'I' for Inactive)
REMARK    1  A    between atoms: C_10  and  C_3 
REMARK    2  A    between atoms: N_11  and  C_4 
REMARK    3  A    between atoms: C_14  and  N_11 
REMARK    4  A    between atoms: C_15  and  C_14 
ROOT
ATOM      1  C   UNL d   1      -4.889   1.381   0.000  0.00  0.00     0.150 A 
ATOM      2  N   UNL d   1      -4.878   2.210   0.000  0.00  0.00    -0.275 N 
ATOM      3  C   UNL d   1      -4.189   0.965   0.000  0.00  0.00     0.056 A 
ATOM      4  C   UNL d   1      -4.163   2.600   0.000  0.00  0.00     0.149 A 
ATOM      5  N   UNL d   1      -5.590   0.976   0.000  0.00  0.00    -0.227 NA
ATOM      6  C   UNL d   1      -3.470   1.370   0.000  0.00  0.00     0.007 A 
ATOM      7  C   UNL d   1      -3.459   2.180   0.000  0.00  0.00     0.038 A 
ATOM      8  C   UNL d   1      -6.293   2.221   0.000  0.00  0.00     0.084 A 
ATOM      9  C   UNL d   1      -6.301   1.396   0.000  0.00  0.00     0.099 A 
ATOM     10  C   UNL d   1      -2.770   0.950   0.000  0.00  0.00     0.000 C 
ATOM     11  C   UNL d   1      -6.997   2.634   0.000  0.00  0.00     0.019 A 
ATOM     12  C   UNL d   1      -7.020   1.007   0.000  0.00  0.00     0.021 A 
ATOM     13  C   UNL d   1      -7.709   2.244   0.000  0.00  0.00     0.002 A 
ATOM     14  C   UNL d   1      -7.724   1.419   0.000  0.00  0.00     0.002 A 
ENDROOT
BRANCH   4  15
ATOM     15  N   UNL d   1      -4.163   3.451   0.000  0.00  0.00    -0.225 NA
BRANCH  15  16
ATOM     16  C   UNL d   1      -3.425   3.883   0.000  0.00  0.00     0.120 C 
BRANCH  16  17
ATOM     17  C   UNL d   1      -3.425   4.734   0.000  0.00  0.00     0.101 A 
ATOM     18  N   UNL d   1      -2.675   5.158   0.000  0.00  0.00    -0.242 NA
ATOM     19  C   UNL d   1      -2.675   6.010   0.000  0.00  0.00     0.099 A 
ATOM     20  C   UNL d   1      -3.417   6.441   0.000  0.00  0.00     0.021 A 
ATOM     21  C   UNL d   1      -4.174   6.010   0.000  0.00  0.00     0.003 A 
ATOM     22  C   UNL d   1      -4.163   5.158   0.000  0.00  0.00     0.021 A 
ENDBRANCH  16  17
ENDBRANCH  15  16
ENDBRANCH   4  15
BRANCH   3  23
ATOM     23  C   UNL d   1      -4.197   0.155   0.000  0.00  0.00     0.125 C 
ATOM     24  N   UNL d   1      -3.463  -0.231   0.000  0.00  0.00    -0.146 N 
ENDBRANCH   3  23
TORSDOF 4
