REMARK  4 active torsions:
REMARK  status: ('A' for Active; 'I' for Inactive)
REMARK    1  A    between atoms: C_2  and  S_1 
REMARK    2  A    between atoms: N_3  and  S_1 
REMARK    3  A    between atoms: C_7  and  N_4 
REMARK    4  A    between atoms: O_16  and  C_13 
ROOT
ATOM      1  N   UNL d   1      -1.073   0.182   0.000  0.00  0.00    -0.226 N 
ATOM      2  N   UNL d   1       0.582   0.182   0.000  0.00  0.00    -0.300 N 
ATOM      3  C   UNL d   1      -0.663  -0.547   0.000  0.00  0.00     0.111 A 
ATOM      4  C   UNL d   1      -0.663   0.891   0.000  0.00  0.00     0.111 A 
ATOM      5  C   UNL d   1       0.167   0.891   0.000  0.00  0.00     0.100 A 
ATOM      6  C   UNL d   1       0.167  -0.521   0.000  0.00  0.00     0.100 A 
ENDROOT
BRANCH   1   7
ATOM      7  S   UNL d   1      -1.898   0.182   0.000  0.00  0.00     0.274 S 
ATOM      8  O   UNL d   1      -1.898  -0.668   0.000  0.00  0.00    -0.200 OA
ATOM      9  O   UNL d   1      -2.728   0.182   0.000  0.00  0.00    -0.200 OA
BRANCH   7  10
ATOM     10  C   UNL d   1      -1.898   1.012   0.000  0.00  0.00     0.131 A 
ATOM     11  C   UNL d   1      -2.606   1.422   0.000  0.00  0.00     0.152 A 
ATOM     12  F   UNL d   1      -3.335   1.012   0.000  0.00  0.00    -0.203 F 
ATOM     13  C   UNL d   1      -2.606   2.247   0.000  0.00  0.00     0.030 A 
ATOM     14  C   UNL d   1      -1.898   2.667   0.000  0.00  0.00     0.002 A 
ATOM     15  C   UNL d   1      -1.194   2.247   0.000  0.00  0.00     0.001 A 
ATOM     16  C   UNL d   1      -1.194   1.422   0.000  0.00  0.00     0.015 A 
ENDBRANCH   7  10
ENDBRANCH   1   7
BRANCH   2  17
ATOM     17  C   UNL d   1       1.402   0.207   0.000  0.00  0.00     0.086 A 
ATOM     18  C   UNL d   1       1.822  -0.521   0.000  0.00  0.00     0.110 A 
ATOM     19  C   UNL d   1       2.647  -0.491   0.000  0.00  0.00     0.026 A 
ATOM     20  C   UNL d   1       3.057   0.207   0.000  0.00  0.00     0.002 A 
ATOM     21  C   UNL d   1       2.647   0.911   0.000  0.00  0.00     0.002 A 
ATOM     22  C   UNL d   1       1.822   0.911   0.000  0.00  0.00     0.019 A 
BRANCH  18  23
ATOM     23  O   UNL d   1       1.402  -1.250   0.000  0.00  0.00    -0.327 OA
ATOM     24  C   UNL d   1       1.822  -1.949   0.000  0.00  0.00     0.181 C 
ENDBRANCH  18  23
ENDBRANCH   2  17
TORSDOF 4
