REMARK  3 active torsions:
REMARK  status: ('A' for Active; 'I' for Inactive)
REMARK    1  A    between atoms: N_2  and  S_1 
REMARK    2  A    between atoms: C_3  and  S_1 
REMARK    3  A    between atoms: O_16  and  C_9 
ROOT
ATOM      1  S   UNL d   1       2.794  -0.124   0.000  0.00  0.00     0.274 S 
ATOM      2  O   UNL d   1       2.621  -0.931   0.000  0.00  0.00    -0.199 OA
ATOM      3  O   UNL d   1       2.959   0.688   0.000  0.00  0.00    -0.199 OA
ENDROOT
BRANCH   1   4
ATOM      4  N   UNL d   1       1.982   0.050   0.000  0.00  0.00    -0.214 N 
ATOM      5  C   UNL d   1       1.648   0.804   0.000  0.00  0.00     0.157 A 
ATOM      6  N   UNL d   1       0.828   0.717   0.000  0.00  0.00    -0.226 NA
ATOM      7  C   UNL d   1       2.056   1.521   0.000  0.00  0.00     0.041 C 
ATOM      8  C   UNL d   1       0.655  -0.091   0.000  0.00  0.00     0.100 A 
ATOM      9  C   UNL d   1       1.364  -0.499   0.000  0.00  0.00     0.094 A 
ATOM     10  C   UNL d   1      -0.062  -0.499   0.000  0.00  0.00     0.021 A 
ATOM     11  C   UNL d   1       1.364  -1.327   0.000  0.00  0.00     0.020 A 
ATOM     12  C   UNL d   1       0.655  -1.743   0.000  0.00  0.00     0.002 A 
ATOM     13  C   UNL d   1      -0.062  -1.327   0.000  0.00  0.00     0.002 A 
ENDBRANCH   1   4
BRANCH   1  14
ATOM     14  C   UNL d   1       3.602  -0.297   0.000  0.00  0.00     0.126 A 
ATOM     15  C   UNL d   1       3.857  -1.080   0.000  0.00  0.00     0.015 A 
ATOM     16  C   UNL d   1       4.665  -1.253   0.000  0.00  0.00     0.001 A 
ATOM     17  C   UNL d   1       4.912  -2.027   0.000  0.00  0.00     0.000 C 
ATOM     18  C   UNL d   1       5.217  -0.635   0.000  0.00  0.00     0.002 A 
ATOM     19  C   UNL d   1       4.962   0.148   0.000  0.00  0.00     0.025 A 
ATOM     20  C   UNL d   1       6.013  -0.808   0.000  0.00  0.00     0.000 C 
ATOM     21  C   UNL d   1       4.154   0.317   0.000  0.00  0.00     0.106 A 
BRANCH  21  22
ATOM     22  O   UNL d   1       3.898   1.096   0.000  0.00  0.00    -0.327 OA
ATOM     23  C   UNL d   1       4.442   1.702   0.000  0.00  0.00     0.181 C 
ENDBRANCH  21  22
ENDBRANCH   1  14
TORSDOF 3
