REMARK  4 active torsions:
REMARK  status: ('A' for Active; 'I' for Inactive)
REMARK    1  A    between atoms: C_10  and  C_3 
REMARK    2  A    between atoms: C_12  and  C_5 
REMARK    3  A    between atoms: C_15  and  C_12 
REMARK    4  A    between atoms: C_18  and  C_15 
ROOT
ATOM      1  C   UNL d   1       2.551  -0.652   0.000  0.00  0.00     0.152 A 
ATOM      2  N   UNL d   1       2.551   0.184   0.000  0.00  0.00    -0.258 N 
ATOM      3  C   UNL d   1       3.264  -1.063   0.000  0.00  0.00     0.056 A 
ATOM      4  C   UNL d   1       3.264   0.595   0.000  0.00  0.00     0.266 A 
ATOM      5  C   UNL d   1       3.987   0.184   0.000  0.00  0.00     0.057 A 
ATOM      6  N   UNL d   1       1.828  -1.063   0.000  0.00  0.00    -0.227 NA
ATOM      7  C   UNL d   1       3.987  -0.652   0.000  0.00  0.00     0.009 A 
ATOM      8  C   UNL d   1       1.110   0.184   0.000  0.00  0.00     0.086 A 
ATOM      9  C   UNL d   1       1.096  -0.652   0.000  0.00  0.00     0.099 A 
ATOM     10  O   UNL d   1       3.264   1.446   0.000  0.00  0.00    -0.267 OA
ATOM     11  C   UNL d   1       4.696  -1.068   0.000  0.00  0.00     0.000 C 
ATOM     12  C   UNL d   1       0.387   0.595   0.000  0.00  0.00     0.019 A 
ATOM     13  C   UNL d   1       0.387  -1.054   0.000  0.00  0.00     0.021 A 
ATOM     14  C   UNL d   1      -0.321   0.170   0.000  0.00  0.00     0.002 A 
ATOM     15  C   UNL d   1      -0.321  -0.642   0.000  0.00  0.00     0.002 A 
ENDROOT
BRANCH   5  16
ATOM     16  C   UNL d   1       4.705   0.591   0.000  0.00  0.00     0.005 C 
BRANCH  16  17
ATOM     17  C   UNL d   1       5.414   0.179   0.000  0.00  0.00     0.000 C 
BRANCH  17  18
ATOM     18  C   UNL d   1       6.123   0.591   0.000  0.00  0.00     0.000 C 
ATOM     19  C   UNL d   1       6.836   0.170   0.000  0.00  0.00     0.000 C 
ATOM     20  C   UNL d   1       6.127   1.417   0.000  0.00  0.00     0.000 C 
ENDBRANCH  17  18
ENDBRANCH  16  17
ENDBRANCH   5  16
BRANCH   3  21
ATOM     21  C   UNL d   1       3.260  -1.885   0.000  0.00  0.00     0.125 C 
ATOM     22  N   UNL d   1       2.551  -2.296   0.000  0.00  0.00    -0.146 N 
ENDBRANCH   3  21
TORSDOF 4
