REMARK  4 active torsions:
REMARK  status: ('A' for Active; 'I' for Inactive)
REMARK    1  A    between atoms: C_4  and  N_1 
REMARK    2  A    between atoms: S_8  and  C_5 
REMARK    3  A    between atoms: C_10  and  C_7 
REMARK    4  A    between atoms: C_9  and  S_8 
ROOT
ATOM      1  N   UNL d   1       1.606  -0.064   0.000  0.00  0.00    -0.241 N 
ATOM      2  C   UNL d   1       2.161   0.541   0.000  0.00  0.00     0.268 A 
ATOM      3  C   UNL d   1       2.009  -0.787   0.000  0.00  0.00     0.273 A 
ATOM      4  C   UNL d   1       2.814  -0.624   0.000  0.00  0.00     0.091 A 
ATOM      5  C   UNL d   1       2.912   0.196   0.000  0.00  0.00     0.072 A 
ATOM      6  O   UNL d   1       2.000   1.351   0.000  0.00  0.00    -0.267 OA
ATOM      7  O   UNL d   1       1.663  -1.535   0.000  0.00  0.00    -0.266 OA
ENDROOT
BRANCH   1   8
ATOM      8  C   UNL d   1       0.791   0.034   0.000  0.00  0.00     0.070 A 
ATOM      9  C   UNL d   1       0.459   0.794   0.000  0.00  0.00     0.016 A 
ATOM     10  C   UNL d   1      -0.363   0.887   0.000  0.00  0.00     0.001 A 
ATOM     11  C   UNL d   1       0.953   1.449   0.000  0.00  0.00     0.001 A 
ATOM     12  C   UNL d   1      -0.689   1.637   0.000  0.00  0.00     0.000 A 
ATOM     13  C   UNL d   1      -0.852   0.230   0.000  0.00  0.00     0.000 A 
ATOM     14  C   UNL d   1      -0.200   2.304   0.000  0.00  0.00     0.000 A 
ATOM     15  C   UNL d   1       0.624   2.206   0.000  0.00  0.00     0.000 A 
ATOM     16  C   UNL d   1      -0.527  -0.533   0.000  0.00  0.00     0.002 A 
ATOM     17  C   UNL d   1       0.293  -0.628   0.000  0.00  0.00     0.018 A 
ENDBRANCH   1   8
BRANCH   4  18
ATOM     18  S   UNL d   1       3.426  -1.184   0.000  0.00  0.00    -0.082 SA
BRANCH  18  19
ATOM     19  C   UNL d   1       4.179  -0.858   0.000  0.00  0.00     0.035 A 
ATOM     20  C   UNL d   1       4.837  -1.353   0.000  0.00  0.00     0.070 A 
ATOM     21  C   UNL d   1       5.592  -1.022   0.000  0.00  0.00     0.007 A 
ATOM     22  C   UNL d   1       5.688  -0.206   0.000  0.00  0.00     0.000 A 
ATOM     23  C   UNL d   1       5.028   0.283   0.000  0.00  0.00     0.001 A 
ATOM     24  C   UNL d   1       4.280  -0.033   0.000  0.00  0.00     0.007 A 
BRANCH  20  25
ATOM     25  C   UNL d   1       4.739  -2.170   0.000  0.00  0.00     0.211 C 
ATOM     26  O   UNL d   1       5.401  -2.663   0.000  0.00  0.00    -0.644 OA
ATOM     27  O   UNL d   1       3.979  -2.493   0.000  0.00  0.00    -0.644 OA
ENDBRANCH  20  25
ENDBRANCH  18  19
ENDBRANCH   4  18
TORSDOF 4
