REMARK  4 active torsions:
REMARK  status: ('A' for Active; 'I' for Inactive)
REMARK    1  A    between atoms: S_9  and  C_2 
REMARK    2  A    between atoms: C_11  and  C_3 
REMARK    3  A    between atoms: C_7  and  C_10 
REMARK       I    between atoms: N_8  and  C_7 
REMARK    4  A    between atoms: C_10  and  S_9 
ROOT
ATOM      1  N   UNL d   1      10.347 -16.624   0.000  0.00  0.00    -0.220 NA
ATOM      2  C   UNL d   1      11.073 -16.249   0.000  0.00  0.00     0.114 A 
ATOM      3  C   UNL d   1       9.650 -16.185   0.000  0.00  0.00     0.163 A 
ATOM      4  N   UNL d   1       9.685 -15.359   0.000  0.00  0.00    -0.227 NA
ATOM      5  C   UNL d   1      11.108 -15.424   0.000  0.00  0.00     0.042 A 
ATOM      6  C   UNL d   1      10.417 -14.973   0.000  0.00  0.00     0.085 A 
ATOM      7  C   UNL d   1      11.840 -15.043   0.000  0.00  0.00     0.004 A 
ATOM      8  C   UNL d   1      10.441 -14.165   0.000  0.00  0.00     0.019 A 
ATOM      9  C   UNL d   1      11.864 -14.217   0.000  0.00  0.00     0.000 A 
ATOM     10  C   UNL d   1      11.161 -13.778   0.000  0.00  0.00     0.002 A 
ENDROOT
BRANCH   2  11
ATOM     11  S   UNL d   1      11.776 -16.688   0.000  0.00  0.00    -0.062 SA
BRANCH  11  12
ATOM     12  C   UNL d   1      12.508 -16.308   0.000  0.00  0.00     0.098 C 
BRANCH  12  13
ATOM     13  C   UNL d   1      13.198 -16.747   0.000  0.00  0.00     0.272 C 
ATOM     14  N   UNL d   1      13.936 -16.361   0.000  0.00  0.00    -0.267 N 
ATOM     15  C   UNL d   1      14.633 -16.811   0.000  0.00  0.00     0.110 A 
ATOM     16  C   UNL d   1      13.966 -15.547   0.000  0.00  0.00     0.110 A 
ATOM     17  C   UNL d   1      15.359 -16.431   0.000  0.00  0.00     0.142 A 
ATOM     18  O   UNL d   1      15.394 -15.605   0.000  0.00  0.00    -0.300 OA
ATOM     19  C   UNL d   1      14.692 -15.166   0.000  0.00  0.00     0.142 A 
ATOM     20  O   UNL d   1      13.163 -17.573   0.000  0.00  0.00    -0.266 OA
ENDBRANCH  12  13
ENDBRANCH  11  12
ENDBRANCH   2  11
BRANCH   3  21
ATOM     21  C   UNL d   1       8.912 -16.566   0.000  0.00  0.00     0.036 A 
ATOM     22  C   UNL d   1       8.221 -16.115   0.000  0.00  0.00     0.003 A 
ATOM     23  C   UNL d   1       7.489 -16.495   0.000  0.00  0.00     0.000 A 
ATOM     24  C   UNL d   1       7.454 -17.321   0.000  0.00  0.00     0.000 A 
ATOM     25  C   UNL d   1       8.151 -17.766   0.000  0.00  0.00     0.000 A 
ATOM     26  C   UNL d   1       8.877 -17.379   0.000  0.00  0.00     0.003 A 
ENDBRANCH   3  21
TORSDOF 4
