REMARK  4 active torsions:
REMARK  status: ('A' for Active; 'I' for Inactive)
REMARK    1  A    between atoms: C_15  and  N_5 
REMARK    2  A    between atoms: N_13  and  C_7 
REMARK    3  A    between atoms: C_18  and  N_13 
REMARK    4  A    between atoms: C_16  and  C_15 
ROOT
ATOM      1  N   UNL d   1       3.511   0.162   0.000  0.00  0.00     0.039 N 
ATOM      2  C   UNL d   1       3.861   0.907   0.000  0.00  0.00     0.755 A 
ATOM      3  C   UNL d   1       2.700   0.075   0.000  0.00  0.00     0.134 A 
ATOM      4  C   UNL d   1       2.213   0.745   0.000  0.00  0.00     0.081 A 
ATOM      5  N   UNL d   1       3.374   1.581   0.000  0.00  0.00    -0.103 N 
ATOM      6  C   UNL d   1       2.550   1.498   0.000  0.00  0.00     0.281 A 
ATOM      7  C   UNL d   1       4.119  -0.391   0.000  0.00  0.00     0.768 A 
ATOM      8  N   UNL d   1       4.672   0.811   0.000  0.00  0.00     0.060 NA
ATOM      9  S   UNL d   1       2.213  -0.587   0.000  0.00  0.00    -0.068 SA
ATOM     10  N   UNL d   1       4.834   0.008   0.000  0.00  0.00     0.061 NA
ATOM     11  C   UNL d   1       1.427   0.495   0.000  0.00  0.00     0.013 A 
ATOM     12  C   UNL d   1       1.427  -0.329   0.000  0.00  0.00     0.031 A 
ATOM     13  O   UNL d   1       2.063   2.167   0.000  0.00  0.00    -0.266 OA
ATOM     14  C   UNL d   1       0.716   0.907   0.000  0.00  0.00     0.001 A 
ATOM     15  C   UNL d   1       0.716  -0.749   0.000  0.00  0.00     0.006 A 
ATOM     16  C   UNL d   1       0.004   0.495   0.000  0.00  0.00     0.000 A 
ATOM     17  C   UNL d   1       0.004  -0.337   0.000  0.00  0.00     0.001 A 
ENDROOT
BRANCH   7  18
ATOM     18  N   UNL d   1       4.023  -1.215   0.000  0.00  0.00    -0.059 NA
BRANCH  18  19
ATOM     19  C   UNL d   1       3.262  -1.548   0.000  0.00  0.00     0.100 A 
ATOM     20  C   UNL d   1       2.600  -1.048   0.000  0.00  0.00     0.020 A 
ATOM     21  C   UNL d   1       1.839  -1.373   0.000  0.00  0.00     0.002 A 
ATOM     22  C   UNL d   1       1.747  -2.197   0.000  0.00  0.00     0.000 A 
ATOM     23  C   UNL d   1       2.413  -2.696   0.000  0.00  0.00     0.002 A 
ATOM     24  C   UNL d   1       3.174  -2.363   0.000  0.00  0.00     0.020 A 
ENDBRANCH  18  19
ENDBRANCH   7  18
BRANCH   5  25
ATOM     25  C   UNL d   1       3.711   2.330   0.000  0.00  0.00     0.101 C 
BRANCH  25  26
ATOM     26  C   UNL d   1       4.530   2.417   0.000  0.00  0.00     0.020 C 
ATOM     27  C   UNL d   1       4.872   3.166   0.000  0.00  0.00     0.002 C 
ENDBRANCH  25  26
ENDBRANCH   5  25
TORSDOF 4
