REMARK  2 active torsions:
REMARK  status: ('A' for Active; 'I' for Inactive)
REMARK    1  A    between atoms: S_2  and  N_1 
REMARK    2  A    between atoms: C_10  and  S_2 
ROOT
ATOM      1  S   UNL d   1       7.439  -3.646   0.000  0.00  0.00     0.273 S 
ATOM      2  O   UNL d   1       7.439  -4.471   0.000  0.00  0.00    -0.200 OA
ATOM      3  O   UNL d   1       7.448  -2.822   0.000  0.00  0.00    -0.200 OA
ENDROOT
BRANCH   1   4
ATOM      4  N   UNL d   1       8.264  -3.642   0.000  0.00  0.00    -0.207 N 
ATOM      5  C   UNL d   1       8.617  -4.388   0.000  0.00  0.00     0.148 A 
ATOM      6  N   UNL d   1       9.427  -4.576   0.000  0.00  0.00    -0.198 NA
ATOM      7  C   UNL d   1      10.064  -4.072   0.000  0.00  0.00     0.066 A 
ATOM      8  C   UNL d   1       9.001  -3.674   0.000  0.00  0.00     0.169 A 
ATOM      9  C   UNL d   1      10.073  -3.248   0.000  0.00  0.00     0.066 A 
ATOM     10  N   UNL d   1       9.432  -2.726   0.000  0.00  0.00    -0.198 NA
ATOM     11  C   UNL d   1       8.630  -2.904   0.000  0.00  0.00     0.148 A 
ENDBRANCH   1   4
BRANCH   1  12
ATOM     12  C   UNL d   1       6.615  -3.646   0.000  0.00  0.00     0.104 A 
ATOM     13  C   UNL d   1       6.202  -2.932   0.000  0.00  0.00     0.013 A 
ATOM     14  C   UNL d   1       5.378  -2.932   0.000  0.00  0.00     0.001 A 
ATOM     15  C   UNL d   1       4.966  -3.646   0.000  0.00  0.00     0.000 A 
ATOM     16  C   UNL d   1       5.378  -4.361   0.000  0.00  0.00     0.001 A 
ATOM     17  C   UNL d   1       6.202  -4.361   0.000  0.00  0.00     0.013 A 
ENDBRANCH   1  12
TORSDOF 2
