REMARK  3 active torsions:
REMARK  status: ('A' for Active; 'I' for Inactive)
REMARK    1  A    between atoms: C_8  and  C_1 
REMARK    2  A    between atoms: O_12  and  C_8 
REMARK    3  A    between atoms: C_21  and  O_12 
ROOT
ATOM      1  C   UNL d   1       1.763   0.458   0.000  0.00  0.00     0.084 A 
ATOM      2  C   UNL d   1       0.991   0.712   0.000  0.00  0.00     0.065 A 
ATOM      3  C   UNL d   1       0.991   1.579   0.000  0.00  0.00     0.107 A 
ATOM      4  N   UNL d   1       1.753   1.847   0.000  0.00  0.00    -0.302 N 
ATOM      5  C   UNL d   1       2.231   1.150   0.000  0.00  0.00     0.070 A 
ATOM      6  C   UNL d   1       0.289   0.284   0.000  0.00  0.00     0.197 A 
ATOM      7  C   UNL d   1       0.289   2.012   0.000  0.00  0.00     0.212 A 
ATOM      8  C   UNL d   1      -0.403   0.712   0.000  0.00  0.00     0.042 A 
ATOM      9  C   UNL d   1      -0.403   1.579   0.000  0.00  0.00     0.043 A 
ATOM     10  C   UNL d   1       2.082   2.639   0.000  0.00  0.00     0.080 A 
ATOM     11  C   UNL d   1       3.038   1.250   0.000  0.00  0.00     0.018 A 
ATOM     12  O   UNL d   1       0.289  -0.568   0.000  0.00  0.00    -0.286 OA
ATOM     13  O   UNL d   1       0.284   2.863   0.000  0.00  0.00    -0.285 OA
ATOM     14  C   UNL d   1       2.883   2.734   0.000  0.00  0.00     0.019 A 
ATOM     15  C   UNL d   1       3.366   2.032   0.000  0.00  0.00     0.003 A 
ATOM     16  C   UNL d   1      -1.105   0.279   0.000  0.00  0.00     0.003 A 
ATOM     17  C   UNL d   1      -1.105   2.002   0.000  0.00  0.00     0.003 A 
ATOM     18  C   UNL d   1      -1.802   0.712   0.000  0.00  0.00     0.000 A 
ATOM     19  C   UNL d   1      -1.802   1.569   0.000  0.00  0.00     0.000 A 
ENDROOT
BRANCH   1  20
ATOM     20  C   UNL d   1       2.017  -0.358   0.000  0.00  0.00     0.302 C 
ATOM     21  O   UNL d   1       2.808  -0.528   0.000  0.00  0.00    -0.259 OA
BRANCH  20  22
ATOM     22  O   UNL d   1       1.479  -0.991   0.000  0.00  0.00    -0.273 OA
BRANCH  22  23
ATOM     23  C   UNL d   1       1.738  -1.813   0.000  0.00  0.00     0.103 C 
ATOM     24  C   UNL d   1       1.155  -2.440   0.000  0.00  0.00     0.027 C 
ATOM     25  C   UNL d   1       2.569  -2.002   0.000  0.00  0.00     0.027 C 
ENDBRANCH  22  23
ENDBRANCH  20  22
ENDBRANCH   1  20
TORSDOF 3
