REMARK  3 active torsions:
REMARK  status: ('A' for Active; 'I' for Inactive)
REMARK    1  A    between atoms: C_8  and  S_1 
REMARK    2  A    between atoms: N_10  and  S_1 
REMARK    3  A    between atoms: C_17  and  N_10 
ROOT
ATOM      1  C   UNL d   1      -1.533   0.833   0.000  0.00  0.00     0.043 A 
ATOM      2  C   UNL d   1      -2.246   0.421   0.000  0.00  0.00     0.196 A 
ATOM      3  C   UNL d   1      -2.246   2.071   0.000  0.00  0.00     0.196 A 
ATOM      4  C   UNL d   1      -1.533   1.658   0.000  0.00  0.00     0.042 A 
ATOM      5  C   UNL d   1      -2.962   0.833   0.000  0.00  0.00     0.042 A 
ATOM      6  C   UNL d   1      -2.962   1.658   0.000  0.00  0.00     0.042 A 
ATOM      7  C   UNL d   1      -0.108   0.833   0.000  0.00  0.00     0.105 A 
ATOM      8  C   UNL d   1      -0.821   0.421   0.000  0.00  0.00     0.016 A 
ATOM      9  C   UNL d   1      -0.821   2.071   0.000  0.00  0.00     0.004 A 
ATOM     10  O   UNL d   1      -2.246  -0.404   0.000  0.00  0.00    -0.287 OA
ATOM     11  O   UNL d   1      -2.246   2.896   0.000  0.00  0.00    -0.287 OA
ATOM     12  C   UNL d   1      -0.108   1.658   0.000  0.00  0.00     0.013 A 
ATOM     13  C   UNL d   1      -3.675   0.421   0.000  0.00  0.00     0.003 A 
ATOM     14  C   UNL d   1      -3.675   2.071   0.000  0.00  0.00     0.003 A 
ATOM     15  C   UNL d   1      -4.396   1.658   0.000  0.00  0.00     0.000 A 
ATOM     16  C   UNL d   1      -4.396   0.833   0.000  0.00  0.00     0.000 A 
ENDROOT
BRANCH   7  17
ATOM     17  S   UNL d   1       0.617   0.412   0.000  0.00  0.00     0.285 S 
ATOM     18  O   UNL d   1       1.038   1.133   0.000  0.00  0.00    -0.198 OA
ATOM     19  O   UNL d   1       0.192  -0.304   0.000  0.00  0.00    -0.198 OA
BRANCH  17  20
ATOM     20  N   UNL d   1       1.337  -0.004   0.000  0.00  0.00    -0.158 NA
BRANCH  20  21
ATOM     21  C   UNL d   1       2.054   0.408   0.000  0.00  0.00     0.094 A 
ATOM     22  C   UNL d   1       2.767  -0.013   0.000  0.00  0.00     0.020 A 
ATOM     23  C   UNL d   1       3.492   0.396   0.000  0.00  0.00     0.002 A 
ATOM     24  C   UNL d   1       3.500   1.225   0.000  0.00  0.00     0.000 A 
ATOM     25  C   UNL d   1       2.775   1.646   0.000  0.00  0.00     0.002 A 
ATOM     26  C   UNL d   1       2.062   1.233   0.000  0.00  0.00     0.020 A 
ENDBRANCH  20  21
ENDBRANCH  17  20
ENDBRANCH   7  17
TORSDOF 3
