REMARK  1 active torsions:
REMARK  status: ('A' for Active; 'I' for Inactive)
REMARK    1  A    between atoms: N_13  and  C_2 
ROOT
ATOM      1  C   UNL d   1       0.650  -2.138   0.000  0.00  0.00     0.024 A 
ATOM      2  C   UNL d   1       0.642  -1.312   0.000  0.00  0.00     0.138 A 
ATOM      3  C   UNL d   1       1.354  -0.892   0.000  0.00  0.00     0.282 A 
ATOM      4  C   UNL d   1       1.367  -2.542   0.000  0.00  0.00     0.021 A 
ATOM      5  N   UNL d   1       2.067  -1.304   0.000  0.00  0.00    -0.271 N 
ATOM      6  C   UNL d   1       2.079  -2.129   0.000  0.00  0.00     0.067 A 
ATOM      7  C   UNL d   1      -0.058  -2.554   0.000  0.00  0.00     0.005 A 
ATOM      8  C   UNL d   1       1.367  -3.375   0.000  0.00  0.00     0.040 A 
ATOM      9  C   UNL d   1       0.654  -3.792   0.000  0.00  0.00     0.196 A 
ATOM     10  C   UNL d   1      -0.058  -3.379   0.000  0.00  0.00     0.039 A 
ATOM     11  O   UNL d   1       1.354  -0.067   0.000  0.00  0.00    -0.265 OA
ATOM     12  O   UNL d   1       0.654  -4.617   0.000  0.00  0.00    -0.287 OA
ATOM     13  C   UNL d   1       2.779  -0.879   0.000  0.00  0.00     0.102 C 
ATOM     14  C   UNL d   1       2.792  -2.529   0.000  0.00  0.00     0.018 A 
ATOM     15  C   UNL d   1       2.087  -3.779   0.000  0.00  0.00     0.003 A 
ATOM     16  C   UNL d   1      -0.775  -2.142   0.000  0.00  0.00     0.000 A 
ATOM     17  C   UNL d   1      -0.775  -3.792   0.000  0.00  0.00     0.003 A 
ATOM     18  C   UNL d   1       2.804  -3.367   0.000  0.00  0.00     0.002 A 
ATOM     19  C   UNL d   1      -1.488  -2.554   0.000  0.00  0.00     0.000 A 
ATOM     20  C   UNL d   1      -1.488  -3.379   0.000  0.00  0.00     0.000 A 
ENDROOT
BRANCH   2  21
ATOM     21  N   UNL d   1      -0.071  -0.904   0.000  0.00  0.00    -0.238 NA
ATOM     22  C   UNL d   1      -0.075  -0.079   0.000  0.00  0.00     0.120 C 
ENDBRANCH   2  21
TORSDOF 1
