REMARK  6 active torsions:
REMARK  status: ('A' for Active; 'I' for Inactive)
REMARK    1  A    between atoms: C_12  and  N_1 
REMARK    2  A    between atoms: N_8  and  C_2 
REMARK    3  A    between atoms: C_6  and  C_5 
REMARK    4  A    between atoms: C_7  and  C_6 
REMARK       I    between atoms: N_9  and  C_7 
REMARK    5  A    between atoms: C_19  and  N_8 
REMARK    6  A    between atoms: C_13  and  N_9 
ROOT
ATOM      1  N   UNL d   1       2.467  -1.700   0.000  0.00  0.00    -0.252 N 
ATOM      2  C   UNL d   1       2.517  -2.529   0.000  0.00  0.00     0.182 A 
ATOM      3  C   UNL d   1       3.242  -1.400   0.000  0.00  0.00     0.272 A 
ATOM      4  S   UNL d   1       3.317  -2.742   0.000  0.00  0.00    -0.045 SA
ATOM      5  C   UNL d   1       3.763  -2.042   0.000  0.00  0.00     0.093 A 
ATOM      6  O   UNL d   1       3.454  -0.592   0.000  0.00  0.00    -0.266 OA
ENDROOT
BRANCH   5   7
ATOM      7  C   UNL d   1       4.554  -2.254   0.000  0.00  0.00     0.074 C 
BRANCH   7   8
ATOM      8  C   UNL d   1       5.267  -1.842   0.000  0.00  0.00     0.280 C 
ATOM      9  N   UNL d   1       5.979  -2.254   0.000  0.00  0.00    -0.208 NA
ATOM     10  O   UNL d   1       5.267  -1.017   0.000  0.00  0.00    -0.265 OA
BRANCH   9  11
ATOM     11  C   UNL d   1       6.692  -1.829   0.000  0.00  0.00     0.085 A 
ATOM     12  C   UNL d   1       7.404  -2.242   0.000  0.00  0.00     0.019 A 
ATOM     13  C   UNL d   1       8.117  -1.837   0.000  0.00  0.00     0.002 A 
ATOM     14  C   UNL d   1       8.117  -1.017   0.000  0.00  0.00     0.000 A 
ATOM     15  C   UNL d   1       7.400  -0.604   0.000  0.00  0.00     0.002 A 
ATOM     16  C   UNL d   1       8.829  -0.600   0.000  0.00  0.00     0.000 C 
ATOM     17  C   UNL d   1       6.692  -1.017   0.000  0.00  0.00     0.019 A 
ENDBRANCH   9  11
ENDBRANCH   7   8
ENDBRANCH   5   7
BRANCH   1  18
ATOM     18  C   UNL d   1       1.750  -1.279   0.000  0.00  0.00     0.085 C 
ATOM     19  C   UNL d   1       1.742  -0.454   0.000  0.00  0.00     0.021 C 
ENDBRANCH   1  18
BRANCH   2  20
ATOM     20  N   UNL d   1       1.929  -3.117   0.000  0.00  0.00    -0.221 NA
BRANCH  20  21
ATOM     21  C   UNL d   1       1.104  -3.112   0.000  0.00  0.00     0.101 C 
ATOM     22  C   UNL d   1       0.688  -3.825   0.000  0.00  0.00     0.022 C 
ENDBRANCH  20  21
ENDBRANCH   2  20
TORSDOF 6
