REMARK  4 active torsions:
REMARK  status: ('A' for Active; 'I' for Inactive)
REMARK    1  A    between atoms: C_7  and  C_1 
REMARK    2  A    between atoms: C_12  and  C_6 
REMARK       I    between atoms: N_11  and  C_7 
REMARK    3  A    between atoms: C_20  and  N_11 
REMARK       I    between atoms: C_13  and  N_14 
REMARK    4  A    between atoms: N_14  and  C_21 
ROOT
ATOM      1  C   UNL d   1      -1.470  -0.150   0.000  0.00  0.00     0.108 A 
ATOM      2  C   UNL d   1      -2.647   0.184   0.000  0.00  0.00     0.044 A 
ATOM      3  C   UNL d   1      -1.933   0.408   0.000  0.00  0.00     0.116 A 
ATOM      4  C   UNL d   1      -2.647  -0.579   0.000  0.00  0.00     0.112 A 
ATOM      5  S   UNL d   1      -1.912  -0.796   0.000  0.00  0.00    -0.061 SA
ATOM      6  C   UNL d   1      -3.321   0.572   0.000  0.00  0.00     0.005 A 
ATOM      7  N   UNL d   1      -3.321  -0.980   0.000  0.00  0.00    -0.239 NA
ATOM      8  C   UNL d   1      -3.994   0.184   0.000  0.00  0.00     0.018 A 
ATOM      9  C   UNL d   1      -3.994  -0.579   0.000  0.00  0.00     0.082 A 
ATOM     10  N   UNL d   1      -1.606   1.279   0.000  0.00  0.00    -0.147 N 
ATOM     11  C   UNL d   1      -4.790   0.463   0.000  0.00  0.00     0.002 A 
ATOM     12  C   UNL d   1      -4.736  -0.878   0.000  0.00  0.00     0.019 A 
ATOM     13  C   UNL d   1      -5.260  -0.191   0.000  0.00  0.00     0.002 A 
ENDROOT
BRANCH   1  14
ATOM     14  C   UNL d   1      -0.463  -0.150   0.000  0.00  0.00     0.287 C 
ATOM     15  N   UNL d   1       0.354   0.408   0.000  0.00  0.00    -0.208 NA
ATOM     16  O   UNL d   1      -0.184  -1.028   0.000  0.00  0.00    -0.265 OA
BRANCH  15  17
ATOM     17  C   UNL d   1       0.293   1.245   0.000  0.00  0.00     0.085 A 
ATOM     18  C   UNL d   1      -0.463   1.585   0.000  0.00  0.00     0.021 A 
ATOM     19  C   UNL d   1      -0.544   2.422   0.000  0.00  0.00     0.021 A 
ATOM     20  C   UNL d   1       0.129   2.912   0.000  0.00  0.00     0.085 A 
ATOM     21  C   UNL d   1       0.878   2.565   0.000  0.00  0.00     0.021 A 
ATOM     22  C   UNL d   1       0.960   1.735   0.000  0.00  0.00     0.021 A 
BRANCH  20  23
ATOM     23  N   UNL d   1       0.007   3.913   0.000  0.00  0.00    -0.208 NA
ATOM     24  C   UNL d   1       1.041   4.525   0.000  0.00  0.00     0.279 C 
ATOM     25  O   UNL d   1       0.925   5.648   0.000  0.00  0.00    -0.265 OA
ATOM     26  C   UNL d   1       2.348   4.117   0.000  0.00  0.00     0.068 C 
ENDBRANCH  20  23
ENDBRANCH  15  17
ENDBRANCH   1  14
BRANCH   6  27
ATOM     27  C   UNL d   1      -3.321   1.388   0.000  0.00  0.00     0.000 A 
ATOM     28  C   UNL d   1      -4.035   1.790   0.000  0.00  0.00     0.000 A 
ATOM     29  C   UNL d   1      -4.035   2.606   0.000  0.00  0.00     0.000 A 
ATOM     30  C   UNL d   1      -3.341   3.042   0.000  0.00  0.00     0.000 A 
ATOM     31  C   UNL d   1      -2.633   2.647   0.000  0.00  0.00     0.000 A 
ATOM     32  C   UNL d   1      -3.300   4.246   0.000  0.00  0.00     0.000 C 
ATOM     33  C   UNL d   1      -2.606   1.817   0.000  0.00  0.00     0.000 A 
ENDBRANCH   6  27
TORSDOF 4
