REMARK  4 active torsions:
REMARK  status: ('A' for Active; 'I' for Inactive)
REMARK    1  A    between atoms: S_9  and  C_2 
REMARK    2  A    between atoms: C_11  and  C_3 
REMARK    3  A    between atoms: C_7  and  C_10 
REMARK       I    between atoms: N_8  and  C_7 
REMARK    4  A    between atoms: C_10  and  S_9 
ROOT
ATOM      1  N   UNL d   1      18.981 -17.526   0.000  0.00  0.00    -0.220 NA
ATOM      2  C   UNL d   1      19.718 -17.140   0.000  0.00  0.00     0.114 A 
ATOM      3  C   UNL d   1      18.291 -17.081   0.000  0.00  0.00     0.163 A 
ATOM      4  N   UNL d   1      18.326 -16.257   0.000  0.00  0.00    -0.227 NA
ATOM      5  C   UNL d   1      19.753 -16.316   0.000  0.00  0.00     0.042 A 
ATOM      6  C   UNL d   1      19.051 -15.877   0.000  0.00  0.00     0.085 A 
ATOM      7  C   UNL d   1      20.472 -15.941   0.000  0.00  0.00     0.004 A 
ATOM      8  C   UNL d   1      19.081 -15.065   0.000  0.00  0.00     0.019 A 
ATOM      9  C   UNL d   1      20.507 -15.117   0.000  0.00  0.00     0.000 A 
ATOM     10  C   UNL d   1      19.805 -14.679   0.000  0.00  0.00     0.002 A 
ENDROOT
BRANCH   2  11
ATOM     11  S   UNL d   1      20.413 -17.578   0.000  0.00  0.00    -0.062 SA
BRANCH  11  12
ATOM     12  C   UNL d   1      21.138 -17.204   0.000  0.00  0.00     0.098 C 
BRANCH  12  13
ATOM     13  C   UNL d   1      21.840 -17.642   0.000  0.00  0.00     0.271 C 
ATOM     14  N   UNL d   1      22.570 -17.263   0.000  0.00  0.00    -0.272 N 
ATOM     15  C   UNL d   1      23.260 -17.701   0.000  0.00  0.00     0.083 A 
ATOM     16  C   UNL d   1      22.594 -16.438   0.000  0.00  0.00     0.083 A 
ATOM     17  C   UNL d   1      23.991 -17.327   0.000  0.00  0.00     0.019 A 
ATOM     18  C   UNL d   1      24.032 -16.503   0.000  0.00  0.00     0.003 A 
ATOM     19  C   UNL d   1      23.331 -16.064   0.000  0.00  0.00     0.019 A 
ATOM     20  O   UNL d   1      21.805 -18.467   0.000  0.00  0.00    -0.266 OA
ENDBRANCH  12  13
ENDBRANCH  11  12
ENDBRANCH   2  11
BRANCH   3  21
ATOM     21  C   UNL d   1      17.561 -17.456   0.000  0.00  0.00     0.036 A 
ATOM     22  C   UNL d   1      17.526 -18.280   0.000  0.00  0.00     0.003 A 
ATOM     23  C   UNL d   1      16.789 -18.660   0.000  0.00  0.00     0.000 A 
ATOM     24  C   UNL d   1      16.099 -18.210   0.000  0.00  0.00     0.000 A 
ATOM     25  C   UNL d   1      16.134 -17.385   0.000  0.00  0.00     0.000 A 
ATOM     26  C   UNL d   1      16.859 -17.011   0.000  0.00  0.00     0.003 A 
ENDBRANCH   3  21
TORSDOF 4
