REMARK  2 active torsions:
REMARK  status: ('A' for Active; 'I' for Inactive)
REMARK    1  A    between atoms: C_18  and  N_5 
REMARK    2  A    between atoms: C_21  and  C_18 
ROOT
ATOM      1  C   UNL d   1       3.250  -1.479   0.000  0.00  0.00     0.155 A 
ATOM      2  C   UNL d   1       3.250  -0.654   0.000  0.00  0.00     0.092 A 
ATOM      3  N   UNL d   1       2.529  -1.887   0.000  0.00  0.00    -0.210 NA
ATOM      4  N   UNL d   1       1.829  -0.650   0.000  0.00  0.00    -0.258 N 
ATOM      5  N   UNL d   1       3.962  -1.892   0.000  0.00  0.00    -0.275 N 
ATOM      6  C   UNL d   1       1.825  -1.475   0.000  0.00  0.00     0.152 A 
ATOM      7  C   UNL d   1       2.538  -0.237   0.000  0.00  0.00     0.269 A 
ATOM      8  C   UNL d   1       4.679  -0.654   0.000  0.00  0.00     0.105 A 
ATOM      9  C   UNL d   1       4.679  -1.492   0.000  0.00  0.00     0.180 A 
ATOM     10  C   UNL d   1       3.967  -0.242   0.000  0.00  0.00     0.021 A 
ATOM     11  C   UNL d   1       1.117  -1.879   0.000  0.00  0.00     0.035 A 
ATOM     12  C   UNL d   1       5.392  -0.250   0.000  0.00  0.00     0.104 C 
ATOM     13  N   UNL d   1       6.104   0.158   0.000  0.00  0.00    -0.191 NA
ATOM     14  C   UNL d   1       1.117  -0.229   0.000  0.00  0.00     0.084 A 
ATOM     15  N   UNL d   1       5.467  -1.742   0.000  0.00  0.00    -0.128 N 
ATOM     16  O   UNL d   1       2.542   0.588   0.000  0.00  0.00    -0.266 OA
ATOM     17  C   UNL d   1       0.404  -0.650   0.000  0.00  0.00     0.019 A 
ATOM     18  C   UNL d   1       0.404  -1.475   0.000  0.00  0.00     0.005 A 
ATOM     19  C   UNL d   1       1.117  -2.704   0.000  0.00  0.00     0.003 C 
ENDROOT
BRANCH   5  20
ATOM     20  C   UNL d   1       3.954  -2.717   0.000  0.00  0.00     0.067 C 
ATOM     21  C   UNL d   1       3.217  -3.092   0.000  0.00  0.00     0.019 C 
BRANCH  20  22
ATOM     22  C   UNL d   1       4.625  -3.212   0.000  0.00  0.00     0.018 C 
ATOM     23  C   UNL d   1       5.417  -2.962   0.000  0.00  0.00     0.002 C 
ENDBRANCH  20  22
ENDBRANCH   5  20
TORSDOF 2
