REMARK  5 active torsions:
REMARK  status: ('A' for Active; 'I' for Inactive)
REMARK    1  A    between atoms: C_16  and  N_3 
REMARK    2  A    between atoms: C_11  and  C_6 
REMARK       I    between atoms: N_20  and  C_11 
REMARK    3  A    between atoms: C_21  and  N_20 
REMARK    4  A    between atoms: C_23  and  C_21 
REMARK    5  A    between atoms: C_22  and  C_23 
ROOT
ATOM      1  C   UNL d   1       1.763  -1.775   0.000  0.00  0.00     0.155 A 
ATOM      2  C   UNL d   1       1.763  -0.948   0.000  0.00  0.00     0.091 A 
ATOM      3  N   UNL d   1       2.473  -2.187   0.000  0.00  0.00    -0.275 N 
ATOM      4  N   UNL d   1       1.048  -2.182   0.000  0.00  0.00    -0.210 NA
ATOM      5  C   UNL d   1       3.205  -1.783   0.000  0.00  0.00     0.175 A 
ATOM      6  C   UNL d   1       3.205  -0.952   0.000  0.00  0.00     0.094 A 
ATOM      7  C   UNL d   1       1.052  -0.528   0.000  0.00  0.00     0.269 A 
ATOM      8  N   UNL d   1       0.337  -0.940   0.000  0.00  0.00    -0.258 N 
ATOM      9  C   UNL d   1       0.328  -1.771   0.000  0.00  0.00     0.152 A 
ATOM     10  C   UNL d   1       2.486  -0.528   0.000  0.00  0.00     0.016 A 
ATOM     11  N   UNL d   1       3.916  -2.199   0.000  0.00  0.00    -0.128 N 
ATOM     12  C   UNL d   1      -0.382  -0.524   0.000  0.00  0.00     0.084 A 
ATOM     13  O   UNL d   1       1.052   0.299   0.000  0.00  0.00    -0.266 OA
ATOM     14  C   UNL d   1      -0.382  -2.174   0.000  0.00  0.00     0.038 A 
ATOM     15  C   UNL d   1      -1.085  -0.940   0.000  0.00  0.00     0.019 A 
ATOM     16  C   UNL d   1      -1.085  -1.771   0.000  0.00  0.00     0.005 A 
ENDROOT
BRANCH   6  17
ATOM     17  C   UNL d   1       3.920  -0.540   0.000  0.00  0.00     0.282 C 
ATOM     18  O   UNL d   1       3.928   0.283   0.000  0.00  0.00    -0.265 OA
ATOM     19  N   UNL d   1       4.639  -0.960   0.000  0.00  0.00    -0.206 NA
BRANCH  19  20
ATOM     20  C   UNL d   1       5.354  -0.549   0.000  0.00  0.00     0.102 C 
BRANCH  20  21
ATOM     21  C   UNL d   1       6.065  -0.964   0.000  0.00  0.00     0.021 C 
BRANCH  21  22
ATOM     22  C   UNL d   1       6.065  -1.788   0.000  0.00  0.00     0.002 A 
ATOM     23  C   UNL d   1       5.350  -2.195   0.000  0.00  0.00     0.000 A 
ATOM     24  C   UNL d   1       5.342  -3.018   0.000  0.00  0.00     0.000 A 
ATOM     25  C   UNL d   1       6.061  -3.429   0.000  0.00  0.00     0.000 A 
ATOM     26  C   UNL d   1       6.776  -3.010   0.000  0.00  0.00     0.000 A 
ATOM     27  C   UNL d   1       6.772  -2.195   0.000  0.00  0.00     0.000 A 
ENDBRANCH  21  22
ENDBRANCH  20  21
ENDBRANCH  19  20
ENDBRANCH   6  17
BRANCH   3  28
ATOM     28  C   UNL d   1       2.473  -3.018   0.000  0.00  0.00     0.067 C 
ATOM     29  C   UNL d   1       1.750  -3.429   0.000  0.00  0.00     0.019 C 
ATOM     30  C   UNL d   1       3.184  -3.434   0.000  0.00  0.00     0.019 C 
ENDBRANCH   3  28
TORSDOF 5
