REMARK  5 active torsions:
REMARK  status: ('A' for Active; 'I' for Inactive)
REMARK    1  A    between atoms: C_12  and  N_3 
REMARK    2  A    between atoms: C_11  and  C_5 
REMARK       I    between atoms: N_16  and  C_11 
REMARK    3  A    between atoms: C_15  and  C_12 
REMARK    4  A    between atoms: C_26  and  N_16 
REMARK    5  A    between atoms: C_27  and  C_26 
ROOT
ATOM      1  C   UNL d   1       1.637  -1.079   0.000  0.00  0.00     0.155 A 
ATOM      2  C   UNL d   1       1.629  -0.254   0.000  0.00  0.00     0.091 A 
ATOM      3  N   UNL d   1       2.342  -1.492   0.000  0.00  0.00    -0.272 N 
ATOM      4  N   UNL d   1       0.917  -1.492   0.000  0.00  0.00    -0.210 NA
ATOM      5  C   UNL d   1       3.062  -0.254   0.000  0.00  0.00     0.094 A 
ATOM      6  C   UNL d   1       3.062  -1.079   0.000  0.00  0.00     0.175 A 
ATOM      7  C   UNL d   1       0.917   0.158   0.000  0.00  0.00     0.269 A 
ATOM      8  N   UNL d   1       0.204  -0.254   0.000  0.00  0.00    -0.258 N 
ATOM      9  C   UNL d   1       0.204  -1.079   0.000  0.00  0.00     0.152 A 
ATOM     10  C   UNL d   1       2.342   0.158   0.000  0.00  0.00     0.016 A 
ATOM     11  N   UNL d   1       3.779  -1.500   0.000  0.00  0.00    -0.128 N 
ATOM     12  C   UNL d   1      -0.508   0.158   0.000  0.00  0.00     0.084 A 
ATOM     13  O   UNL d   1       0.917   0.983   0.000  0.00  0.00    -0.266 OA
ATOM     14  C   UNL d   1      -0.508  -1.492   0.000  0.00  0.00     0.038 A 
ATOM     15  C   UNL d   1      -1.225  -0.254   0.000  0.00  0.00     0.019 A 
ATOM     16  C   UNL d   1      -1.225  -1.079   0.000  0.00  0.00     0.005 A 
ENDROOT
BRANCH   5  17
ATOM     17  C   UNL d   1       3.779   0.158   0.000  0.00  0.00     0.282 C 
ATOM     18  N   UNL d   1       4.492  -0.254   0.000  0.00  0.00    -0.206 NA
ATOM     19  O   UNL d   1       3.788   0.983   0.000  0.00  0.00    -0.265 OA
BRANCH  18  20
ATOM     20  C   UNL d   1       4.492  -1.079   0.000  0.00  0.00     0.102 C 
BRANCH  20  21
ATOM     21  C   UNL d   1       5.204  -1.500   0.000  0.00  0.00     0.019 A 
ATOM     22  C   UNL d   1       5.917  -1.079   0.000  0.00  0.00     0.002 A 
ATOM     23  C   UNL d   1       6.638  -1.492   0.000  0.00  0.00     0.000 A 
ATOM     24  C   UNL d   1       6.638  -2.325   0.000  0.00  0.00     0.000 A 
ATOM     25  C   UNL d   1       5.917  -2.737   0.000  0.00  0.00     0.000 A 
ATOM     26  C   UNL d   1       5.204  -2.325   0.000  0.00  0.00     0.002 A 
ENDBRANCH  20  21
ENDBRANCH  18  20
ENDBRANCH   5  17
BRANCH   3  27
ATOM     27  C   UNL d   1       2.342  -2.317   0.000  0.00  0.00     0.107 C 
BRANCH  27  28
ATOM     28  C   UNL d   1       3.054  -2.729   0.000  0.00  0.00     0.118 A 
ATOM     29  O   UNL d   1       3.775  -2.317   0.000  0.00  0.00    -0.304 OA
ATOM     30  C   UNL d   1       4.392  -2.875   0.000  0.00  0.00     0.123 A 
ATOM     31  C   UNL d   1       4.050  -3.617   0.000  0.00  0.00     0.029 A 
ATOM     32  C   UNL d   1       3.229  -3.538   0.000  0.00  0.00     0.028 A 
ENDBRANCH  27  28
ENDBRANCH   3  27
TORSDOF 5
