REMARK  2 active torsions:
REMARK  status: ('A' for Active; 'I' for Inactive)
REMARK    1  A    between atoms: C_10  and  C_5 
REMARK    2  A    between atoms: O_22  and  C_15 
ROOT
ATOM      1  C   UNL d   1       6.482  -5.421   0.000  0.00  0.00     0.120 A 
ATOM      2  C   UNL d   1       6.232  -4.635   0.000  0.00  0.00     0.058 A 
ATOM      3  N   UNL d   1       7.306  -5.421   0.000  0.00  0.00    -0.195 NA
ATOM      4  S   UNL d   1       5.933  -6.029   0.000  0.00  0.00    -0.072 SA
ATOM      5  C   UNL d   1       5.434  -4.460   0.000  0.00  0.00     0.005 A 
ATOM      6  C   UNL d   1       5.134  -5.854   0.000  0.00  0.00     0.009 A 
ATOM      7  C   UNL d   1       4.880  -5.067   0.000  0.00  0.00    -0.015 A 
ATOM      8  C   UNL d   1       7.568  -4.635   0.000  0.00  0.00     0.311 A 
ATOM      9  S   UNL d   1       6.894  -4.148   0.000  0.00  0.00    -0.024 SA
ATOM     10  C   UNL d   1       4.073  -4.893   0.000  0.00  0.00     0.045 A 
ATOM     11  C   UNL d   1       4.581  -6.465   0.000  0.00  0.00     0.050 A 
ATOM     12  C   UNL d   1       4.572  -5.642   0.000  0.00  0.00     0.018 A 
ATOM     13  O   UNL d   1       8.354  -4.373   0.000  0.00  0.00    -0.258 OA
ATOM     14  C   UNL d   1       3.520  -5.504   0.000  0.00  0.00    -0.026 A 
ATOM     15  C   UNL d   1       3.774  -6.291   0.000  0.00  0.00    -0.026 A 
ENDROOT
BRANCH   5  16
ATOM     16  C   UNL d   1       5.184  -3.682   0.000  0.00  0.00     0.002 A 
ATOM     17  C   UNL d   1       4.385  -3.507   0.000  0.00  0.00     0.028 A 
ATOM     18  C   UNL d   1       4.131  -2.725   0.000  0.00  0.00     0.133 A 
ATOM     19  C   UNL d   1       4.685  -2.109   0.000  0.00  0.00     0.218 A 
ATOM     20  C   UNL d   1       5.496  -2.288   0.000  0.00  0.00     0.044 A 
ATOM     21  O   UNL d   1       4.435  -1.323   0.000  0.00  0.00    -0.284 OA
ATOM     22  C   UNL d   1       5.746  -3.070   0.000  0.00  0.00     0.003 A 
BRANCH  18  23
ATOM     23  O   UNL d   1       3.324  -2.550   0.000  0.00  0.00    -0.325 OA
ATOM     24  C   UNL d   1       3.070  -1.764   0.000  0.00  0.00     0.181 C 
ENDBRANCH  18  23
ENDBRANCH   5  16
TORSDOF 2
