REMARK  7 active torsions:
REMARK  status: ('A' for Active; 'I' for Inactive)
REMARK    1  A    between atoms: C_19  and  N_5 
REMARK    2  A    between atoms: C_12  and  C_6 
REMARK       I    between atoms: N_20  and  C_12 
REMARK    3  A    between atoms: C_21  and  C_19 
REMARK    4  A    between atoms: C_26  and  N_20 
REMARK    5  A    between atoms: C_23  and  C_26 
REMARK    6  A    between atoms: C_27  and  C_23 
REMARK    7  A    between atoms: O_24  and  C_27 
ROOT
ATOM      1  C   UNL d   1       2.129  -0.929   0.000  0.00  0.00     0.155 A 
ATOM      2  C   UNL d   1       2.129  -0.104   0.000  0.00  0.00     0.091 A 
ATOM      3  N   UNL d   1       1.417  -1.342   0.000  0.00  0.00    -0.210 NA
ATOM      4  N   UNL d   1       0.704  -0.092   0.000  0.00  0.00    -0.258 N 
ATOM      5  N   UNL d   1       2.842  -1.342   0.000  0.00  0.00    -0.274 N 
ATOM      6  C   UNL d   1       3.567  -0.113   0.000  0.00  0.00     0.094 A 
ATOM      7  C   UNL d   1       1.417   0.321   0.000  0.00  0.00     0.269 A 
ATOM      8  C   UNL d   1       3.562  -0.938   0.000  0.00  0.00     0.175 A 
ATOM      9  C   UNL d   1       0.700  -0.929   0.000  0.00  0.00     0.152 A 
ATOM     10  C   UNL d   1       2.854   0.312   0.000  0.00  0.00     0.016 A 
ATOM     11  C   UNL d   1      -0.013   0.321   0.000  0.00  0.00     0.084 A 
ATOM     12  C   UNL d   1      -0.013  -1.337   0.000  0.00  0.00     0.038 A 
ATOM     13  N   UNL d   1       4.279  -1.354   0.000  0.00  0.00    -0.128 N 
ATOM     14  C   UNL d   1      -0.725  -0.092   0.000  0.00  0.00     0.018 A 
ATOM     15  C   UNL d   1      -0.725  -0.929   0.000  0.00  0.00     0.005 A 
ATOM     16  O   UNL d   1       1.425   1.146   0.000  0.00  0.00    -0.266 OA
ATOM     17  C   UNL d   1      -1.446   0.312   0.000  0.00  0.00     0.002 C 
ENDROOT
BRANCH   6  18
ATOM     18  C   UNL d   1       4.279   0.296   0.000  0.00  0.00     0.282 C 
ATOM     19  O   UNL d   1       4.287   1.121   0.000  0.00  0.00    -0.265 OA
ATOM     20  N   UNL d   1       4.992  -0.117   0.000  0.00  0.00    -0.206 NA
BRANCH  20  21
ATOM     21  C   UNL d   1       5.713   0.283   0.000  0.00  0.00     0.104 C 
BRANCH  21  22
ATOM     22  C   UNL d   1       6.425  -0.129   0.000  0.00  0.00     0.047 C 
BRANCH  22  23
ATOM     23  C   UNL d   1       6.417  -0.954   0.000  0.00  0.00     0.118 C 
BRANCH  23  24
ATOM     24  O   UNL d   1       5.700  -1.367   0.000  0.00  0.00    -0.326 OA
ATOM     25  C   UNL d   1       5.692  -2.192   0.000  0.00  0.00     0.181 C 
ENDBRANCH  23  24
ENDBRANCH  22  23
ENDBRANCH  21  22
ENDBRANCH  20  21
ENDBRANCH   6  18
BRANCH   5  26
ATOM     26  C   UNL d   1       2.842  -2.167   0.000  0.00  0.00     0.083 C 
BRANCH  26  27
ATOM     27  C   UNL d   1       3.554  -2.587   0.000  0.00  0.00     0.019 C 
ATOM     28  C   UNL d   1       3.550  -3.413   0.000  0.00  0.00     0.002 C 
ENDBRANCH  26  27
ENDBRANCH   5  26
TORSDOF 7
