REMARK  7 active torsions:
REMARK  status: ('A' for Active; 'I' for Inactive)
REMARK    1  A    between atoms: C_6  and  C_1 
REMARK    2  A    between atoms: C_14  and  C_5 
REMARK    3  A    between atoms: O_19  and  C_7 
REMARK    4  A    between atoms: O_20  and  C_8 
REMARK    5  A    between atoms: O_21  and  C_9 
REMARK    6  A    between atoms: O_17  and  C_14 
REMARK    7  A    between atoms: C_18  and  O_17 
ROOT
ATOM      1  C   UNL d   1       4.118  -2.515   0.000  0.00  0.00     0.205 A 
ATOM      2  N   UNL d   1       4.088  -3.343   0.000  0.00  0.00    -0.121 NA
ATOM      3  O   UNL d   1       3.343  -2.224   0.000  0.00  0.00    -0.267 OA
ATOM      4  N   UNL d   1       3.290  -3.570   0.000  0.00  0.00    -0.119 NA
ATOM      5  C   UNL d   1       2.831  -2.877   0.000  0.00  0.00     0.230 A 
ENDROOT
BRANCH   1   6
ATOM      6  C   UNL d   1       4.814  -2.063   0.000  0.00  0.00     0.047 A 
ATOM      7  C   UNL d   1       5.553  -2.430   0.000  0.00  0.00     0.030 A 
ATOM      8  C   UNL d   1       6.232  -1.979   0.000  0.00  0.00     0.118 A 
ATOM      9  C   UNL d   1       6.190  -1.151   0.000  0.00  0.00     0.138 A 
ATOM     10  C   UNL d   1       5.452  -0.788   0.000  0.00  0.00     0.118 A 
ATOM     11  C   UNL d   1       4.755  -1.241   0.000  0.00  0.00     0.030 A 
BRANCH   8  12
ATOM     12  O   UNL d   1       6.971  -2.355   0.000  0.00  0.00    -0.326 OA
ATOM     13  C   UNL d   1       7.022  -3.181   0.000  0.00  0.00     0.181 C 
ENDBRANCH   8  12
BRANCH   9  14
ATOM     14  O   UNL d   1       6.885  -0.705   0.000  0.00  0.00    -0.324 OA
ATOM     15  C   UNL d   1       7.624  -1.080   0.000  0.00  0.00     0.182 C 
ENDBRANCH   9  14
BRANCH  10  16
ATOM     16  O   UNL d   1       5.408   0.040   0.000  0.00  0.00    -0.326 OA
ATOM     17  C   UNL d   1       6.095   0.488   0.000  0.00  0.00     0.181 C 
ENDBRANCH  10  16
ENDBRANCH   1   6
BRANCH   5  18
ATOM     18  C   UNL d   1       2.003  -2.837   0.000  0.00  0.00     0.169 C 
BRANCH  18  19
ATOM     19  O   UNL d   1       1.554  -3.528   0.000  0.00  0.00    -0.301 OA
BRANCH  19  20
ATOM     20  C   UNL d   1       0.729  -3.480   0.000  0.00  0.00     0.100 A 
ATOM     21  C   UNL d   1       0.359  -2.742   0.000  0.00  0.00     0.025 A 
ATOM     22  C   UNL d   1      -0.459  -2.694   0.000  0.00  0.00     0.002 A 
ATOM     23  C   UNL d   1      -0.838  -1.956   0.000  0.00  0.00     0.000 A 
ATOM     24  C   UNL d   1      -0.915  -3.379   0.000  0.00  0.00     0.000 A 
ATOM     25  C   UNL d   1      -1.662  -1.914   0.000  0.00  0.00     0.000 A 
ATOM     26  C   UNL d   1      -2.112  -2.605   0.000  0.00  0.00     0.000 A 
ATOM     27  C   UNL d   1      -1.737  -3.343   0.000  0.00  0.00     0.000 A 
ATOM     28  C   UNL d   1      -0.548  -4.118   0.000  0.00  0.00     0.002 A 
ATOM     29  C   UNL d   1       0.286  -4.169   0.000  0.00  0.00     0.025 A 
ENDBRANCH  19  20
ENDBRANCH  18  19
ENDBRANCH   5  18
TORSDOF 7
