REMARK  4 active torsions:
REMARK  status: ('A' for Active; 'I' for Inactive)
REMARK    1  A    between atoms: C_13  and  N_3 
REMARK    2  A    between atoms: C_11  and  C_6 
REMARK    3  A    between atoms: O_22  and  C_11 
REMARK    4  A    between atoms: C_21  and  C_13 
ROOT
ATOM      1  C   UNL d   1       3.259  -2.174   0.000  0.00  0.00     0.155 A 
ATOM      2  C   UNL d   1       3.259  -1.351   0.000  0.00  0.00     0.091 A 
ATOM      3  N   UNL d   1       3.970  -2.586   0.000  0.00  0.00    -0.274 N 
ATOM      4  N   UNL d   1       2.544  -2.586   0.000  0.00  0.00    -0.210 NA
ATOM      5  N   UNL d   1       1.833  -1.347   0.000  0.00  0.00    -0.258 N 
ATOM      6  C   UNL d   1       4.689  -1.359   0.000  0.00  0.00     0.100 A 
ATOM      7  C   UNL d   1       1.825  -2.174   0.000  0.00  0.00     0.152 A 
ATOM      8  C   UNL d   1       4.681  -2.182   0.000  0.00  0.00     0.175 A 
ATOM      9  C   UNL d   1       2.548  -0.927   0.000  0.00  0.00     0.269 A 
ATOM     10  C   UNL d   1       3.978  -0.935   0.000  0.00  0.00     0.016 A 
ATOM     11  C   UNL d   1       1.114  -2.582   0.000  0.00  0.00     0.035 A 
ATOM     12  C   UNL d   1       1.114  -0.927   0.000  0.00  0.00     0.084 A 
ATOM     13  N   UNL d   1       5.400  -2.598   0.000  0.00  0.00    -0.128 N 
ATOM     14  O   UNL d   1       2.548  -0.104   0.000  0.00  0.00    -0.266 OA
ATOM     15  C   UNL d   1       0.403  -1.347   0.000  0.00  0.00     0.019 A 
ATOM     16  C   UNL d   1       0.403  -2.174   0.000  0.00  0.00     0.005 A 
ATOM     17  C   UNL d   1       1.122  -3.409   0.000  0.00  0.00     0.003 C 
ENDROOT
BRANCH   3  18
ATOM     18  C   UNL d   1       3.966  -3.409   0.000  0.00  0.00     0.084 C 
BRANCH  18  19
ATOM     19  C   UNL d   1       3.247  -3.820   0.000  0.00  0.00     0.037 A 
ATOM     20  C   UNL d   1       2.544  -3.405   0.000  0.00  0.00     0.100 A 
ATOM     21  N   UNL d   1       1.825  -3.808   0.000  0.00  0.00    -0.242 NA
ATOM     22  C   UNL d   1       1.825  -4.631   0.000  0.00  0.00     0.099 A 
ATOM     23  C   UNL d   1       2.536  -5.051   0.000  0.00  0.00     0.021 A 
ATOM     24  C   UNL d   1       3.247  -4.639   0.000  0.00  0.00     0.005 A 
ENDBRANCH  18  19
ENDBRANCH   3  18
BRANCH   6  25
ATOM     25  C   UNL d   1       5.404  -0.948   0.000  0.00  0.00     0.299 C 
ATOM     26  O   UNL d   1       5.412  -0.116   0.000  0.00  0.00    -0.259 OA
BRANCH  25  27
ATOM     27  O   UNL d   1       6.115  -1.359   0.000  0.00  0.00    -0.296 OA
ATOM     28  C   UNL d   1       6.834  -0.952   0.000  0.00  0.00     0.185 C 
ENDBRANCH  25  27
ENDBRANCH   6  25
TORSDOF 4
