REMARK  8 active torsions:
REMARK  status: ('A' for Active; 'I' for Inactive)
REMARK    1  A    between atoms: N_9  and  C_1 
REMARK    2  A    between atoms: C_12  and  C_2 
REMARK    3  A    between atoms: C_28  and  N_6 
REMARK    4  A    between atoms: C_10  and  C_12 
REMARK    5  A    between atoms: C_16  and  C_14 
REMARK    6  A    between atoms: C_20  and  C_16 
REMARK    7  A    between atoms: O_31  and  C_20 
REMARK    8  A    between atoms: C_34  and  C_28 
ROOT
ATOM      1  C   UNL d   1       5.654  -3.825   0.000  0.00  0.00     0.154 A 
ATOM      2  C   UNL d   1       5.654  -2.992   0.000  0.00  0.00     0.092 A 
ATOM      3  N   UNL d   1       4.925  -4.237   0.000  0.00  0.00    -0.210 NA
ATOM      4  N   UNL d   1       4.213  -2.992   0.000  0.00  0.00    -0.258 N 
ATOM      5  C   UNL d   1       4.204  -3.825   0.000  0.00  0.00     0.152 A 
ATOM      6  C   UNL d   1       4.929  -2.567   0.000  0.00  0.00     0.269 A 
ATOM      7  C   UNL d   1       3.492  -4.229   0.000  0.00  0.00     0.035 A 
ATOM      8  C   UNL d   1       3.492  -2.579   0.000  0.00  0.00     0.084 A 
ATOM      9  O   UNL d   1       4.929  -1.742   0.000  0.00  0.00    -0.266 OA
ATOM     10  C   UNL d   1       2.788  -2.992   0.000  0.00  0.00     0.019 A 
ATOM     11  C   UNL d   1       2.788  -3.817   0.000  0.00  0.00     0.005 A 
ATOM     12  C   UNL d   1       3.492  -5.054   0.000  0.00  0.00     0.003 C 
ENDROOT
BRANCH   1  13
ATOM     13  N   UNL d   1       6.367  -4.242   0.000  0.00  0.00    -0.284 N 
ATOM     14  C   UNL d   1       6.354  -5.067   0.000  0.00  0.00     0.129 A 
ATOM     15  C   UNL d   1       7.067  -5.479   0.000  0.00  0.00     0.296 A 
ATOM     16  O   UNL d   1       7.062  -6.304   0.000  0.00  0.00    -0.264 OA
ATOM     17  N   UNL d   1       7.787  -5.075   0.000  0.00  0.00    -0.204 NA
ATOM     18  C   UNL d   1       7.792  -4.250   0.000  0.00  0.00     0.121 A 
ATOM     19  C   UNL d   1       7.079  -3.829   0.000  0.00  0.00     0.102 A 
BRANCH  14  20
ATOM     20  C   UNL d   1       5.642  -5.467   0.000  0.00  0.00     0.091 C 
BRANCH  20  21
ATOM     21  C   UNL d   1       5.629  -6.292   0.000  0.00  0.00     0.298 C 
ATOM     22  O   UNL d   1       6.342  -6.717   0.000  0.00  0.00    -0.259 OA
BRANCH  21  23
ATOM     23  O   UNL d   1       4.917  -6.704   0.000  0.00  0.00    -0.296 OA
ATOM     24  C   UNL d   1       4.912  -7.529   0.000  0.00  0.00     0.185 C 
ENDBRANCH  21  23
ENDBRANCH  20  21
ENDBRANCH  14  20
ENDBRANCH   1  13
BRANCH   2  25
ATOM     25  C   UNL d   1       6.367  -2.579   0.000  0.00  0.00     0.019 C 
BRANCH  25  26
ATOM     26  C   UNL d   1       6.367  -1.754   0.000  0.00  0.00     0.088 A 
ATOM     27  C   UNL d   1       7.037  -1.275   0.000  0.00  0.00     0.272 A 
ATOM     28  N   UNL d   1       6.779  -0.487   0.000  0.00  0.00    -0.259 N 
ATOM     29  O   UNL d   1       7.825  -1.529   0.000  0.00  0.00    -0.266 OA
ATOM     30  C   UNL d   1       5.954  -0.487   0.000  0.00  0.00     0.153 A 
ATOM     31  S   UNL d   1       5.704  -1.275   0.000  0.00  0.00    -0.053 SA
ATOM     32  S   UNL d   1       5.475   0.175   0.000  0.00  0.00    -0.052 SA
BRANCH  28  33
ATOM     33  C   UNL d   1       7.267   0.183   0.000  0.00  0.00     0.084 C 
BRANCH  33  34
ATOM     34  C   UNL d   1       8.092   0.087   0.000  0.00  0.00     0.019 C 
ATOM     35  C   UNL d   1       8.579   0.758   0.000  0.00  0.00     0.002 C 
ENDBRANCH  33  34
ENDBRANCH  28  33
ENDBRANCH  25  26
ENDBRANCH   2  25
TORSDOF 8
