REMARK  6 active torsions:
REMARK  status: ('A' for Active; 'I' for Inactive)
REMARK    1  A    between atoms: S_5  and  C_3 
REMARK    2  A    between atoms: C_16  and  S_5 
REMARK    3  A    between atoms: C_20  and  N_6 
REMARK    4  A    between atoms: N_19  and  C_25 
REMARK    5  A    between atoms: C_24  and  C_20 
REMARK    6  A    between atoms: C_25  and  C_24 
ROOT
ATOM      1  C   UNL d   1       3.587  -1.538   0.000  0.00  0.00     0.155 A 
ATOM      2  C   UNL d   1       3.587  -0.713   0.000  0.00  0.00     0.092 A 
ATOM      3  C   UNL d   1       5.017  -0.717   0.000  0.00  0.00     0.124 A 
ATOM      4  N   UNL d   1       2.867  -1.950   0.000  0.00  0.00    -0.210 NA
ATOM      5  N   UNL d   1       4.292  -1.950   0.000  0.00  0.00    -0.273 N 
ATOM      6  C   UNL d   1       5.017  -1.542   0.000  0.00  0.00     0.181 A 
ATOM      7  C   UNL d   1       2.867  -0.292   0.000  0.00  0.00     0.269 A 
ATOM      8  N   UNL d   1       2.154  -0.704   0.000  0.00  0.00    -0.258 N 
ATOM      9  C   UNL d   1       4.304  -0.292   0.000  0.00  0.00     0.022 A 
ATOM     10  C   UNL d   1       2.150  -1.538   0.000  0.00  0.00     0.152 A 
ATOM     11  N   UNL d   1       5.729  -1.962   0.000  0.00  0.00    -0.128 N 
ATOM     12  C   UNL d   1       1.438  -0.287   0.000  0.00  0.00     0.084 A 
ATOM     13  O   UNL d   1       2.875   0.537   0.000  0.00  0.00    -0.266 OA
ATOM     14  C   UNL d   1       1.438  -1.942   0.000  0.00  0.00     0.038 A 
ATOM     15  C   UNL d   1       0.729  -0.704   0.000  0.00  0.00     0.019 A 
ATOM     16  C   UNL d   1       0.729  -1.538   0.000  0.00  0.00     0.005 A 
ENDROOT
BRANCH   3  17
ATOM     17  S   UNL d   1       5.737  -0.312   0.000  0.00  0.00     0.213 S 
ATOM     18  O   UNL d   1       6.175  -1.004   0.000  0.00  0.00    -0.217 OA
ATOM     19  O   UNL d   1       5.329   0.408   0.000  0.00  0.00    -0.217 OA
BRANCH  17  20
ATOM     20  C   UNL d   1       6.454   0.096   0.000  0.00  0.00     0.088 A 
ATOM     21  C   UNL d   1       7.162  -0.329   0.000  0.00  0.00     0.011 A 
ATOM     22  C   UNL d   1       7.879   0.071   0.000  0.00  0.00     0.001 A 
ATOM     23  C   UNL d   1       7.892   0.896   0.000  0.00  0.00     0.000 A 
ATOM     24  C   UNL d   1       7.179   1.321   0.000  0.00  0.00     0.001 A 
ATOM     25  C   UNL d   1       6.463   0.912   0.000  0.00  0.00     0.011 A 
ENDBRANCH  17  20
ENDBRANCH   3  17
BRANCH   5  26
ATOM     26  C   UNL d   1       4.292  -2.779   0.000  0.00  0.00     0.085 C 
BRANCH  26  27
ATOM     27  C   UNL d   1       3.575  -3.188   0.000  0.00  0.00     0.038 C 
BRANCH  27  28
ATOM     28  C   UNL d   1       3.567  -4.004   0.000  0.00  0.00     0.082 C 
BRANCH  28  29
ATOM     29  N   UNL d   1       2.854  -4.417   0.000  0.00  0.00    -0.299 N 
ATOM     30  C   UNL d   1       2.142  -4.004   0.000  0.00  0.00     0.107 A 
ATOM     31  C   UNL d   1       1.429  -4.404   0.000  0.00  0.00     0.142 A 
ATOM     32  O   UNL d   1       1.417  -5.229   0.000  0.00  0.00    -0.300 OA
ATOM     33  C   UNL d   1       2.129  -5.654   0.000  0.00  0.00     0.142 A 
ATOM     34  C   UNL d   1       2.854  -5.242   0.000  0.00  0.00     0.107 A 
ENDBRANCH  28  29
ENDBRANCH  27  28
ENDBRANCH  26  27
ENDBRANCH   5  26
TORSDOF 6
