REMARK  6 active torsions:
REMARK  status: ('A' for Active; 'I' for Inactive)
REMARK    1  A    between atoms: N_9  and  C_1 
REMARK    2  A    between atoms: C_15  and  N_4 
REMARK    3  A    between atoms: C_7  and  N_9 
REMARK    4  A    between atoms: C_12  and  C_11 
REMARK    5  A    between atoms: C_13  and  C_12 
REMARK       I    between atoms: N_16  and  C_13 
REMARK    6  A    between atoms: C_20  and  N_16 
ROOT
ATOM      1  N   UNL d   1       4.572  -5.271   0.000  0.00  0.00    -0.182 NA
ATOM      2  C   UNL d   1       4.830  -4.485   0.000  0.00  0.00     0.197 A 
ATOM      3  C   UNL d   1       3.749  -5.271   0.000  0.00  0.00     0.287 A 
ATOM      4  S   UNL d   1       4.160  -3.998   0.000  0.00  0.00    -0.043 SA
ATOM      5  C   UNL d   1       3.499  -4.485   0.000  0.00  0.00     0.095 A 
ATOM      6  O   UNL d   1       3.262  -5.941   0.000  0.00  0.00    -0.265 OA
ENDROOT
BRANCH   2   7
ATOM      7  N   UNL d   1       5.617  -4.235   0.000  0.00  0.00    -0.215 NA
BRANCH   7   8
ATOM      8  C   UNL d   1       6.220  -4.785   0.000  0.00  0.00     0.159 A 
ATOM      9  C   UNL d   1       7.031  -4.610   0.000  0.00  0.00     0.298 A 
ATOM     10  N   UNL d   1       7.443  -5.330   0.000  0.00  0.00    -0.209 N 
ATOM     11  O   UNL d   1       7.364  -3.861   0.000  0.00  0.00    -0.263 OA
ATOM     12  N   UNL d   1       6.890  -5.941   0.000  0.00  0.00    -0.238 N 
ATOM     13  C   UNL d   1       6.133  -5.604   0.000  0.00  0.00     0.104 A 
ATOM     14  C   UNL d   1       7.056  -6.744   0.000  0.00  0.00     0.120 C 
ATOM     15  C   UNL d   1       5.421  -6.008   0.000  0.00  0.00     0.022 C 
BRANCH  10  16
ATOM     16  C   UNL d   1       8.254  -5.417   0.000  0.00  0.00     0.085 A 
ATOM     17  C   UNL d   1       8.741  -4.747   0.000  0.00  0.00     0.019 A 
ATOM     18  C   UNL d   1       9.553  -4.835   0.000  0.00  0.00     0.002 A 
ATOM     19  C   UNL d   1       9.898  -5.592   0.000  0.00  0.00     0.000 A 
ATOM     20  C   UNL d   1       9.411  -6.257   0.000  0.00  0.00     0.002 A 
ATOM     21  C   UNL d   1       8.591  -6.170   0.000  0.00  0.00     0.019 A 
ENDBRANCH  10  16
ENDBRANCH   7   8
ENDBRANCH   2   7
BRANCH   5  22
ATOM     22  C   UNL d   1       2.713  -4.235   0.000  0.00  0.00     0.074 C 
BRANCH  22  23
ATOM     23  C   UNL d   1       2.538  -3.432   0.000  0.00  0.00     0.280 C 
ATOM     24  N   UNL d   1       1.760  -3.175   0.000  0.00  0.00    -0.208 NA
ATOM     25  O   UNL d   1       3.150  -2.875   0.000  0.00  0.00    -0.265 OA
BRANCH  24  26
ATOM     26  C   UNL d   1       1.589  -2.372   0.000  0.00  0.00     0.085 A 
ATOM     27  C   UNL d   1       0.803  -2.122   0.000  0.00  0.00     0.020 A 
ATOM     28  C   UNL d   1       0.628  -1.315   0.000  0.00  0.00     0.013 A 
ATOM     29  C   UNL d   1       1.248  -0.761   0.000  0.00  0.00     0.058 A 
ATOM     30  C   UNL d   1       2.026  -1.015   0.000  0.00  0.00     0.013 A 
ATOM     31 CL   UNL d   1       1.073   0.046   0.000  0.00  0.00    -0.082 Cl
ATOM     32  C   UNL d   1       2.201  -1.822   0.000  0.00  0.00     0.020 A 
ENDBRANCH  24  26
ENDBRANCH  22  23
ENDBRANCH   5  22
TORSDOF 6
