REMARK  1 active torsions:
REMARK  status: ('A' for Active; 'I' for Inactive)
REMARK    1  A    between atoms: C_13  and  C_7 
ROOT
ATOM      1  C   UNL d   1       6.483  -5.130   0.000  0.00  0.00     0.120 A 
ATOM      2  C   UNL d   1       6.233  -4.344   0.000  0.00  0.00     0.058 A 
ATOM      3  N   UNL d   1       7.307  -5.130   0.000  0.00  0.00    -0.195 NA
ATOM      4  S   UNL d   1       5.934  -5.734   0.000  0.00  0.00    -0.072 SA
ATOM      5  C   UNL d   1       5.135  -5.559   0.000  0.00  0.00     0.009 A 
ATOM      6  C   UNL d   1       4.881  -4.773   0.000  0.00  0.00    -0.015 A 
ATOM      7  C   UNL d   1       5.434  -4.169   0.000  0.00  0.00     0.005 A 
ATOM      8  C   UNL d   1       7.569  -4.344   0.000  0.00  0.00     0.311 A 
ATOM      9  S   UNL d   1       6.895  -3.861   0.000  0.00  0.00    -0.024 SA
ATOM     10  C   UNL d   1       4.074  -4.598   0.000  0.00  0.00     0.045 A 
ATOM     11  C   UNL d   1       4.581  -6.171   0.000  0.00  0.00     0.050 A 
ATOM     12  C   UNL d   1       4.573  -5.347   0.000  0.00  0.00     0.018 A 
ATOM     13  O   UNL d   1       8.355  -4.086   0.000  0.00  0.00    -0.258 OA
ATOM     14  C   UNL d   1       3.520  -5.210   0.000  0.00  0.00    -0.026 A 
ATOM     15  C   UNL d   1       3.774  -5.996   0.000  0.00  0.00    -0.026 A 
ENDROOT
BRANCH   7  16
ATOM     16  C   UNL d   1       5.185  -3.387   0.000  0.00  0.00     0.001 A 
ATOM     17  C   UNL d   1       5.746  -2.775   0.000  0.00  0.00     0.003 A 
ATOM     18  C   UNL d   1       5.497  -1.997   0.000  0.00  0.00     0.042 A 
ATOM     19  C   UNL d   1       4.685  -1.814   0.000  0.00  0.00     0.196 A 
ATOM     20  C   UNL d   1       4.132  -2.434   0.000  0.00  0.00     0.042 A 
ATOM     21  O   UNL d   1       4.436  -1.028   0.000  0.00  0.00    -0.287 OA
ATOM     22  C   UNL d   1       4.386  -3.212   0.000  0.00  0.00     0.003 A 
ENDBRANCH   7  16
TORSDOF 1
