REMARK  6 active torsions:
REMARK  status: ('A' for Active; 'I' for Inactive)
REMARK    1  A    between atoms: C_6  and  C_1 
REMARK    2  A    between atoms: C_8  and  C_2 
REMARK    3  A    between atoms: C_9  and  C_4 
REMARK    4  A    between atoms: C_12  and  C_8 
REMARK    5  A    between atoms: O_27  and  C_11 
REMARK    6  A    between atoms: C_30  and  O_27 
ROOT
ATOM      1  C   UNL d   1      -3.982   3.761   0.000  0.00  0.00     0.306 A 
ATOM      2  C   UNL d   1      -3.531   3.069   0.000  0.00  0.00     0.114 A 
ATOM      3  N   UNL d   1      -4.812   3.700   0.000  0.00  0.00    -0.152 NA
ATOM      4  C   UNL d   1      -3.900   2.332   0.000  0.00  0.00     0.094 A 
ATOM      5  C   UNL d   1      -5.176   2.962   0.000  0.00  0.00     0.371 A 
ATOM      6  N   UNL d   1      -4.714   2.270   0.000  0.00  0.00    -0.191 NA
ATOM      7  O   UNL d   1      -6.006   2.900   0.000  0.00  0.00    -0.242 OA
ATOM      8  O   UNL d   1      -4.320   4.499   0.000  0.00  0.00    -0.266 OA
ENDROOT
BRANCH   4   9
ATOM      9  C   UNL d   1      -3.438   1.640   0.000  0.00  0.00     0.020 A 
ATOM     10  C   UNL d   1      -3.797   0.902   0.000  0.00  0.00     0.029 A 
ATOM     11  C   UNL d   1      -3.336   0.210   0.000  0.00  0.00     0.139 A 
ATOM     12  C   UNL d   1      -2.506   0.261   0.000  0.00  0.00     0.218 A 
ATOM     13  C   UNL d   1      -2.147   1.010   0.000  0.00  0.00     0.044 A 
ATOM     14  O   UNL d   1      -2.055  -0.415   0.000  0.00  0.00    -0.284 OA
ATOM     15  C   UNL d   1      -2.608   1.701   0.000  0.00  0.00     0.005 A 
BRANCH  11  16
ATOM     16  O   UNL d   1      -3.700  -0.523   0.000  0.00  0.00    -0.302 OA
BRANCH  16  17
ATOM     17  C   UNL d   1      -4.504  -0.574   0.000  0.00  0.00     0.123 C 
ATOM     18  C   UNL d   1      -4.868  -1.307   0.000  0.00  0.00     0.029 C 
ENDBRANCH  16  17
ENDBRANCH  11  16
ENDBRANCH   4   9
BRANCH   2  19
ATOM     19  C   UNL d   1      -2.700   3.131   0.000  0.00  0.00     0.201 C 
ATOM     20  O   UNL d   1      -2.562   2.408   0.000  0.00  0.00    -0.286 OA
BRANCH  19  21
ATOM     21  C   UNL d   1      -2.101   3.438   0.000  0.00  0.00     0.039 A 
ATOM     22  C   UNL d   1      -1.332   3.146   0.000  0.00  0.00     0.004 A 
ATOM     23  C   UNL d   1      -0.702   3.669   0.000  0.00  0.00     0.011 A 
ATOM     24  C   UNL d   1      -0.830   4.484   0.000  0.00  0.00     0.058 A 
ATOM     25  C   UNL d   1      -1.609   4.776   0.000  0.00  0.00     0.011 A 
ATOM     26 CL   UNL d   1      -0.195   4.996   0.000  0.00  0.00    -0.082 Cl
ATOM     27  C   UNL d   1      -2.239   4.253   0.000  0.00  0.00     0.004 A 
ENDBRANCH  19  21
ENDBRANCH   2  19
BRANCH   1  28
ATOM     28  C   UNL d   1      -3.531   4.412   0.000  0.00  0.00     0.470 C 
ATOM     29  F   UNL d   1      -3.751   5.201   0.000  0.00  0.00    -0.162 F 
ATOM     30  F   UNL d   1      -3.115   4.996   0.000  0.00  0.00    -0.162 F 
ATOM     31  F   UNL d   1      -2.706   4.468   0.000  0.00  0.00    -0.162 F 
ENDBRANCH   1  28
TORSDOF 6
