REMARK  3 active torsions:
REMARK  status: ('A' for Active; 'I' for Inactive)
REMARK       I    between atoms: C_2  and  N_1 
REMARK    1  A    between atoms: C_6  and  C_2 
REMARK    2  A    between atoms: O_14  and  C_9 
REMARK    3  A    between atoms: O_16  and  C_11 
ROOT
ATOM      1  C   UNL d   1      -2.208   0.146   0.000  0.00  0.00     0.060 A 
ATOM      2  C   UNL d   1      -2.922  -0.262   0.000  0.00  0.00     0.031 A 
ATOM      3  C   UNL d   1      -3.635   0.146   0.000  0.00  0.00     0.116 A 
ATOM      4  C   UNL d   1      -3.635   0.975   0.000  0.00  0.00     0.116 A 
ATOM      5  C   UNL d   1      -2.208   0.975   0.000  0.00  0.00     0.007 A 
ATOM      6  C   UNL d   1      -2.922   1.388   0.000  0.00  0.00     0.026 A 
ENDROOT
BRANCH   1   7
ATOM      7  C   UNL d   1      -1.497  -0.266   0.000  0.00  0.00     0.280 C 
ATOM      8  N   UNL d   1      -0.786   0.146   0.000  0.00  0.00    -0.195 N 
ATOM      9  N   UNL d   1      -0.026  -0.191   0.000  0.00  0.00    -0.163 NA
ATOM     10  C   UNL d   1      -0.699   0.964   0.000  0.00  0.00     0.088 A 
ATOM     11  C   UNL d   1       0.527   0.422   0.000  0.00  0.00     0.103 A 
ATOM     12  C   UNL d   1       1.350   0.335   0.000  0.00  0.00     0.022 C 
ATOM     13  C   UNL d   1       0.116   1.135   0.000  0.00  0.00     0.040 A 
ATOM     14  C   UNL d   1      -1.312   1.520   0.000  0.00  0.00     0.021 C 
ATOM     15  O   UNL d   1      -1.497  -1.091   0.000  0.00  0.00    -0.265 OA
ENDBRANCH   1   7
BRANCH   3  16
ATOM     16  O   UNL d   1      -4.347  -0.266   0.000  0.00  0.00    -0.326 OA
ATOM     17  C   UNL d   1      -5.062   0.146   0.000  0.00  0.00     0.181 C 
ENDBRANCH   3  16
BRANCH   4  18
ATOM     18  O   UNL d   1      -4.347   1.384   0.000  0.00  0.00    -0.326 OA
ATOM     19  C   UNL d   1      -5.062   0.975   0.000  0.00  0.00     0.181 C 
ENDBRANCH   4  18
TORSDOF 3
