REMARK  4 active torsions:
REMARK  status: ('A' for Active; 'I' for Inactive)
REMARK    1  A    between atoms: C_6  and  S_1 
REMARK    2  A    between atoms: N_12  and  S_1 
REMARK    3  A    between atoms: N_4  and  C_2 
REMARK       I    between atoms: C_7  and  N_4 
REMARK    4  A    between atoms: C_10  and  C_7 
ROOT
ATOM      1  C   UNL d   1       0.504   0.662   0.000  0.00  0.00     0.197 A 
ATOM      2  N   UNL d   1       0.025   1.333   0.000  0.00  0.00    -0.221 NA
ATOM      3  S   UNL d   1       0.017  -0.004   0.000  0.00  0.00    -0.047 SA
ATOM      4  C   UNL d   1      -2.199   0.262   0.000  0.00  0.00     0.105 A 
ATOM      5  C   UNL d   1      -0.770   0.258   0.000  0.00  0.00     0.051 A 
ATOM      6  C   UNL d   1      -0.770   1.083   0.000  0.00  0.00     0.090 A 
ATOM      7  C   UNL d   1      -1.487  -0.154   0.000  0.00  0.00     0.021 A 
ATOM      8  C   UNL d   1      -2.195   1.095   0.000  0.00  0.00     0.015 A 
ATOM      9  C   UNL d   1      -1.483   1.499   0.000  0.00  0.00     0.020 A 
ENDROOT
BRANCH   1  10
ATOM     10  N   UNL d   1       1.329   0.658   0.000  0.00  0.00    -0.182 NA
ATOM     11  C   UNL d   1       1.762  -0.029   0.000  0.00  0.00     0.287 C 
ATOM     12  O   UNL d   1       1.379  -0.754   0.000  0.00  0.00    -0.265 OA
BRANCH  11  13
ATOM     13  C   UNL d   1       2.574  -0.013   0.000  0.00  0.00     0.087 A 
ATOM     14  S   UNL d   1       2.928  -0.741   0.000  0.00  0.00    -0.082 SA
ATOM     15  C   UNL d   1       3.736  -0.650   0.000  0.00  0.00     0.036 A 
ATOM     16  C   UNL d   1       3.890   0.162   0.000  0.00  0.00     0.008 A 
ATOM     17  C   UNL d   1       3.178   0.558   0.000  0.00  0.00     0.012 A 
ENDBRANCH  11  13
ENDBRANCH   1  10
BRANCH   4  18
ATOM     18  S   UNL d   1      -2.919  -0.137   0.000  0.00  0.00     0.272 S 
ATOM     19  O   UNL d   1      -3.311   0.795   0.000  0.00  0.00    -0.200 OA
ATOM     20  O   UNL d   1      -2.607  -1.079   0.000  0.00  0.00    -0.200 OA
BRANCH  18  21
ATOM     21  N   UNL d   1      -3.719  -0.342   0.000  0.00  0.00    -0.226 N 
ATOM     22  C   UNL d   1      -3.936  -1.141   0.000  0.00  0.00     0.111 C 
ATOM     23  C   UNL d   1      -4.298   0.246   0.000  0.00  0.00     0.111 C 
ENDBRANCH  18  21
ENDBRANCH   4  18
TORSDOF 4
