REMARK  2 active torsions:
REMARK  status: ('A' for Active; 'I' for Inactive)
REMARK    1  A    between atoms: C_6  and  C_4 
REMARK    2  A    between atoms: C_7  and  C_6 
ROOT
ATOM      1  N   UNL d   1       3.351  -1.412   0.000  0.00  0.00    -0.163 NA
ATOM      2  C   UNL d   1       2.529  -1.412   0.000  0.00  0.00     0.288 A 
ATOM      3  C   UNL d   1       3.605  -0.627   0.000  0.00  0.00     0.313 A 
ATOM      4  C   UNL d   1       2.272  -0.627   0.000  0.00  0.00     0.098 A 
ATOM      5  S   UNL d   1       2.940  -0.141   0.000  0.00  0.00    -0.020 SA
ATOM      6  O   UNL d   1       2.043  -2.072   0.000  0.00  0.00    -0.265 OA
ATOM      7  O   UNL d   1       4.390  -0.374   0.000  0.00  0.00    -0.258 OA
ENDROOT
BRANCH   4   8
ATOM      8  C   UNL d   1       1.686  -0.042   0.000  0.00  0.00     0.075 C 
ATOM      9  C   UNL d   1       0.889  -0.249   0.000  0.00  0.00     0.007 C 
BRANCH   8  10
ATOM     10  C   UNL d   1       1.898   0.756   0.000  0.00  0.00     0.211 C 
ATOM     11  O   UNL d   1       2.695   0.968   0.000  0.00  0.00    -0.644 OA
ATOM     12  O   UNL d   1       1.321   1.341   0.000  0.00  0.00    -0.644 OA
ENDBRANCH   8  10
ENDBRANCH   4   8
TORSDOF 2
