REMARK  5 active torsions:
REMARK  status: ('A' for Active; 'I' for Inactive)
REMARK    1  A    between atoms: C_7  and  S_1 
REMARK    2  A    between atoms: N_8  and  S_1 
REMARK    3  A    between atoms: S_2  and  N_4 
REMARK    4  A    between atoms: C_12  and  S_2 
REMARK    5  A    between atoms: N_4  and  C_3 
ROOT
ATOM      1  C   UNL d   1      -0.221   0.325   0.000  0.00  0.00     0.206 A 
ATOM      2  N   UNL d   1      -0.708   0.995   0.000  0.00  0.00    -0.220 NA
ATOM      3  S   UNL d   1      -0.712  -0.342   0.000  0.00  0.00    -0.046 SA
ATOM      4  C   UNL d   1      -2.931  -0.075   0.000  0.00  0.00     0.105 A 
ATOM      5  C   UNL d   1      -1.499  -0.079   0.000  0.00  0.00     0.051 A 
ATOM      6  C   UNL d   1      -1.495   0.745   0.000  0.00  0.00     0.090 A 
ATOM      7  C   UNL d   1      -2.219  -0.491   0.000  0.00  0.00     0.021 A 
ATOM      8  C   UNL d   1      -2.919   0.758   0.000  0.00  0.00     0.015 A 
ATOM      9  C   UNL d   1      -2.207   1.162   0.000  0.00  0.00     0.020 A 
ENDROOT
BRANCH   1  10
ATOM     10  N   UNL d   1       0.604   0.321   0.000  0.00  0.00    -0.132 NA
BRANCH  10  11
ATOM     11  S   UNL d   1       1.316  -0.092   0.000  0.00  0.00     0.287 S 
ATOM     12  O   UNL d   1       0.904  -0.804   0.000  0.00  0.00    -0.198 OA
ATOM     13  O   UNL d   1       1.528   0.708   0.000  0.00  0.00    -0.198 OA
BRANCH  11  14
ATOM     14  C   UNL d   1       2.140  -0.092   0.000  0.00  0.00     0.105 A 
ATOM     15  C   UNL d   1       2.548  -0.816   0.000  0.00  0.00     0.015 A 
ATOM     16  C   UNL d   1       3.373  -0.829   0.000  0.00  0.00     0.030 A 
ATOM     17  C   UNL d   1       3.798  -0.125   0.000  0.00  0.00     0.140 A 
ATOM     18  C   UNL d   1       3.398   0.600   0.000  0.00  0.00     0.030 A 
ATOM     19  F   UNL d   1       4.622  -0.137   0.000  0.00  0.00    -0.204 F 
ATOM     20  C   UNL d   1       2.565   0.608   0.000  0.00  0.00     0.015 A 
ENDBRANCH  11  14
ENDBRANCH  10  11
ENDBRANCH   1  10
BRANCH   4  21
ATOM     21  S   UNL d   1      -3.643  -0.475   0.000  0.00  0.00     0.271 S 
ATOM     22  O   UNL d   1      -3.335  -1.416   0.000  0.00  0.00    -0.200 OA
ATOM     23  O   UNL d   1      -4.043   0.458   0.000  0.00  0.00    -0.200 OA
BRANCH  21  24
ATOM     24  N   UNL d   1      -4.455  -0.679   0.000  0.00  0.00    -0.229 N 
ATOM     25  C   UNL d   1      -5.093  -0.154   0.000  0.00  0.00     0.092 A 
ATOM     26  C   UNL d   1      -5.784  -0.604   0.000  0.00  0.00     0.021 A 
ATOM     27  C   UNL d   1      -5.580  -1.403   0.000  0.00  0.00     0.021 A 
ATOM     28  C   UNL d   1      -4.755  -1.453   0.000  0.00  0.00     0.092 A 
ENDBRANCH  21  24
ENDBRANCH   4  21
TORSDOF 5
