REMARK  4 active torsions:
REMARK  status: ('A' for Active; 'I' for Inactive)
REMARK    1  A    between atoms: S_2  and  C_1 
REMARK    2  A    between atoms: C_8  and  S_2 
REMARK    3  A    between atoms: N_7  and  C_4 
REMARK    4  A    between atoms: C_11  and  N_7 
ROOT
ATOM      1  C   UNL d   1       8.549   7.302   0.000  0.00  0.00     0.187 A 
ATOM      2  N   UNL d   1       9.143   7.837   0.000  0.00  0.00    -0.208 NA
ATOM      3  C   UNL d   1       9.855   7.420   0.000  0.00  0.00     0.196 A 
ATOM      4  C   UNL d   1       8.787   6.530   0.000  0.00  0.00     0.118 A 
ATOM      5  S   UNL d   1       9.677   6.590   0.000  0.00  0.00    -0.035 SA
ATOM      6 CL   UNL d   1       8.431   5.817   0.000  0.00  0.00    -0.073 Cl
ENDROOT
BRANCH   1   7
ATOM      7  S   UNL d   1       7.718   7.420   0.000  0.00  0.00     0.228 S 
ATOM      8  O   UNL d   1       7.896   8.311   0.000  0.00  0.00    -0.216 OA
ATOM      9  O   UNL d   1       7.658   6.590   0.000  0.00  0.00    -0.216 OA
BRANCH   7  10
ATOM     10  C   UNL d   1       6.946   7.480   0.000  0.00  0.00     0.089 A 
ATOM     11  C   UNL d   1       6.412   6.886   0.000  0.00  0.00     0.011 A 
ATOM     12  C   UNL d   1       5.581   7.064   0.000  0.00  0.00     0.001 A 
ATOM     13  C   UNL d   1       5.225   7.777   0.000  0.00  0.00     0.000 A 
ATOM     14  C   UNL d   1       5.759   8.489   0.000  0.00  0.00     0.001 A 
ATOM     15  C   UNL d   1       4.334   7.955   0.000  0.00  0.00     0.000 C 
ATOM     16  C   UNL d   1       6.590   8.311   0.000  0.00  0.00     0.011 A 
ENDBRANCH   7  10
ENDBRANCH   1   7
BRANCH   3  17
ATOM     17  N   UNL d   1      10.746   7.658   0.000  0.00  0.00    -0.221 NA
BRANCH  17  18
ATOM     18  C   UNL d   1      11.399   7.064   0.000  0.00  0.00     0.084 A 
ATOM     19  C   UNL d   1      12.111   7.420   0.000  0.00  0.00     0.018 A 
ATOM     20  C   UNL d   1      12.289   8.193   0.000  0.00  0.00     0.002 C 
ATOM     21  C   UNL d   1      12.705   6.886   0.000  0.00  0.00     0.002 A 
ATOM     22  C   UNL d   1      12.527   5.996   0.000  0.00  0.00     0.000 A 
ATOM     23  C   UNL d   1      11.815   5.699   0.000  0.00  0.00     0.002 A 
ATOM     24  C   UNL d   1      11.220   6.352   0.000  0.00  0.00     0.019 A 
ENDBRANCH  17  18
ENDBRANCH   3  17
TORSDOF 4
