REMARK  5 active torsions:
REMARK  status: ('A' for Active; 'I' for Inactive)
REMARK    1  A    between atoms: C_7  and  N_2 
REMARK    2  A    between atoms: C_8  and  C_7 
REMARK    3  A    between atoms: C_13  and  C_8 
REMARK    4  A    between atoms: C_9  and  O_11 
REMARK    5  A    between atoms: O_11  and  C_13 
ROOT
ATOM      1  C   UNL d   1       5.357  -3.763   0.000  0.00  0.00     0.378 A 
ATOM      2  N   UNL d   1       4.868  -3.091   0.000  0.00  0.00    -0.251 N 
ATOM      3  O   UNL d   1       4.875  -4.429   0.000  0.00  0.00    -0.258 OA
ATOM      4  C   UNL d   1       4.080  -3.356   0.000  0.00  0.00     0.092 A 
ATOM      5  C   UNL d   1       4.086  -4.181   0.000  0.00  0.00     0.121 A 
ATOM      6  O   UNL d   1       6.180  -3.754   0.000  0.00  0.00    -0.237 OA
ATOM      7  C   UNL d   1       3.367  -2.942   0.000  0.00  0.00     0.020 A 
ATOM      8  C   UNL d   1       3.367  -4.601   0.000  0.00  0.00     0.026 A 
ATOM      9  C   UNL d   1       2.652  -3.362   0.000  0.00  0.00     0.002 A 
ATOM     10  C   UNL d   1       2.652  -4.190   0.000  0.00  0.00     0.002 A 
ENDROOT
BRANCH   2  11
ATOM     11  C   UNL d   1       5.118  -2.313   0.000  0.00  0.00     0.087 C 
BRANCH  11  12
ATOM     12  C   UNL d   1       5.919  -2.128   0.000  0.00  0.00     0.046 C 
BRANCH  12  13
ATOM     13  C   UNL d   1       6.167  -1.351   0.000  0.00  0.00     0.124 C 
BRANCH  13  14
ATOM     14  O   UNL d   1       6.968  -1.165   0.000  0.00  0.00    -0.305 OA
BRANCH  14  15
ATOM     15  C   UNL d   1       7.220  -0.377   0.000  0.00  0.00     0.100 A 
ATOM     16  C   UNL d   1       8.019  -0.203   0.000  0.00  0.00     0.025 A 
ATOM     17  C   UNL d   1       8.271   0.586   0.000  0.00  0.00     0.002 A 
ATOM     18  C   UNL d   1       7.716   1.189   0.000  0.00  0.00     0.000 A 
ATOM     19  C   UNL d   1       6.908   1.012   0.000  0.00  0.00     0.002 A 
ATOM     20  C   UNL d   1       6.656   0.224   0.000  0.00  0.00     0.025 A 
ENDBRANCH  14  15
ENDBRANCH  13  14
ENDBRANCH  12  13
ENDBRANCH  11  12
ENDBRANCH   2  11
TORSDOF 5
