REMARK  11 active torsions:
REMARK  status: ('A' for Active; 'I' for Inactive)
REMARK    1  A    between atoms: C_14  and  C_3 
REMARK    2  A    between atoms: N_15  and  C_6 
REMARK    3  A    between atoms: N_12  and  C_19 
REMARK    4  A    between atoms: N_13  and  C_20 
REMARK    5  A    between atoms: N_16  and  C_14 
REMARK    6  A    between atoms: C_28  and  N_15 
REMARK    7  A    between atoms: C_23  and  N_16 
REMARK    8  A    between atoms: C_19  and  C_21 
REMARK    9  A    between atoms: C_20  and  C_22 
REMARK   10  A    between atoms: C_21  and  C_23 
REMARK   11  A    between atoms: C_22  and  C_28 
ROOT
ATOM      1  N   UNL d   1      -1.314  -0.244   0.000  0.00  0.00    -0.258 N 
ATOM      2  C   UNL d   1      -0.587   0.165   0.000  0.00  0.00     0.270 A 
ATOM      3  C   UNL d   1       0.116  -0.244   0.000  0.00  0.00     0.111 A 
ATOM      4  N   UNL d   1      -0.587  -1.473   0.000  0.00  0.00    -0.209 NA
ATOM      5  C   UNL d   1      -1.314  -1.069   0.000  0.00  0.00     0.152 A 
ATOM      6  C   UNL d   1       0.116  -1.069   0.000  0.00  0.00     0.170 A 
ATOM      7  C   UNL d   1      -2.010   0.165   0.000  0.00  0.00     0.084 A 
ATOM      8  C   UNL d   1      -2.010  -1.473   0.000  0.00  0.00     0.038 A 
ATOM      9  C   UNL d   1      -2.732  -0.244   0.000  0.00  0.00     0.018 A 
ATOM     10  C   UNL d   1      -2.732  -1.069   0.000  0.00  0.00     0.005 A 
ATOM     11  O   UNL d   1      -0.587   1.002   0.000  0.00  0.00    -0.266 OA
ATOM     12  C   UNL d   1      -3.447   0.165   0.000  0.00  0.00     0.002 C 
ENDROOT
BRANCH   3  13
ATOM     13  C   UNL d   1       0.831   0.165   0.000  0.00  0.00     0.107 C 
BRANCH  13  14
ATOM     14  N   UNL d   1       0.831   1.002   0.000  0.00  0.00    -0.242 NA
BRANCH  14  15
ATOM     15  C   UNL d   1       1.546   1.412   0.000  0.00  0.00     0.101 C 
BRANCH  15  16
ATOM     16  C   UNL d   1       1.546   2.231   0.000  0.00  0.00     0.040 C 
BRANCH  16  17
ATOM     17  C   UNL d   1       2.273   2.658   0.000  0.00  0.00     0.082 C 
BRANCH  17  18
ATOM     18  N   UNL d   1       2.273   3.477   0.000  0.00  0.00    -0.299 N 
ATOM     19  C   UNL d   1       2.976   3.887   0.000  0.00  0.00     0.107 A 
ATOM     20  C   UNL d   1       2.976   4.724   0.000  0.00  0.00     0.142 A 
ATOM     21  O   UNL d   1       2.273   5.133   0.000  0.00  0.00    -0.300 OA
ATOM     22  C   UNL d   1       1.546   4.712   0.000  0.00  0.00     0.142 A 
ATOM     23  C   UNL d   1       1.546   3.887   0.000  0.00  0.00     0.107 A 
ENDBRANCH  17  18
ENDBRANCH  16  17
ENDBRANCH  15  16
ENDBRANCH  14  15
ENDBRANCH  13  14
ENDBRANCH   3  13
BRANCH   6  24
ATOM     24  N   UNL d   1       0.831  -1.473   0.000  0.00  0.00    -0.225 NA
BRANCH  24  25
ATOM     25  C   UNL d   1       0.831  -2.316   0.000  0.00  0.00     0.102 C 
BRANCH  25  26
ATOM     26  C   UNL d   1       1.546  -2.720   0.000  0.00  0.00     0.040 C 
BRANCH  26  27
ATOM     27  C   UNL d   1       1.546  -3.563   0.000  0.00  0.00     0.082 C 
BRANCH  27  28
ATOM     28  N   UNL d   1       2.273  -3.960   0.000  0.00  0.00    -0.299 N 
ATOM     29  C   UNL d   1       2.273  -4.791   0.000  0.00  0.00     0.107 A 
ATOM     30  C   UNL d   1       2.976  -5.213   0.000  0.00  0.00     0.142 A 
ATOM     31  O   UNL d   1       3.691  -4.791   0.000  0.00  0.00    -0.300 OA
ATOM     32  C   UNL d   1       3.691  -3.966   0.000  0.00  0.00     0.142 A 
ATOM     33  C   UNL d   1       2.976  -3.563   0.000  0.00  0.00     0.107 A 
ENDBRANCH  27  28
ENDBRANCH  26  27
ENDBRANCH  25  26
ENDBRANCH  24  25
ENDBRANCH   6  24
TORSDOF 11
