REMARK  2 active torsions:
REMARK  status: ('A' for Active; 'I' for Inactive)
REMARK    1  A    between atoms: C_5  and  N_1 
REMARK    2  A    between atoms: C_7  and  C_5 
ROOT
ATOM      1  N   UNL d   1       4.864  -3.265   0.000  0.00  0.00    -0.251 N 
ATOM      2  C   UNL d   1       5.350  -3.927   0.000  0.00  0.00     0.378 A 
ATOM      3  O   UNL d   1       4.870  -4.599   0.000  0.00  0.00    -0.258 OA
ATOM      4  C   UNL d   1       4.076  -3.527   0.000  0.00  0.00     0.092 A 
ATOM      5  C   UNL d   1       4.082  -4.350   0.000  0.00  0.00     0.121 A 
ATOM      6  O   UNL d   1       6.175  -3.927   0.000  0.00  0.00    -0.237 OA
ATOM      7  C   UNL d   1       3.365  -3.112   0.000  0.00  0.00     0.020 A 
ATOM      8  C   UNL d   1       3.365  -4.764   0.000  0.00  0.00     0.026 A 
ATOM      9  C   UNL d   1       2.651  -3.527   0.000  0.00  0.00     0.002 A 
ATOM     10  C   UNL d   1       2.651  -4.350   0.000  0.00  0.00     0.002 A 
ENDROOT
BRANCH   1  11
ATOM     11  C   UNL d   1       5.111  -2.477   0.000  0.00  0.00     0.086 C 
BRANCH  11  12
ATOM     12  C   UNL d   1       5.910  -2.301   0.000  0.00  0.00     0.028 A 
ATOM     13  C   UNL d   1       6.163  -1.513   0.000  0.00  0.00     0.059 A 
ATOM     14 CL   UNL d   1       5.575  -0.925   0.000  0.00  0.00    -0.082 Cl
ATOM     15  C   UNL d   1       6.962  -1.340   0.000  0.00  0.00     0.011 A 
ATOM     16  C   UNL d   1       7.525  -1.952   0.000  0.00  0.00     0.001 A 
ATOM     17  C   UNL d   1       7.274  -2.740   0.000  0.00  0.00     0.000 A 
ATOM     18  C   UNL d   1       6.469  -2.912   0.000  0.00  0.00     0.002 A 
ENDBRANCH  11  12
ENDBRANCH   1  11
TORSDOF 2
