REMARK  7 active torsions:
REMARK  status: ('A' for Active; 'I' for Inactive)
REMARK    1  A    between atoms: C_12  and  C_3 
REMARK    2  A    between atoms: N_9  and  C_5 
REMARK    3  A    between atoms: C_17  and  N_9 
REMARK    4  A    between atoms: N_14  and  C_12 
REMARK    5  A    between atoms: C_18  and  N_14 
REMARK    6  A    between atoms: C_16  and  C_18 
REMARK    7  A    between atoms: C_19  and  C_17 
ROOT
ATOM      1  N   UNL d   1      -0.887  -0.199   0.000  0.00  0.00    -0.258 N 
ATOM      2  C   UNL d   1      -0.166   0.217   0.000  0.00  0.00     0.270 A 
ATOM      3  C   UNL d   1       0.554  -0.185   0.000  0.00  0.00     0.111 A 
ATOM      4  N   UNL d   1      -0.166  -1.441   0.000  0.00  0.00    -0.209 NA
ATOM      5  C   UNL d   1       0.554  -1.016   0.000  0.00  0.00     0.170 A 
ATOM      6  C   UNL d   1      -0.887  -1.016   0.000  0.00  0.00     0.152 A 
ATOM      7  C   UNL d   1      -1.589   0.217   0.000  0.00  0.00     0.084 A 
ATOM      8  C   UNL d   1      -1.589  -1.441   0.000  0.00  0.00     0.038 A 
ATOM      9  C   UNL d   1      -2.296  -0.185   0.000  0.00  0.00     0.018 A 
ATOM     10  C   UNL d   1      -2.296  -1.016   0.000  0.00  0.00     0.005 A 
ATOM     11  O   UNL d   1      -0.166   1.035   0.000  0.00  0.00    -0.266 OA
ATOM     12  C   UNL d   1      -3.017   0.245   0.000  0.00  0.00     0.002 C 
ENDROOT
BRANCH   3  13
ATOM     13  C   UNL d   1       1.252   0.245   0.000  0.00  0.00     0.107 C 
BRANCH  13  14
ATOM     14  N   UNL d   1       1.238   1.067   0.000  0.00  0.00    -0.242 NA
BRANCH  14  15
ATOM     15  C   UNL d   1       1.945   1.492   0.000  0.00  0.00     0.101 C 
BRANCH  15  16
ATOM     16  C   UNL d   1       1.945   2.310   0.000  0.00  0.00     0.038 A 
ATOM     17  C   UNL d   1       2.666   2.726   0.000  0.00  0.00     0.101 A 
ATOM     18  N   UNL d   1       2.666   3.543   0.000  0.00  0.00    -0.242 NA
ATOM     19  C   UNL d   1       1.945   3.959   0.000  0.00  0.00     0.099 A 
ATOM     20  C   UNL d   1       1.238   3.562   0.000  0.00  0.00     0.021 A 
ATOM     21  C   UNL d   1       1.238   2.730   0.000  0.00  0.00     0.005 A 
ENDBRANCH  15  16
ENDBRANCH  14  15
ENDBRANCH  13  14
ENDBRANCH   3  13
BRANCH   5  22
ATOM     22  N   UNL d   1       1.252  -1.460   0.000  0.00  0.00    -0.225 NA
BRANCH  22  23
ATOM     23  C   UNL d   1       1.238  -2.292   0.000  0.00  0.00     0.101 C 
BRANCH  23  24
ATOM     24  C   UNL d   1       1.945  -2.716   0.000  0.00  0.00     0.019 A 
ATOM     25  C   UNL d   1       1.940  -3.525   0.000  0.00  0.00     0.002 A 
ATOM     26  C   UNL d   1       2.661  -3.941   0.000  0.00  0.00     0.000 A 
ATOM     27  C   UNL d   1       3.382  -3.548   0.000  0.00  0.00     0.000 A 
ATOM     28  C   UNL d   1       3.382  -2.716   0.000  0.00  0.00     0.000 A 
ATOM     29  C   UNL d   1       2.666  -2.292   0.000  0.00  0.00     0.002 A 
ENDBRANCH  23  24
ENDBRANCH  22  23
ENDBRANCH   5  22
TORSDOF 7
