REMARK  3 active torsions:
REMARK  status: ('A' for Active; 'I' for Inactive)
REMARK    1  A    between atoms: N_6  and  C_2 
REMARK    2  A    between atoms: C_8  and  C_5 
REMARK    3  A    between atoms: C_9  and  N_7 
ROOT
ATOM      1  N   UNL d   1       5.449  -4.546   0.000  0.00  0.00    -0.281 N 
ATOM      2  N   UNL d   1       7.089  -4.538   0.000  0.00  0.00    -0.301 N 
ATOM      3  C   UNL d   1       5.853  -3.826   0.000  0.00  0.00     0.101 A 
ATOM      4  C   UNL d   1       5.869  -5.263   0.000  0.00  0.00     0.101 A 
ATOM      5  C   UNL d   1       6.683  -5.247   0.000  0.00  0.00     0.100 A 
ATOM      6  C   UNL d   1       6.667  -3.826   0.000  0.00  0.00     0.100 A 
ENDROOT
BRANCH   1   7
ATOM      7  C   UNL d   1       4.622  -4.548   0.000  0.00  0.00     0.183 A 
ATOM      8  N   UNL d   1       4.132  -3.891   0.000  0.00  0.00    -0.183 NA
ATOM      9  C   UNL d   1       3.347  -4.151   0.000  0.00  0.00     0.287 A 
ATOM     10  C   UNL d   1       3.361  -4.979   0.000  0.00  0.00     0.090 A 
ATOM     11  O   UNL d   1       2.682  -3.677   0.000  0.00  0.00    -0.265 OA
ATOM     12  S   UNL d   1       4.143  -5.228   0.000  0.00  0.00    -0.045 SA
BRANCH  10  13
ATOM     13  C   UNL d   1       2.695  -5.466   0.000  0.00  0.00     0.011 C 
ATOM     14  C   UNL d   1       1.935  -5.141   0.000  0.00  0.00     0.001 C 
ATOM     15  C   UNL d   1       2.787  -6.286   0.000  0.00  0.00     0.001 C 
ENDBRANCH  10  13
ENDBRANCH   1   7
BRANCH   2  16
ATOM     16  C   UNL d   1       7.917  -4.532   0.000  0.00  0.00     0.064 A 
ATOM     17  C   UNL d   1       8.328  -5.247   0.000  0.00  0.00     0.018 A 
ATOM     18  C   UNL d   1       9.156  -5.238   0.000  0.00  0.00     0.002 A 
ATOM     19  C   UNL d   1       9.565  -4.524   0.000  0.00  0.00     0.000 A 
ATOM     20  C   UNL d   1       9.143  -3.810   0.000  0.00  0.00     0.002 A 
ATOM     21  C   UNL d   1      10.390  -4.516   0.000  0.00  0.00     0.000 C 
ATOM     22  C   UNL d   1       8.315  -3.815   0.000  0.00  0.00     0.018 A 
ENDBRANCH   2  16
TORSDOF 3
