REMARK  4 active torsions:
REMARK  status: ('A' for Active; 'I' for Inactive)
REMARK    1  A    between atoms: C_7  and  C_4 
REMARK    2  A    between atoms: C_8  and  C_5 
REMARK    3  A    between atoms: S_9  and  C_6 
REMARK    4  A    between atoms: C_14  and  S_9 
ROOT
ATOM      1  N   UNL d   1       0.115   1.696   0.000  0.00  0.00    -0.200 NA
ATOM      2  N   UNL d   1      -0.577   0.465   0.000  0.00  0.00    -0.202 NA
ATOM      3  N   UNL d   1      -1.306   1.696   0.000  0.00  0.00    -0.206 NA
ATOM      4  C   UNL d   1      -0.577   2.109   0.000  0.00  0.00     0.187 A 
ATOM      5  C   UNL d   1      -1.291   0.878   0.000  0.00  0.00     0.166 A 
ATOM      6  C   UNL d   1       0.115   0.878   0.000  0.00  0.00     0.197 A 
ENDROOT
BRANCH   5   7
ATOM      7  C   UNL d   1      -2.005   0.465   0.000  0.00  0.00     0.036 A 
ATOM      8  C   UNL d   1      -2.697   0.878   0.000  0.00  0.00     0.003 A 
ATOM      9  C   UNL d   1      -3.411   0.465   0.000  0.00  0.00     0.000 A 
ATOM     10  C   UNL d   1      -3.411  -0.361   0.000  0.00  0.00     0.000 A 
ATOM     11  C   UNL d   1      -2.697  -0.774   0.000  0.00  0.00     0.000 A 
ATOM     12  C   UNL d   1      -2.005  -0.361   0.000  0.00  0.00     0.003 A 
ENDBRANCH   5   7
BRANCH   6  13
ATOM     13  S   UNL d   1       0.848   0.446   0.000  0.00  0.00    -0.048 SA
BRANCH  13  14
ATOM     14  C   UNL d   1       0.848  -0.383   0.000  0.00  0.00     0.038 C 
ATOM     15  C   UNL d   1       1.562  -0.803   0.000  0.00  0.00     0.008 C 
ENDBRANCH  13  14
ENDBRANCH   6  13
BRANCH   4  16
ATOM     16  C   UNL d   1      -0.554   2.931   0.000  0.00  0.00     0.151 C 
ATOM     17 CL   UNL d   1      -1.250   3.344   0.000  0.00  0.00    -0.067 Cl
ATOM     18 CL   UNL d   1       0.149   3.322   0.000  0.00  0.00    -0.067 Cl
ENDBRANCH   4  16
TORSDOF 4
