REMARK  2 active torsions:
REMARK  status: ('A' for Active; 'I' for Inactive)
REMARK    1  A    between atoms: C_7  and  N_2 
REMARK    2  A    between atoms: C_9  and  C_5 
ROOT
ATOM      1  C   UNL d   1      -0.151  -0.876   0.000  0.00  0.00     0.208 A 
ATOM      2  N   UNL d   1      -0.151  -0.048   0.000  0.00  0.00    -0.266 N 
ATOM      3  N   UNL d   1      -0.864  -1.282   0.000  0.00  0.00    -0.199 NA
ATOM      4  N   UNL d   1      -1.582  -0.048   0.000  0.00  0.00    -0.206 NA
ATOM      5  C   UNL d   1      -1.582  -0.876   0.000  0.00  0.00     0.167 A 
ATOM      6  C   UNL d   1      -0.864   0.356   0.000  0.00  0.00     0.186 A 
ATOM      7  S   UNL d   1       0.555  -1.303   0.000  0.00  0.00    -0.038 SA
ENDROOT
BRANCH   2   8
ATOM      8  C   UNL d   1       0.555   0.356   0.000  0.00  0.00     0.068 A 
ATOM      9  C   UNL d   1       1.250  -0.048   0.000  0.00  0.00     0.018 A 
ATOM     10  C   UNL d   1       1.994   0.356   0.000  0.00  0.00     0.002 A 
ATOM     11  C   UNL d   1       1.994   1.175   0.000  0.00  0.00     0.000 A 
ATOM     12  C   UNL d   1       1.282   1.591   0.000  0.00  0.00     0.002 A 
ATOM     13  C   UNL d   1       2.719   1.591   0.000  0.00  0.00     0.000 C 
ATOM     14  C   UNL d   1       0.555   1.175   0.000  0.00  0.00     0.018 A 
ENDBRANCH   2   8
BRANCH   5  15
ATOM     15  C   UNL d   1      -2.276  -1.282   0.000  0.00  0.00     0.036 A 
ATOM     16  C   UNL d   1      -2.998  -0.876   0.000  0.00  0.00     0.003 A 
ATOM     17  C   UNL d   1      -3.710  -1.282   0.000  0.00  0.00     0.000 A 
ATOM     18  C   UNL d   1      -3.710  -2.122   0.000  0.00  0.00     0.000 A 
ATOM     19  C   UNL d   1      -2.998  -2.532   0.000  0.00  0.00     0.000 A 
ATOM     20  C   UNL d   1      -2.276  -2.122   0.000  0.00  0.00     0.003 A 
ENDBRANCH   5  15
TORSDOF 2
