REMARK  3 active torsions:
REMARK  status: ('A' for Active; 'I' for Inactive)
REMARK    1  A    between atoms: C_6  and  N_1 
REMARK    2  A    between atoms: C_11  and  C_6 
REMARK    3  A    between atoms: C_9  and  C_11 
ROOT
ATOM      1  N   UNL d   1       0.522   0.009   0.000  0.00  0.00    -0.240 N 
ATOM      2  C   UNL d   1       1.008  -0.652   0.000  0.00  0.00     0.267 A 
ATOM      3  C   UNL d   1       1.008   0.674   0.000  0.00  0.00     0.267 A 
ATOM      4  C   UNL d   1       1.790  -0.400   0.000  0.00  0.00     0.061 A 
ATOM      5  C   UNL d   1       1.790   0.425   0.000  0.00  0.00     0.061 A 
ATOM      6  O   UNL d   1       0.721  -1.454   0.000  0.00  0.00    -0.267 OA
ATOM      7  O   UNL d   1       0.721   1.457   0.000  0.00  0.00    -0.267 OA
ATOM      8  C   UNL d   1       2.486   0.821   0.000  0.00  0.00     0.005 A 
ATOM      9  C   UNL d   1       2.486  -0.816   0.000  0.00  0.00     0.005 A 
ATOM     10  C   UNL d   1       3.210  -0.400   0.000  0.00  0.00     0.000 A 
ATOM     11  C   UNL d   1       3.210   0.425   0.000  0.00  0.00     0.000 A 
ENDROOT
BRANCH   1  12
ATOM     12  C   UNL d   1      -0.303   0.009   0.000  0.00  0.00     0.086 C 
BRANCH  12  13
ATOM     13  C   UNL d   1      -0.724   0.724   0.000  0.00  0.00     0.019 C 
BRANCH  13  14
ATOM     14  C   UNL d   1      -1.548   0.704   0.000  0.00  0.00     0.002 A 
ATOM     15  C   UNL d   1      -1.944   0.000   0.000  0.00  0.00     0.000 A 
ATOM     16  C   UNL d   1      -2.781  -0.018   0.000  0.00  0.00     0.000 A 
ATOM     17  C   UNL d   1      -3.210   0.694   0.000  0.00  0.00     0.000 A 
ATOM     18  C   UNL d   1      -2.809   1.395   0.000  0.00  0.00     0.000 A 
ATOM     19  C   UNL d   1      -1.974   1.418   0.000  0.00  0.00     0.000 A 
ENDBRANCH  13  14
ENDBRANCH  12  13
ENDBRANCH   1  12
TORSDOF 3
