REMARK  5 active torsions:
REMARK  status: ('A' for Active; 'I' for Inactive)
REMARK    1  A    between atoms: N_2  and  S_1 
REMARK    2  A    between atoms: C_6  and  S_1 
REMARK       I    between atoms: C_3  and  N_4 
REMARK    3  A    between atoms: C_5  and  C_3 
REMARK    4  A    between atoms: C_11  and  O_13 
REMARK    5  A    between atoms: O_13  and  C_23 
ROOT
ATOM      1  S   UNL d   1       2.446  -0.702   0.000  0.00  0.00     0.271 S 
ATOM      2  O   UNL d   1       2.446  -1.532   0.000  0.00  0.00    -0.200 OA
ATOM      3  O   UNL d   1       1.731  -0.291   0.000  0.00  0.00    -0.200 OA
ENDROOT
BRANCH   1   4
ATOM      4  N   UNL d   1       1.856  -1.287   0.000  0.00  0.00    -0.226 N 
ATOM      5  C   UNL d   1       1.059  -1.071   0.000  0.00  0.00     0.111 A 
ATOM      6  C   UNL d   1       0.477  -1.657   0.000  0.00  0.00     0.103 A 
ATOM      7  N   UNL d   1       0.689  -2.446   0.000  0.00  0.00    -0.267 N 
ATOM      8  C   UNL d   1       0.104  -3.031   0.000  0.00  0.00     0.288 C 
ATOM      9  C   UNL d   1       1.486  -2.670   0.000  0.00  0.00     0.103 A 
ATOM     10  O   UNL d   1       0.316  -3.837   0.000  0.00  0.00    -0.264 OA
ATOM     11  C   UNL d   1       2.072  -2.084   0.000  0.00  0.00     0.111 A 
BRANCH   8  12
ATOM     12  C   UNL d   1      -0.698  -2.819   0.000  0.00  0.00     0.156 A 
ATOM     13  O   UNL d   1      -1.345  -3.342   0.000  0.00  0.00    -0.300 OA
ATOM     14  C   UNL d   1      -2.039  -2.890   0.000  0.00  0.00     0.123 A 
ATOM     15  C   UNL d   1      -1.827  -2.084   0.000  0.00  0.00     0.029 A 
ATOM     16  C   UNL d   1      -0.992  -2.047   0.000  0.00  0.00     0.032 A 
ENDBRANCH   8  12
ENDBRANCH   1   4
BRANCH   1  17
ATOM     17  C   UNL d   1       3.164  -0.291   0.000  0.00  0.00     0.104 A 
ATOM     18  C   UNL d   1       3.874  -0.702   0.000  0.00  0.00     0.015 A 
ATOM     19  C   UNL d   1       4.588  -0.291   0.000  0.00  0.00     0.025 A 
ATOM     20  C   UNL d   1       4.588   0.531   0.000  0.00  0.00     0.100 A 
ATOM     21  C   UNL d   1       3.874   0.943   0.000  0.00  0.00     0.025 A 
ATOM     22  C   UNL d   1       3.164   0.531   0.000  0.00  0.00     0.015 A 
BRANCH  20  23
ATOM     23  O   UNL d   1       5.306   0.955   0.000  0.00  0.00    -0.307 OA
BRANCH  23  24
ATOM     24  C   UNL d   1       6.021   0.544   0.000  0.00  0.00     0.100 A 
ATOM     25  C   UNL d   1       6.731   0.955   0.000  0.00  0.00     0.023 A 
ATOM     26  C   UNL d   1       6.726   1.777   0.000  0.00  0.00     0.002 C 
ATOM     27  C   UNL d   1       7.453   0.548   0.000  0.00  0.00     0.002 A 
ATOM     28  C   UNL d   1       7.461  -0.278   0.000  0.00  0.00     0.000 A 
ATOM     29  C   UNL d   1       6.743  -0.689   0.000  0.00  0.00     0.002 A 
ATOM     30  C   UNL d   1       6.029  -0.278   0.000  0.00  0.00     0.025 A 
ENDBRANCH  23  24
ENDBRANCH  20  23
ENDBRANCH   1  17
TORSDOF 5
