REMARK  7 active torsions:
REMARK  status: ('A' for Active; 'I' for Inactive)
REMARK    1  A    between atoms: C_2  and  S_1 
REMARK    2  A    between atoms: N_6  and  S_1 
REMARK    3  A    between atoms: O_14  and  C_5 
REMARK    4  A    between atoms: C_15  and  N_6 
REMARK    5  A    between atoms: O_16  and  C_7 
REMARK    6  A    between atoms: C_11  and  C_19 
REMARK    7  A    between atoms: C_19  and  C_15 
ROOT
ATOM      1  C   UNL d   1       3.152   0.721   0.000  0.00  0.00     0.112 C 
ENDROOT
BRANCH   1   2
ATOM      2  N   UNL d   1       2.744   0.008   0.000  0.00  0.00    -0.157 NA
BRANCH   2   3
ATOM      3  S   UNL d   1       1.918  -0.004   0.000  0.00  0.00     0.285 S 
ATOM      4  O   UNL d   1       1.918   0.821   0.000  0.00  0.00    -0.198 OA
ATOM      5  O   UNL d   1       1.101  -0.004   0.000  0.00  0.00    -0.198 OA
BRANCH   3   6
ATOM      6  C   UNL d   1       1.927  -0.830   0.000  0.00  0.00     0.105 A 
ATOM      7  C   UNL d   1       2.644  -1.243   0.000  0.00  0.00     0.013 A 
ATOM      8  C   UNL d   1       2.644  -2.068   0.000  0.00  0.00     0.001 A 
ATOM      9  C   UNL d   1       3.357  -2.481   0.000  0.00  0.00     0.000 C 
ATOM     10  C   UNL d   1       1.927  -2.481   0.000  0.00  0.00     0.000 A 
ATOM     11  C   UNL d   1       1.214  -2.068   0.000  0.00  0.00     0.001 A 
ATOM     12  C   UNL d   1       1.214  -1.243   0.000  0.00  0.00     0.013 A 
ENDBRANCH   3   6
ENDBRANCH   2   3
ENDBRANCH   1   2
BRANCH   1  13
ATOM     13  C   UNL d   1       2.731   1.422   0.000  0.00  0.00     0.022 C 
BRANCH  13  14
ATOM     14  C   UNL d   1       3.132   2.135   0.000  0.00  0.00     0.004 A 
ATOM     15  C   UNL d   1       3.957   2.152   0.000  0.00  0.00     0.026 A 
ATOM     16  C   UNL d   1       4.358   2.873   0.000  0.00  0.00     0.116 A 
ATOM     17  C   UNL d   1       3.920   3.586   0.000  0.00  0.00     0.116 A 
ATOM     18  C   UNL d   1       3.107   3.565   0.000  0.00  0.00     0.026 A 
ATOM     19  C   UNL d   1       2.706   2.848   0.000  0.00  0.00     0.002 A 
BRANCH  16  20
ATOM     20  O   UNL d   1       5.183   2.886   0.000  0.00  0.00    -0.326 OA
ATOM     21  C   UNL d   1       5.734   2.210   0.000  0.00  0.00     0.181 C 
ENDBRANCH  16  20
BRANCH  17  22
ATOM     22  O   UNL d   1       4.295   4.295   0.000  0.00  0.00    -0.326 OA
ATOM     23  C   UNL d   1       5.108   4.341   0.000  0.00  0.00     0.181 C 
ENDBRANCH  17  22
ENDBRANCH  13  14
ENDBRANCH   1  13
TORSDOF 7
