REMARK  8 active torsions:
REMARK  status: ('A' for Active; 'I' for Inactive)
REMARK    1  A    between atoms: C_8  and  C_1 
REMARK    2  A    between atoms: C_7  and  C_2 
REMARK    3  A    between atoms: C_9  and  C_3 
REMARK    4  A    between atoms: O_14  and  C_7 
REMARK    5  A    between atoms: O_15  and  C_8 
REMARK    6  A    between atoms: C_22  and  O_14 
REMARK    7  A    between atoms: C_23  and  O_15 
REMARK    8  A    between atoms: O_21  and  C_18 
ROOT
ATOM      1  C   UNL d   1       1.565  -1.615   0.000  0.00  0.00     0.081 A 
ATOM      2  C   UNL d   1       2.987  -1.615   0.000  0.00  0.00     0.081 A 
ATOM      3  C   UNL d   1       2.278  -1.203   0.000  0.00  0.00     0.013 A 
ATOM      4  C   UNL d   1       1.565  -2.440   0.000  0.00  0.00     0.086 A 
ATOM      5  C   UNL d   1       2.987  -2.440   0.000  0.00  0.00     0.086 A 
ATOM      6  N   UNL d   1       2.278  -2.851   0.000  0.00  0.00    -0.245 NA
ATOM      7  C   UNL d   1       3.715  -2.863   0.000  0.00  0.00     0.021 C 
ATOM      8  C   UNL d   1       0.841  -2.863   0.000  0.00  0.00     0.021 C 
ENDROOT
BRANCH   3   9
ATOM      9  C   UNL d   1       2.278  -0.374   0.000  0.00  0.00     0.001 A 
ATOM     10  C   UNL d   1       2.987   0.039   0.000  0.00  0.00     0.002 A 
ATOM     11  C   UNL d   1       2.987   0.872   0.000  0.00  0.00     0.024 A 
ATOM     12  C   UNL d   1       2.278   1.284   0.000  0.00  0.00     0.094 A 
ATOM     13  C   UNL d   1       1.565   0.872   0.000  0.00  0.00     0.024 A 
ATOM     14  C   UNL d   1       1.565   0.039   0.000  0.00  0.00     0.002 A 
BRANCH  12  15
ATOM     15  O   UNL d   1       2.271   2.106   0.000  0.00  0.00    -0.328 OA
ATOM     16  C   UNL d   1       2.983   2.519   0.000  0.00  0.00     0.181 C 
ENDBRANCH  12  15
ENDBRANCH   3   9
BRANCH   2  17
ATOM     17  C   UNL d   1       3.715  -1.188   0.000  0.00  0.00     0.302 C 
ATOM     18  O   UNL d   1       3.708  -0.366   0.000  0.00  0.00    -0.259 OA
BRANCH  17  19
ATOM     19  O   UNL d   1       4.435  -1.603   0.000  0.00  0.00    -0.271 OA
BRANCH  19  20
ATOM     20  C   UNL d   1       4.439  -2.427   0.000  0.00  0.00     0.126 C 
ATOM     21  C   UNL d   1       5.151  -2.838   0.000  0.00  0.00     0.029 C 
ENDBRANCH  19  20
ENDBRANCH  17  19
ENDBRANCH   2  17
BRANCH   1  22
ATOM     22  C   UNL d   1       0.841  -1.188   0.000  0.00  0.00     0.302 C 
ATOM     23  O   UNL d   1       0.853  -0.351   0.000  0.00  0.00    -0.259 OA
BRANCH  22  24
ATOM     24  O   UNL d   1       0.129  -1.603   0.000  0.00  0.00    -0.271 OA
BRANCH  24  25
ATOM     25  C   UNL d   1      -0.584  -1.188   0.000  0.00  0.00     0.126 C 
ATOM     26  C   UNL d   1      -1.300  -1.603   0.000  0.00  0.00     0.029 C 
ENDBRANCH  24  25
ENDBRANCH  22  24
ENDBRANCH   1  22
TORSDOF 8
