REMARK  5 active torsions:
REMARK  status: ('A' for Active; 'I' for Inactive)
REMARK    1  A    between atoms: N_2  and  S_1 
REMARK    2  A    between atoms: C_7  and  S_1 
REMARK    3  A    between atoms: C_3  and  N_2 
REMARK       I    between atoms: C_11  and  N_12 
REMARK    4  A    between atoms: C_19  and  C_11 
REMARK    5  A    between atoms: N_12  and  C_16 
ROOT
ATOM      1  C   UNL d   1      -0.278   0.313   0.000  0.00  0.00     0.105 A 
ATOM      2  C   UNL d   1       0.130   1.036   0.000  0.00  0.00     0.015 A 
ATOM      3  C   UNL d   1       0.107  -0.384   0.000  0.00  0.00     0.015 A 
ATOM      4  C   UNL d   1       1.352   0.348   0.000  0.00  0.00     0.085 A 
ATOM      5  C   UNL d   1       0.942   1.044   0.000  0.00  0.00     0.020 A 
ATOM      6  C   UNL d   1       0.942  -0.375   0.000  0.00  0.00     0.020 A 
ENDROOT
BRANCH   1   7
ATOM      7  S   UNL d   1      -1.120   0.316   0.000  0.00  0.00     0.287 S 
ATOM      8  O   UNL d   1      -1.128   1.167   0.000  0.00  0.00    -0.198 OA
ATOM      9  O   UNL d   1      -1.120  -0.509   0.000  0.00  0.00    -0.198 OA
BRANCH   7  10
ATOM     10  N   UNL d   1      -1.953   0.313   0.000  0.00  0.00    -0.137 NA
BRANCH  10  11
ATOM     11  C   UNL d   1      -2.371  -0.410   0.000  0.00  0.00     0.203 A 
ATOM     12  N   UNL d   1      -3.187  -0.395   0.000  0.00  0.00    -0.106 NA
ATOM     13  O   UNL d   1      -3.432  -1.191   0.000  0.00  0.00    -0.210 OA
ATOM     14  C   UNL d   1      -2.774  -1.668   0.000  0.00  0.00     0.128 A 
ATOM     15  C   UNL d   1      -2.095  -1.178   0.000  0.00  0.00     0.069 A 
ATOM     16  C   UNL d   1      -2.774  -2.491   0.000  0.00  0.00     0.029 C 
ENDBRANCH  10  11
ENDBRANCH   7  10
ENDBRANCH   1   7
BRANCH   4  17
ATOM     17  N   UNL d   1       2.186   0.348   0.000  0.00  0.00    -0.208 NA
ATOM     18  C   UNL d   1       2.597   1.055   0.000  0.00  0.00     0.279 C 
ATOM     19  O   UNL d   1       3.425   1.055   0.000  0.00  0.00    -0.265 OA
BRANCH  18  20
ATOM     20  C   UNL d   1       2.186   1.760   0.000  0.00  0.00     0.062 C 
ATOM     21  C   UNL d   1       2.597   2.495   0.000  0.00  0.00     0.005 C 
ENDBRANCH  18  20
ENDBRANCH   4  17
TORSDOF 5
