REMARK  9 active torsions:
REMARK  status: ('A' for Active; 'I' for Inactive)
REMARK    1  A    between atoms: N_2  and  S_1 
REMARK    2  A    between atoms: C_9  and  S_1 
REMARK    3  A    between atoms: C_4  and  N_2 
REMARK    4  A    between atoms: O_19  and  C_6 
REMARK    5  A    between atoms: O_22  and  C_7 
REMARK       I    between atoms: C_12  and  N_13 
REMARK    6  A    between atoms: C_20  and  C_12 
REMARK    7  A    between atoms: N_13  and  C_17 
REMARK    8  A    between atoms: O_18  and  C_20 
REMARK    9  A    between atoms: C_21  and  O_18 
ROOT
ATOM      1  C   UNL d   1       1.431   0.742   0.000  0.00  0.00     0.105 A 
ATOM      2  C   UNL d   1       1.036   0.017   0.000  0.00  0.00     0.015 A 
ATOM      3  C   UNL d   1       1.017   1.434   0.000  0.00  0.00     0.015 A 
ATOM      4  C   UNL d   1      -0.196   0.713   0.000  0.00  0.00     0.085 A 
ATOM      5  C   UNL d   1       0.213  -0.005   0.000  0.00  0.00     0.020 A 
ATOM      6  C   UNL d   1       0.190   1.430   0.000  0.00  0.00     0.020 A 
ENDROOT
BRANCH   1   7
ATOM      7  S   UNL d   1       2.268   0.760   0.000  0.00  0.00     0.287 S 
ATOM      8  O   UNL d   1       2.278  -0.075   0.000  0.00  0.00    -0.198 OA
ATOM      9  O   UNL d   1       2.240   1.585   0.000  0.00  0.00    -0.198 OA
BRANCH   7  10
ATOM     10  N   UNL d   1       3.094   0.770   0.000  0.00  0.00    -0.139 NA
BRANCH  10  11
ATOM     11  C   UNL d   1       3.529   0.074   0.000  0.00  0.00     0.182 A 
ATOM     12  N   UNL d   1       4.333   0.097   0.000  0.00  0.00    -0.185 NA
ATOM     13  C   UNL d   1       4.775  -0.607   0.000  0.00  0.00     0.274 A 
ATOM     14  N   UNL d   1       4.413  -1.318   0.000  0.00  0.00    -0.181 NA
ATOM     15  C   UNL d   1       3.595  -1.361   0.000  0.00  0.00     0.185 A 
ATOM     16  C   UNL d   1       3.138  -0.635   0.000  0.00  0.00     0.084 A 
BRANCH  13  17
ATOM     17  O   UNL d   1       5.617  -0.571   0.000  0.00  0.00    -0.297 OA
ATOM     18  C   UNL d   1       6.019   0.140   0.000  0.00  0.00     0.185 C 
ENDBRANCH  13  17
BRANCH  15  19
ATOM     19  O   UNL d   1       3.242  -2.121   0.000  0.00  0.00    -0.312 OA
ATOM     20  C   UNL d   1       3.731  -2.784   0.000  0.00  0.00     0.183 C 
ENDBRANCH  15  19
ENDBRANCH  10  11
ENDBRANCH   7  10
ENDBRANCH   1   7
BRANCH   4  21
ATOM     21  N   UNL d   1      -1.028   0.713   0.000  0.00  0.00    -0.206 NA
ATOM     22  C   UNL d   1      -1.415   1.400   0.000  0.00  0.00     0.304 C 
ATOM     23  O   UNL d   1      -1.014   2.144   0.000  0.00  0.00    -0.263 OA
BRANCH  22  24
ATOM     24  C   UNL d   1      -2.259   1.419   0.000  0.00  0.00     0.185 C 
BRANCH  24  25
ATOM     25  O   UNL d   1      -2.692   2.116   0.000  0.00  0.00    -0.300 OA
BRANCH  25  26
ATOM     26  C   UNL d   1      -3.496   2.075   0.000  0.00  0.00     0.100 A 
ATOM     27  C   UNL d   1      -3.936   2.786   0.000  0.00  0.00     0.025 A 
ATOM     28  C   UNL d   1      -4.780   2.775   0.000  0.00  0.00     0.002 A 
ATOM     29  C   UNL d   1      -5.159   2.099   0.000  0.00  0.00     0.000 A 
ATOM     30  C   UNL d   1      -4.714   1.357   0.000  0.00  0.00     0.002 A 
ATOM     31  C   UNL d   1      -6.019   2.099   0.000  0.00  0.00     0.000 C 
ATOM     32  C   UNL d   1      -3.896   1.390   0.000  0.00  0.00     0.025 A 
ENDBRANCH  25  26
ENDBRANCH  24  25
ENDBRANCH  22  24
ENDBRANCH   4  21
TORSDOF 9
