REMARK  4 active torsions:
REMARK  status: ('A' for Active; 'I' for Inactive)
REMARK    1  A    between atoms: N_2  and  S_1 
REMARK    2  A    between atoms: C_6  and  S_1 
REMARK       I    between atoms: C_3  and  N_5 
REMARK    3  A    between atoms: C_7  and  C_3 
REMARK    4  A    between atoms: C_4  and  C_8 
ROOT
ATOM      1  N   UNL d   1       3.933   0.357   0.000  0.00  0.00    -0.226 N 
ATOM      2  C   UNL d   1       6.397   0.370   0.000  0.00  0.00     0.288 C 
ATOM      3  N   UNL d   1       5.574   0.370   0.000  0.00  0.00    -0.267 N 
ATOM      4  C   UNL d   1       4.352  -0.353   0.000  0.00  0.00     0.111 A 
ATOM      5  C   UNL d   1       4.344   1.081   0.000  0.00  0.00     0.111 A 
ATOM      6  C   UNL d   1       5.167   1.081   0.000  0.00  0.00     0.103 A 
ATOM      7  C   UNL d   1       5.167  -0.341   0.000  0.00  0.00     0.103 A 
ATOM      8  O   UNL d   1       6.809   1.085   0.000  0.00  0.00    -0.264 OA
ENDROOT
BRANCH   1   9
ATOM      9  S   UNL d   1       3.122   0.357   0.000  0.00  0.00     0.271 S 
ATOM     10  O   UNL d   1       2.299   0.357   0.000  0.00  0.00    -0.200 OA
ATOM     11  O   UNL d   1       3.118   1.172   0.000  0.00  0.00    -0.200 OA
BRANCH   9  12
ATOM     12  C   UNL d   1       3.122  -0.466   0.000  0.00  0.00     0.104 A 
ATOM     13  C   UNL d   1       2.411  -0.885   0.000  0.00  0.00     0.017 A 
ATOM     14  C   UNL d   1       2.411  -1.708   0.000  0.00  0.00     0.072 A 
ATOM     15  C   UNL d   1       3.122  -2.120   0.000  0.00  0.00     0.004 A 
ATOM     16  C   UNL d   1       3.841  -1.708   0.000  0.00  0.00     0.001 A 
ATOM     17  C   UNL d   1       3.841  -0.877   0.000  0.00  0.00     0.013 A 
BRANCH  14  18
ATOM     18  C   UNL d   1       1.700  -2.120   0.000  0.00  0.00     0.419 C 
ATOM     19  F   UNL d   1       0.902  -1.812   0.000  0.00  0.00    -0.166 F 
ATOM     20  F   UNL d   1       1.563  -2.968   0.000  0.00  0.00    -0.166 F 
ATOM     21  F   UNL d   1       1.048  -2.494   0.000  0.00  0.00    -0.166 F 
ENDBRANCH  14  18
ENDBRANCH   9  12
ENDBRANCH   1   9
BRANCH   2  22
ATOM     22  C   UNL d   1       6.813  -0.341   0.000  0.00  0.00     0.156 A 
ATOM     23  O   UNL d   1       7.636  -0.428   0.000  0.00  0.00    -0.300 OA
ATOM     24  C   UNL d   1       7.811  -1.226   0.000  0.00  0.00     0.123 A 
ATOM     25  C   UNL d   1       7.096  -1.646   0.000  0.00  0.00     0.029 A 
ATOM     26  C   UNL d   1       6.476  -1.097   0.000  0.00  0.00     0.032 A 
ENDBRANCH   2  22
TORSDOF 4
