REMARK  5 active torsions:
REMARK  status: ('A' for Active; 'I' for Inactive)
REMARK    1  A    between atoms: N_10  and  C_2 
REMARK    2  A    between atoms: C_14  and  C_3 
REMARK    3  A    between atoms: C_5  and  S_13 
REMARK       I    between atoms: C_12  and  N_10 
REMARK    4  A    between atoms: C_16  and  C_12 
REMARK    5  A    between atoms: S_13  and  C_16 
ROOT
ATOM      1  N   UNL d   1       5.733  -3.445   0.000  0.00  0.00    -0.051 NA
ATOM      2  C   UNL d   1       5.096  -2.925   0.000  0.00  0.00     0.760 A 
ATOM      3  C   UNL d   1       5.433  -4.206   0.000  0.00  0.00     0.147 A 
ATOM      4  N   UNL d   1       4.410  -3.361   0.000  0.00  0.00    -0.019 NA
ATOM      5  S   UNL d   1       4.618  -4.156   0.000  0.00  0.00     0.052 SA
ENDROOT
BRANCH   2   6
ATOM      6  N   UNL d   1       5.142  -2.088   0.000  0.00  0.00    -0.018 NA
ATOM      7  C   UNL d   1       5.870  -1.714   0.000  0.00  0.00     0.302 C 
ATOM      8  O   UNL d   1       6.557  -2.163   0.000  0.00  0.00    -0.264 OA
BRANCH   7   9
ATOM      9  C   UNL d   1       5.916  -0.890   0.000  0.00  0.00     0.100 C 
BRANCH   9  10
ATOM     10  S   UNL d   1       5.221  -0.441   0.000  0.00  0.00    -0.054 SA
BRANCH  10  11
ATOM     11  C   UNL d   1       4.485  -0.815   0.000  0.00  0.00     0.164 A 
ATOM     12  S   UNL d   1       3.757  -0.441   0.000  0.00  0.00    -0.039 SA
ATOM     13  C   UNL d   1       3.170  -1.028   0.000  0.00  0.00     0.134 A 
ATOM     14  C   UNL d   1       2.351  -0.899   0.000  0.00  0.00     0.030 C 
ATOM     15  N   UNL d   1       3.545  -1.764   0.000  0.00  0.00    -0.140 NA
ATOM     16  N   UNL d   1       4.360  -1.635   0.000  0.00  0.00    -0.134 NA
ENDBRANCH  10  11
ENDBRANCH   9  10
ENDBRANCH   7   9
ENDBRANCH   2   6
BRANCH   3  17
ATOM     17  C   UNL d   1       5.845  -4.922   0.000  0.00  0.00     0.026 A 
ATOM     18  C   UNL d   1       6.669  -4.922   0.000  0.00  0.00     0.002 A 
ATOM     19  C   UNL d   1       7.081  -5.641   0.000  0.00  0.00     0.000 A 
ATOM     20  C   UNL d   1       6.677  -6.353   0.000  0.00  0.00     0.000 A 
ATOM     21  C   UNL d   1       5.854  -6.353   0.000  0.00  0.00     0.000 A 
ATOM     22  C   UNL d   1       5.433  -5.633   0.000  0.00  0.00     0.002 A 
ENDBRANCH   3  17
TORSDOF 5
