REMARK  1 active torsions:
REMARK  status: ('A' for Active; 'I' for Inactive)
REMARK       I    between atoms: C_2  and  N_1 
REMARK    1  A    between atoms: C_4  and  C_2 
ROOT
ATOM      1  N   UNL d   1       2.705  -1.505   0.000  0.00  0.00    -0.273 N 
ATOM      2  C   UNL d   1       2.022  -1.005   0.000  0.00  0.00     0.271 C 
ATOM      3  C   UNL d   1       3.497  -1.278   0.000  0.00  0.00     0.067 A 
ATOM      4  C   UNL d   1       2.703  -2.345   0.000  0.00  0.00     0.083 A 
ATOM      5  O   UNL d   1       2.139  -0.182   0.000  0.00  0.00    -0.266 OA
ATOM      6  C   UNL d   1       3.973  -1.950   0.000  0.00  0.00     0.018 A 
ATOM      7  C   UNL d   1       3.470  -2.610   0.000  0.00  0.00     0.021 A 
ATOM      8  C   UNL d   1       3.828  -0.523   0.000  0.00  0.00     0.018 A 
ATOM      9  C   UNL d   1       4.785  -1.875   0.000  0.00  0.00     0.002 A 
ATOM     10  C   UNL d   1       4.644  -0.446   0.000  0.00  0.00     0.002 A 
ATOM     11  C   UNL d   1       5.145  -1.135   0.000  0.00  0.00     0.000 A 
ENDROOT
BRANCH   2  12
ATOM     12  C   UNL d   1       1.256  -1.336   0.000  0.00  0.00     0.086 A 
ATOM     13  S   UNL d   1       0.986  -2.110   0.000  0.00  0.00    -0.082 SA
ATOM     14  C   UNL d   1       0.158  -2.082   0.000  0.00  0.00     0.036 A 
ATOM     15  C   UNL d   1      -0.095  -1.306   0.000  0.00  0.00     0.008 A 
ATOM     16  C   UNL d   1       0.584  -0.833   0.000  0.00  0.00     0.012 A 
ENDBRANCH   2  12
TORSDOF 1
