REMARK  7 active torsions:
REMARK  status: ('A' for Active; 'I' for Inactive)
REMARK    1  A    between atoms: N_10  and  C_1 
REMARK    2  A    between atoms: C_11  and  C_2 
REMARK    3  A    between atoms: C_7  and  S_14 
REMARK       I    between atoms: C_13  and  N_10 
REMARK    4  A    between atoms: O_18  and  C_11 
REMARK    5  A    between atoms: C_17  and  C_13 
REMARK    6  A    between atoms: S_14  and  C_17 
REMARK    7  A    between atoms: C_22  and  O_18 
ROOT
ATOM      1  C   UNL d   1       2.359  -1.190   0.000  0.00  0.00     0.119 A 
ATOM      2  C   UNL d   1       2.284  -0.367   0.000  0.00  0.00     0.088 A 
ATOM      3  S   UNL d   1       1.620  -1.520   0.000  0.00  0.00    -0.068 SA
ATOM      4  C   UNL d   1       1.470  -0.192   0.000  0.00  0.00     0.013 A 
ATOM      5  C   UNL d   1       1.056  -0.906   0.000  0.00  0.00     0.031 A 
ATOM      6  C   UNL d   1       1.169   0.585   0.000  0.00  0.00     0.001 A 
ATOM      7  C   UNL d   1       0.238  -1.027   0.000  0.00  0.00     0.006 A 
ATOM      8  C   UNL d   1       0.380   0.823   0.000  0.00  0.00     0.000 A 
ATOM      9  C   UNL d   1      -0.363  -0.455   0.000  0.00  0.00     0.001 A 
ATOM     10  C   UNL d   1      -0.296   0.359   0.000  0.00  0.00     0.000 A 
ENDROOT
BRANCH   1  11
ATOM     11  N   UNL d   1       3.073  -1.616   0.000  0.00  0.00    -0.201 NA
ATOM     12  C   UNL d   1       3.061  -2.447   0.000  0.00  0.00     0.286 C 
ATOM     13  O   UNL d   1       3.775  -2.860   0.000  0.00  0.00    -0.265 OA
BRANCH  12  14
ATOM     14  C   UNL d   1       2.347  -2.856   0.000  0.00  0.00     0.100 C 
BRANCH  14  15
ATOM     15  S   UNL d   1       2.342  -3.683   0.000  0.00  0.00    -0.054 SA
BRANCH  15  16
ATOM     16  C   UNL d   1       1.628  -4.096   0.000  0.00  0.00     0.164 A 
ATOM     17  S   UNL d   1       0.843  -3.837   0.000  0.00  0.00    -0.039 SA
ATOM     18  C   UNL d   1       0.355  -4.513   0.000  0.00  0.00     0.134 A 
ATOM     19  C   UNL d   1      -0.472  -4.513   0.000  0.00  0.00     0.030 C 
ATOM     20  N   UNL d   1       0.843  -5.177   0.000  0.00  0.00    -0.140 NA
ATOM     21  N   UNL d   1       1.628  -4.927   0.000  0.00  0.00    -0.134 NA
ENDBRANCH  15  16
ENDBRANCH  14  15
ENDBRANCH  12  14
ENDBRANCH   1  11
BRANCH   2  22
ATOM     22  C   UNL d   1       2.898   0.184   0.000  0.00  0.00     0.302 C 
ATOM     23  O   UNL d   1       2.731   0.998   0.000  0.00  0.00    -0.259 OA
BRANCH  22  24
ATOM     24  O   UNL d   1       3.687  -0.075   0.000  0.00  0.00    -0.271 OA
BRANCH  24  25
ATOM     25  C   UNL d   1       3.858  -0.881   0.000  0.00  0.00     0.126 C 
ATOM     26  C   UNL d   1       4.639  -1.144   0.000  0.00  0.00     0.029 C 
ENDBRANCH  24  25
ENDBRANCH  22  24
ENDBRANCH   2  22
TORSDOF 7
