REMARK  5 active torsions:
REMARK  status: ('A' for Active; 'I' for Inactive)
REMARK    1  A    between atoms: N_5  and  S_1 
REMARK    2  A    between atoms: C_7  and  S_1 
REMARK       I    between atoms: C_4  and  N_2 
REMARK    3  A    between atoms: C_3  and  N_11 
REMARK    4  A    between atoms: C_6  and  C_4 
REMARK    5  A    between atoms: N_11  and  C_19 
ROOT
ATOM      1  C   UNL d   1       1.112   0.153   0.000  0.00  0.00     0.104 A 
ATOM      2  C   UNL d   1       0.695  -0.574   0.000  0.00  0.00     0.014 A 
ATOM      3  C   UNL d   1       0.678   0.880   0.000  0.00  0.00     0.014 A 
ATOM      4  C   UNL d   1      -0.559   0.153   0.000  0.00  0.00     0.084 A 
ATOM      5  C   UNL d   1      -0.146  -0.574   0.000  0.00  0.00     0.020 A 
ATOM      6  C   UNL d   1      -0.146   0.880   0.000  0.00  0.00     0.020 A 
ENDROOT
BRANCH   4   7
ATOM      7  N   UNL d   1      -1.394   0.153   0.000  0.00  0.00    -0.217 NA
BRANCH   7   8
ATOM      8  C   UNL d   1      -1.777   0.829   0.000  0.00  0.00     0.224 C 
ATOM      9  N   UNL d   1      -3.108   0.808   0.000  0.00  0.00    -0.178 NA
ATOM     10  C   UNL d   1      -3.500   0.132   0.000  0.00  0.00     0.287 C 
ATOM     11  O   UNL d   1      -4.290   0.121   0.000  0.00  0.00    -0.265 OA
ATOM     12  S   UNL d   1      -1.391   1.522   0.000  0.00  0.00    -0.037 SA
BRANCH  10  13
ATOM     13  C   UNL d   1      -3.094  -0.553   0.000  0.00  0.00     0.087 A 
ATOM     14  S   UNL d   1      -2.317  -0.636   0.000  0.00  0.00    -0.082 SA
ATOM     15  C   UNL d   1      -2.159  -1.414   0.000  0.00  0.00     0.036 A 
ATOM     16  C   UNL d   1      -2.823  -1.791   0.000  0.00  0.00     0.008 A 
ATOM     17  C   UNL d   1      -3.410  -1.272   0.000  0.00  0.00     0.012 A 
ENDBRANCH  10  13
ENDBRANCH   7   8
ENDBRANCH   4   7
BRANCH   1  18
ATOM     18  S   UNL d   1       1.954   0.153   0.000  0.00  0.00     0.271 S 
ATOM     19  O   UNL d   1       1.954   0.974   0.000  0.00  0.00    -0.200 OA
ATOM     20  O   UNL d   1       1.954  -0.689   0.000  0.00  0.00    -0.200 OA
BRANCH  18  21
ATOM     21  N   UNL d   1       2.775   0.153   0.000  0.00  0.00    -0.229 N 
ATOM     22  C   UNL d   1       3.202  -0.595   0.000  0.00  0.00     0.092 A 
ATOM     23  C   UNL d   1       4.027  -0.595   0.000  0.00  0.00     0.020 A 
ATOM     24  C   UNL d   1       4.443   0.153   0.000  0.00  0.00     0.003 A 
ATOM     25  C   UNL d   1       4.027   0.860   0.000  0.00  0.00     0.020 A 
ATOM     26  C   UNL d   1       3.191   0.860   0.000  0.00  0.00     0.092 A 
ENDBRANCH  18  21
ENDBRANCH   1  18
TORSDOF 5
