REMARK  5 active torsions:
REMARK  status: ('A' for Active; 'I' for Inactive)
REMARK    1  A    between atoms: N_5  and  C_3 
REMARK    2  A    between atoms: O_13  and  C_4 
REMARK       I    between atoms: C_6  and  N_5 
REMARK    3  A    between atoms: C_9  and  C_6 
REMARK    4  A    between atoms: O_14  and  C_7 
REMARK    5  A    between atoms: O_18  and  C_15 
ROOT
ATOM      1  N   UNL d   1       0.805  -0.785   0.000  0.00  0.00    -0.189 NA
ATOM      2  C   UNL d   1       0.083  -0.368   0.000  0.00  0.00     0.281 C 
ATOM      3  O   UNL d   1       0.083   0.474   0.000  0.00  0.00    -0.265 OA
ENDROOT
BRANCH   1   4
ATOM      4  C   UNL d   1       1.518  -0.368   0.000  0.00  0.00     0.173 A 
ATOM      5  N   UNL d   1       1.518   0.464   0.000  0.00  0.00    -0.186 NA
ATOM      6  C   UNL d   1       2.231   0.872   0.000  0.00  0.00     0.273 A 
ATOM      7  N   UNL d   1       2.945   0.438   0.000  0.00  0.00    -0.181 NA
ATOM      8  C   UNL d   1       2.945  -0.356   0.000  0.00  0.00     0.185 A 
ATOM      9  C   UNL d   1       2.231  -0.785   0.000  0.00  0.00     0.083 A 
BRANCH   6  10
ATOM     10  O   UNL d   1       2.231   1.676   0.000  0.00  0.00    -0.297 OA
ATOM     11  C   UNL d   1       2.928   2.092   0.000  0.00  0.00     0.185 C 
ENDBRANCH   6  10
BRANCH   8  12
ATOM     12  O   UNL d   1       3.674  -0.761   0.000  0.00  0.00    -0.312 OA
ATOM     13  C   UNL d   1       3.663  -1.596   0.000  0.00  0.00     0.183 C 
ENDBRANCH   8  12
ENDBRANCH   1   4
BRANCH   2  14
ATOM     14  C   UNL d   1      -0.622  -0.796   0.000  0.00  0.00     0.058 A 
ATOM     15  C   UNL d   1      -1.354  -0.411   0.000  0.00  0.00     0.007 A 
ATOM     16  C   UNL d   1      -2.033  -0.822   0.000  0.00  0.00     0.024 A 
ATOM     17  C   UNL d   1      -2.033  -1.660   0.000  0.00  0.00     0.094 A 
ATOM     18  C   UNL d   1      -1.308  -2.053   0.000  0.00  0.00     0.024 A 
ATOM     19  C   UNL d   1      -0.616  -1.607   0.000  0.00  0.00     0.007 A 
BRANCH  17  20
ATOM     20  O   UNL d   1      -2.725  -2.090   0.000  0.00  0.00    -0.328 OA
ATOM     21  C   UNL d   1      -3.439  -1.712   0.000  0.00  0.00     0.181 C 
ENDBRANCH  17  20
ENDBRANCH   2  14
TORSDOF 5
