REMARK  3 active torsions:
REMARK  status: ('A' for Active; 'I' for Inactive)
REMARK    1  A    between atoms: C_8  and  C_1 
REMARK    2  A    between atoms: C_9  and  C_4 
REMARK    3  A    between atoms: O_20  and  C_8 
ROOT
ATOM      1  C   UNL d   1       1.275  -2.245   0.000  0.00  0.00     0.107 A 
ATOM      2  C   UNL d   1       0.441  -2.245   0.000  0.00  0.00     0.208 A 
ATOM      3  C   UNL d   1       1.275  -0.803   0.000  0.00  0.00     0.062 A 
ATOM      4  C   UNL d   1       1.684  -1.507   0.000  0.00  0.00     0.020 A 
ATOM      5  C   UNL d   1       0.441  -0.803   0.000  0.00  0.00     0.101 A 
ATOM      6  O   UNL d   1       0.018  -1.507   0.000  0.00  0.00    -0.288 OA
ATOM      7  C   UNL d   1       1.684  -0.095   0.000  0.00  0.00     0.194 A 
ATOM      8  C   UNL d   1       0.018  -0.095   0.000  0.00  0.00     0.002 A 
ATOM      9  C   UNL d   1       0.441   0.616   0.000  0.00  0.00     0.042 A 
ATOM     10  C   UNL d   1       1.275   0.616   0.000  0.00  0.00     0.019 A 
ATOM     11  O   UNL d   1       2.522  -0.095   0.000  0.00  0.00    -0.287 OA
ATOM     12  N   UNL d   1       0.018  -2.978   0.000  0.00  0.00    -0.121 N 
ATOM     13  C   UNL d   1       0.361   1.424   0.000  0.00  0.00     0.009 C 
ATOM     14  C   UNL d   1      -0.367   0.792   0.000  0.00  0.00     0.009 C 
ENDROOT
BRANCH   4  15
ATOM     15  C   UNL d   1       2.497  -1.497   0.000  0.00  0.00     0.030 A 
ATOM     16  S   UNL d   1       3.169  -2.167   0.000  0.00  0.00    -0.086 SA
ATOM     17  C   UNL d   1       3.910  -1.490   0.000  0.00  0.00     0.035 A 
ATOM     18  C   UNL d   1       3.553  -0.874   0.000  0.00  0.00     0.007 A 
ATOM     19  C   UNL d   1       2.840  -0.881   0.000  0.00  0.00     0.007 A 
ENDBRANCH   4  15
BRANCH   1  20
ATOM     20  C   UNL d   1       1.684  -2.978   0.000  0.00  0.00     0.299 C 
ATOM     21  O   UNL d   1       2.522  -3.005   0.000  0.00  0.00    -0.259 OA
BRANCH  20  22
ATOM     22  O   UNL d   1       1.275  -3.692   0.000  0.00  0.00    -0.296 OA
ATOM     23  C   UNL d   1       1.684  -4.432   0.000  0.00  0.00     0.185 C 
ENDBRANCH  20  22
ENDBRANCH   1  20
TORSDOF 3
