REMARK  2 active torsions:
REMARK  status: ('A' for Active; 'I' for Inactive)
REMARK       I    between atoms: C_3  and  N_1 
REMARK    1  A    between atoms: C_6  and  C_3 
REMARK    2  A    between atoms: O_16  and  C_11 
ROOT
ATOM      1  N   UNL d   1      -0.646  -0.134   0.000  0.00  0.00    -0.175 N 
ATOM      2  N   UNL d   1      -0.496   0.675   0.000  0.00  0.00    -0.057 NA
ATOM      3  C   UNL d   1      -0.079  -0.732   0.000  0.00  0.00     0.282 C 
ATOM      4  N   UNL d   1      -1.212   1.075   0.000  0.00  0.00    -0.129 NA
ATOM      5  C   UNL d   1      -1.474  -0.227   0.000  0.00  0.00     0.107 A 
ATOM      6  C   UNL d   1      -1.819   0.507   0.000  0.00  0.00     0.122 A 
ATOM      7  O   UNL d   1      -0.314  -1.518   0.000  0.00  0.00    -0.265 OA
ATOM      8  C   UNL d   1      -1.948  -0.901   0.000  0.00  0.00     0.021 A 
ATOM      9  C   UNL d   1      -2.652   0.585   0.000  0.00  0.00     0.022 A 
ATOM     10  C   UNL d   1      -2.769  -0.843   0.000  0.00  0.00     0.002 A 
ATOM     11  C   UNL d   1      -3.130  -0.090   0.000  0.00  0.00     0.002 A 
ENDROOT
BRANCH   3  12
ATOM     12  C   UNL d   1       0.721  -0.537   0.000  0.00  0.00     0.059 A 
ATOM     13  C   UNL d   1       0.961   0.247   0.000  0.00  0.00     0.013 A 
ATOM     14  C   UNL d   1       1.763   0.449   0.000  0.00  0.00     0.057 A 
ATOM     15 BR   UNL d   1       1.997   1.239   0.000  0.00  0.00    -0.047 Br
ATOM     16  C   UNL d   1       2.335  -0.149   0.000  0.00  0.00     0.100 A 
ATOM     17  C   UNL d   1       2.099  -0.939   0.000  0.00  0.00     0.025 A 
ATOM     18  C   UNL d   1       1.293  -1.131   0.000  0.00  0.00     0.007 A 
BRANCH  16  19
ATOM     19  O   UNL d   1       3.149   0.031   0.000  0.00  0.00    -0.328 OA
ATOM     20  C   UNL d   1       3.404   0.821   0.000  0.00  0.00     0.181 C 
ENDBRANCH  16  19
ENDBRANCH   3  12
TORSDOF 2
