REMARK  4 active torsions:
REMARK  status: ('A' for Active; 'I' for Inactive)
REMARK    1  A    between atoms: C_4  and  C_1 
REMARK    2  A    between atoms: C_9  and  N_2 
REMARK    3  A    between atoms: C_10  and  N_3 
REMARK    4  A    between atoms: O_15  and  C_12 
ROOT
ATOM      1  C   UNL d   1      -0.587   0.906   0.000  0.00  0.00     0.133 A 
ATOM      2  N   UNL d   1       0.096   1.353   0.000  0.00  0.00    -0.290 N 
ATOM      3  N   UNL d   1      -1.224   1.422   0.000  0.00  0.00    -0.290 N 
ATOM      4  C   UNL d   1      -0.921   2.192   0.000  0.00  0.00     0.101 A 
ATOM      5  C   UNL d   1      -0.138   2.142   0.000  0.00  0.00     0.101 A 
ENDROOT
BRANCH   1   6
ATOM      6  C   UNL d   1      -0.503   0.084   0.000  0.00  0.00     0.036 A 
ATOM      7  C   UNL d   1       0.264  -0.249   0.000  0.00  0.00     0.047 A 
ATOM      8  C   UNL d   1       0.348  -1.070   0.000  0.00  0.00     0.218 A 
ATOM      9  O   UNL d   1       1.118  -1.405   0.000  0.00  0.00    -0.284 OA
ATOM     10  C   UNL d   1      -0.321  -1.550   0.000  0.00  0.00     0.133 A 
ATOM     11  C   UNL d   1      -1.074  -1.217   0.000  0.00  0.00     0.028 A 
ATOM     12  C   UNL d   1      -1.158  -0.400   0.000  0.00  0.00     0.005 A 
BRANCH  10  13
ATOM     13  O   UNL d   1      -0.239  -2.388   0.000  0.00  0.00    -0.325 OA
ATOM     14  C   UNL d   1       0.515  -2.722   0.000  0.00  0.00     0.181 C 
ENDBRANCH  10  13
ENDBRANCH   1   6
BRANCH   2  15
ATOM     15  C   UNL d   1       0.933   1.325   0.000  0.00  0.00     0.066 A 
ATOM     16  C   UNL d   1       1.321   0.604   0.000  0.00  0.00     0.018 A 
ATOM     17  C   UNL d   1       2.137   0.555   0.000  0.00  0.00     0.002 A 
ATOM     18  C   UNL d   1       2.593   1.252   0.000  0.00  0.00     0.000 A 
ATOM     19  C   UNL d   1       2.206   1.994   0.000  0.00  0.00     0.002 A 
ATOM     20  C   UNL d   1       1.370   2.024   0.000  0.00  0.00     0.018 A 
ENDBRANCH   2  15
BRANCH   3  21
ATOM     21  C   UNL d   1      -2.044   1.336   0.000  0.00  0.00     0.066 A 
ATOM     22  C   UNL d   1      -2.394   0.587   0.000  0.00  0.00     0.018 A 
ATOM     23  C   UNL d   1      -3.194   0.503   0.000  0.00  0.00     0.002 A 
ATOM     24  C   UNL d   1      -3.699   1.171   0.000  0.00  0.00     0.000 A 
ATOM     25  C   UNL d   1      -3.346   1.923   0.000  0.00  0.00     0.002 A 
ATOM     26  C   UNL d   1      -2.527   2.007   0.000  0.00  0.00     0.018 A 
ENDBRANCH   3  21
TORSDOF 4
