REMARK  7 active torsions:
REMARK  status: ('A' for Active; 'I' for Inactive)
REMARK    1  A    between atoms: N_2  and  S_1 
REMARK    2  A    between atoms: C_6  and  S_1 
REMARK    3  A    between atoms: C_3  and  N_2 
REMARK       I    between atoms: C_7  and  N_10 
REMARK    4  A    between atoms: C_17  and  C_7 
REMARK    5  A    between atoms: N_10  and  C_18 
REMARK    6  A    between atoms: C_19  and  C_17 
REMARK    7  A    between atoms: O_27  and  C_20 
ROOT
ATOM      1  C   UNL d   1       0.963  -1.218   0.000  0.00  0.00     0.106 A 
ATOM      2  C   UNL d   1       0.578  -0.480   0.000  0.00  0.00     0.015 A 
ATOM      3  C   UNL d   1       0.540  -1.917   0.000  0.00  0.00     0.015 A 
ATOM      4  C   UNL d   1      -0.686  -1.170   0.000  0.00  0.00     0.085 A 
ATOM      5  C   UNL d   1      -0.242  -0.475   0.000  0.00  0.00     0.020 A 
ATOM      6  C   UNL d   1      -0.288  -1.889   0.000  0.00  0.00     0.020 A 
ENDROOT
BRANCH   1   7
ATOM      7  S   UNL d   1       1.808  -1.243   0.000  0.00  0.00     0.300 S 
ATOM      8  O   UNL d   1       1.762  -2.092   0.000  0.00  0.00    -0.198 OA
ATOM      9  O   UNL d   1       1.827  -0.411   0.000  0.00  0.00    -0.198 OA
BRANCH   7  10
ATOM     10  N   UNL d   1       2.636  -1.291   0.000  0.00  0.00     0.034 NA
BRANCH  10  11
ATOM     11  C   UNL d   1       3.078  -0.553   0.000  0.00  0.00     0.760 A 
ATOM     12  N   UNL d   1       3.906  -0.586   0.000  0.00  0.00    -0.059 NA
ATOM     13  C   UNL d   1       4.336   0.124   0.000  0.00  0.00     0.101 A 
ATOM     14  C   UNL d   1       5.196   0.116   0.000  0.00  0.00     0.021 C 
ATOM     15  C   UNL d   1       3.941   0.840   0.000  0.00  0.00     0.040 A 
ATOM     16  C   UNL d   1       3.130   0.840   0.000  0.00  0.00     0.101 A 
ATOM     17  N   UNL d   1       2.692   0.150   0.000  0.00  0.00    -0.059 NA
ATOM     18  C   UNL d   1       2.745   1.593   0.000  0.00  0.00     0.021 C 
ENDBRANCH  10  11
ENDBRANCH   7  10
ENDBRANCH   1   7
BRANCH   4  19
ATOM     19  N   UNL d   1      -1.514  -1.170   0.000  0.00  0.00    -0.208 NA
ATOM     20  C   UNL d   1      -1.935  -0.448   0.000  0.00  0.00     0.279 C 
ATOM     21  O   UNL d   1      -1.518   0.288   0.000  0.00  0.00    -0.265 OA
BRANCH  20  22
ATOM     22  C   UNL d   1      -2.757  -0.459   0.000  0.00  0.00     0.062 C 
BRANCH  22  23
ATOM     23  C   UNL d   1      -3.203   0.276   0.000  0.00  0.00     0.005 A 
ATOM     24  C   UNL d   1      -2.801   0.997   0.000  0.00  0.00     0.002 A 
ATOM     25  C   UNL d   1      -3.228   1.698   0.000  0.00  0.00     0.024 A 
ATOM     26  C   UNL d   1      -4.052   1.698   0.000  0.00  0.00     0.094 A 
ATOM     27  C   UNL d   1      -4.454   0.997   0.000  0.00  0.00     0.024 A 
ATOM     28  C   UNL d   1      -4.040   0.288   0.000  0.00  0.00     0.002 A 
BRANCH  26  29
ATOM     29  O   UNL d   1      -4.458   2.445   0.000  0.00  0.00    -0.328 OA
ATOM     30  C   UNL d   1      -4.056   3.167   0.000  0.00  0.00     0.181 C 
ENDBRANCH  26  29
ENDBRANCH  22  23
ENDBRANCH  20  22
ENDBRANCH   4  19
TORSDOF 7
