REMARK  1 active torsions:
REMARK  status: ('A' for Active; 'I' for Inactive)
REMARK    1  A    between atoms: C_24  and  N_4 
ROOT
ATOM      1  C   UNL d   1      -1.578  -0.669   0.000  0.00  0.00     0.111 A 
ATOM      2  C   UNL d   1      -1.578   0.740   0.000  0.00  0.00     0.062 A 
ATOM      3  C   UNL d   1      -1.187   0.045   0.000  0.00  0.00     0.018 A 
ATOM      4  N   UNL d   1       2.546  -0.069   0.000  0.00  0.00    -0.305 N 
ATOM      5  C   UNL d   1      -2.411  -0.669   0.000  0.00  0.00     0.213 A 
ATOM      6  C   UNL d   1      -2.411   0.740   0.000  0.00  0.00     0.101 A 
ATOM      7  C   UNL d   1       1.344  -0.639   0.000  0.00  0.00     0.018 A 
ATOM      8  C   UNL d   1       1.739   0.085   0.000  0.00  0.00     0.064 A 
ATOM      9  O   UNL d   1      -2.832   0.045   0.000  0.00  0.00    -0.288 OA
ATOM     10  C   UNL d   1      -1.187   1.462   0.000  0.00  0.00     0.194 A 
ATOM     11  C   UNL d   1       2.646  -0.870   0.000  0.00  0.00     0.064 A 
ATOM     12  C   UNL d   1       0.089   0.045   0.000  0.00  0.00     0.001 A 
ATOM     13  C   UNL d   1       1.909  -1.234   0.000  0.00  0.00     0.018 A 
ATOM     14  C   UNL d   1       0.510  -0.657   0.000  0.00  0.00     0.002 A 
ATOM     15  C   UNL d   1      -1.164  -1.388   0.000  0.00  0.00     0.105 C 
ATOM     16  N   UNL d   1      -0.740  -2.134   0.000  0.00  0.00    -0.191 NA
ATOM     17  C   UNL d   1       1.292   0.779   0.000  0.00  0.00     0.018 A 
ATOM     18  C   UNL d   1      -2.832   1.462   0.000  0.00  0.00     0.002 A 
ATOM     19  C   UNL d   1      -2.411   2.174   0.000  0.00  0.00     0.042 A 
ATOM     20  C   UNL d   1      -1.578   2.174   0.000  0.00  0.00     0.019 A 
ATOM     21  C   UNL d   1       0.473   0.751   0.000  0.00  0.00     0.002 A 
ATOM     22  O   UNL d   1      -0.344   1.462   0.000  0.00  0.00    -0.287 OA
ATOM     23  N   UNL d   1      -2.832  -1.388   0.000  0.00  0.00    -0.120 N 
ATOM     24  C   UNL d   1       3.330  -1.353   0.000  0.00  0.00     0.018 A 
ATOM     25  C   UNL d   1       1.850  -2.075   0.000  0.00  0.00     0.002 A 
ATOM     26  C   UNL d   1      -2.411   2.966   0.000  0.00  0.00     0.009 C 
ATOM     27  C   UNL d   1      -3.197   2.340   0.000  0.00  0.00     0.009 C 
ATOM     28  C   UNL d   1       2.530  -2.540   0.000  0.00  0.00     0.000 A 
ATOM     29  C   UNL d   1       3.273  -2.170   0.000  0.00  0.00     0.002 A 
ENDROOT
BRANCH   4  30
ATOM     30  C   UNL d   1       3.157   0.470   0.000  0.00  0.00     0.080 C 
ATOM     31  C   UNL d   1       3.945   0.219   0.000  0.00  0.00     0.021 C 
ENDBRANCH   4  30
TORSDOF 1
