REMARK  9 active torsions:
REMARK  status: ('A' for Active; 'I' for Inactive)
REMARK    1  A    between atoms: N_2  and  S_1 
REMARK    2  A    between atoms: C_9  and  S_1 
REMARK    3  A    between atoms: C_4  and  N_2 
REMARK    4  A    between atoms: O_22  and  C_6 
REMARK    5  A    between atoms: O_23  and  C_7 
REMARK       I    between atoms: C_12  and  N_13 
REMARK    6  A    between atoms: C_20  and  C_12 
REMARK    7  A    between atoms: N_13  and  C_21 
REMARK    8  A    between atoms: O_14  and  C_20 
REMARK    9  A    between atoms: C_15  and  O_14 
ROOT
ATOM      1  C   UNL d   1       1.002   0.337   0.000  0.00  0.00     0.105 A 
ATOM      2  C   UNL d   1       0.606  -0.379   0.000  0.00  0.00     0.015 A 
ATOM      3  C   UNL d   1       0.588   1.040   0.000  0.00  0.00     0.015 A 
ATOM      4  C   UNL d   1      -0.639   0.319   0.000  0.00  0.00     0.085 A 
ATOM      5  C   UNL d   1      -0.211  -0.414   0.000  0.00  0.00     0.020 A 
ATOM      6  C   UNL d   1      -0.228   1.017   0.000  0.00  0.00     0.020 A 
ENDROOT
BRANCH   1   7
ATOM      7  S   UNL d   1       1.837   0.358   0.000  0.00  0.00     0.287 S 
ATOM      8  O   UNL d   1       1.859  -0.480   0.000  0.00  0.00    -0.198 OA
ATOM      9  O   UNL d   1       1.823   1.193   0.000  0.00  0.00    -0.198 OA
BRANCH   7  10
ATOM     10  N   UNL d   1       2.675   0.376   0.000  0.00  0.00    -0.139 NA
BRANCH  10  11
ATOM     11  C   UNL d   1       3.108  -0.325   0.000  0.00  0.00     0.182 A 
ATOM     12  N   UNL d   1       3.922  -0.298   0.000  0.00  0.00    -0.185 NA
ATOM     13  C   UNL d   1       4.374  -1.016   0.000  0.00  0.00     0.274 A 
ATOM     14  N   UNL d   1       3.999  -1.730   0.000  0.00  0.00    -0.181 NA
ATOM     15  C   UNL d   1       3.189  -1.784   0.000  0.00  0.00     0.185 A 
ATOM     16  C   UNL d   1       2.715  -1.055   0.000  0.00  0.00     0.084 A 
BRANCH  13  17
ATOM     17  O   UNL d   1       5.208  -0.981   0.000  0.00  0.00    -0.297 OA
ATOM     18  C   UNL d   1       5.619  -0.252   0.000  0.00  0.00     0.185 C 
ENDBRANCH  13  17
BRANCH  15  19
ATOM     19  O   UNL d   1       2.823  -2.533   0.000  0.00  0.00    -0.312 OA
ATOM     20  C   UNL d   1       3.320  -3.211   0.000  0.00  0.00     0.183 C 
ENDBRANCH  15  19
ENDBRANCH  10  11
ENDBRANCH   7  10
ENDBRANCH   1   7
BRANCH   4  21
ATOM     21  N   UNL d   1      -1.469   0.319   0.000  0.00  0.00    -0.206 NA
ATOM     22  C   UNL d   1      -1.877   1.032   0.000  0.00  0.00     0.304 C 
ATOM     23  O   UNL d   1      -1.460   1.744   0.000  0.00  0.00    -0.263 OA
BRANCH  22  24
ATOM     24  C   UNL d   1      -2.710   1.032   0.000  0.00  0.00     0.185 C 
BRANCH  24  25
ATOM     25  O   UNL d   1      -3.117   1.744   0.000  0.00  0.00    -0.299 OA
BRANCH  25  26
ATOM     26  C   UNL d   1      -3.973   1.760   0.000  0.00  0.00     0.111 A 
ATOM     27  C   UNL d   1      -4.383   2.473   0.000  0.00  0.00     0.081 A 
ATOM     28 CL   UNL d   1      -3.960   3.211   0.000  0.00  0.00    -0.080 Cl
ATOM     29  C   UNL d   1      -5.204   2.473   0.000  0.00  0.00     0.013 A 
ATOM     30  C   UNL d   1      -5.619   1.744   0.000  0.00  0.00     0.001 A 
ATOM     31  C   UNL d   1      -5.204   1.032   0.000  0.00  0.00     0.002 A 
ATOM     32  C   UNL d   1      -4.383   1.032   0.000  0.00  0.00     0.026 A 
ENDBRANCH  25  26
ENDBRANCH  24  25
ENDBRANCH  22  24
ENDBRANCH   4  21
TORSDOF 9
