REMARK  3 active torsions:
REMARK  status: ('A' for Active; 'I' for Inactive)
REMARK       I    between atoms: C_3  and  N_1 
REMARK    1  A    between atoms: C_6  and  C_3 
REMARK    2  A    between atoms: O_9  and  C_6 
REMARK    3  A    between atoms: C_10  and  O_9 
ROOT
ATOM      1  N   UNL d   1       3.739  -1.741   0.000  0.00  0.00    -0.272 N 
ATOM      2  C   UNL d   1       3.786  -0.915   0.000  0.00  0.00     0.067 A 
ATOM      3  C   UNL d   1       3.043  -2.197   0.000  0.00  0.00     0.290 C 
ATOM      4  C   UNL d   1       4.483  -2.037   0.000  0.00  0.00     0.083 A 
ATOM      5  C   UNL d   1       4.573  -0.706   0.000  0.00  0.00     0.018 A 
ATOM      6  O   UNL d   1       3.098  -3.017   0.000  0.00  0.00    -0.264 OA
ATOM      7  C   UNL d   1       5.020  -1.397   0.000  0.00  0.00     0.021 A 
ATOM      8  C   UNL d   1       3.216  -0.327   0.000  0.00  0.00     0.018 A 
ATOM      9  C   UNL d   1       4.798   0.090   0.000  0.00  0.00     0.002 A 
ATOM     10  C   UNL d   1       3.425   0.459   0.000  0.00  0.00     0.002 A 
ATOM     11  C   UNL d   1       4.233   0.669   0.000  0.00  0.00     0.000 A 
ENDROOT
BRANCH   3  12
ATOM     12  C   UNL d   1       2.311  -1.817   0.000  0.00  0.00     0.184 C 
BRANCH  12  13
ATOM     13  O   UNL d   1       1.617  -2.275   0.000  0.00  0.00    -0.300 OA
BRANCH  13  14
ATOM     14  C   UNL d   1       0.884  -1.907   0.000  0.00  0.00     0.100 A 
ATOM     15  C   UNL d   1       0.190  -2.365   0.000  0.00  0.00     0.025 A 
ATOM     16  C   UNL d   1      -0.545  -2.001   0.000  0.00  0.00     0.002 A 
ATOM     17  C   UNL d   1      -0.595  -1.177   0.000  0.00  0.00     0.000 A 
ATOM     18  C   UNL d   1       0.088  -0.706   0.000  0.00  0.00     0.002 A 
ATOM     19  C   UNL d   1       0.833  -1.086   0.000  0.00  0.00     0.025 A 
ENDBRANCH  13  14
ENDBRANCH  12  13
ENDBRANCH   3  12
TORSDOF 3
