REMARK  1 active torsions:
REMARK  status: ('A' for Active; 'I' for Inactive)
REMARK       I    between atoms: C_4  and  N_1 
REMARK    1  A    between atoms: C_7  and  C_4 
ROOT
ATOM      1  N   UNL d   1       3.356  -2.730   0.000  0.00  0.00    -0.175 N 
ATOM      2  N   UNL d   1       4.182  -2.813   0.000  0.00  0.00    -0.057 NA
ATOM      3  N   UNL d   1       4.513  -2.067   0.000  0.00  0.00    -0.129 NA
ATOM      4  C   UNL d   1       2.803  -3.351   0.000  0.00  0.00     0.282 C 
ATOM      5  C   UNL d   1       3.179  -1.925   0.000  0.00  0.00     0.107 A 
ATOM      6  C   UNL d   1       3.894  -1.512   0.000  0.00  0.00     0.122 A 
ATOM      7  O   UNL d   1       2.001  -3.179   0.000  0.00  0.00    -0.265 OA
ATOM      8  C   UNL d   1       2.468  -1.512   0.000  0.00  0.00     0.021 A 
ATOM      9  C   UNL d   1       3.894  -0.677   0.000  0.00  0.00     0.022 A 
ATOM     10  C   UNL d   1       2.468  -0.687   0.000  0.00  0.00     0.002 A 
ATOM     11  C   UNL d   1       3.179  -0.266   0.000  0.00  0.00     0.002 A 
ENDROOT
BRANCH   4  12
ATOM     12  C   UNL d   1       3.067  -4.131   0.000  0.00  0.00     0.058 A 
ATOM     13  C   UNL d   1       2.524  -4.752   0.000  0.00  0.00     0.005 A 
ATOM     14  C   UNL d   1       2.788  -5.532   0.000  0.00  0.00     0.000 A 
ATOM     15  C   UNL d   1       3.593  -5.701   0.000  0.00  0.00     0.000 A 
ATOM     16  C   UNL d   1       4.138  -5.082   0.000  0.00  0.00     0.000 A 
ATOM     17  C   UNL d   1       3.852  -6.496   0.000  0.00  0.00     0.000 C 
ATOM     18  C   UNL d   1       3.877  -4.300   0.000  0.00  0.00     0.005 A 
ENDBRANCH   4  12
TORSDOF 1
