REMARK  7 active torsions:
REMARK  status: ('A' for Active; 'I' for Inactive)
REMARK    1  A    between atoms: N_2  and  S_1 
REMARK    2  A    between atoms: C_3  and  S_1 
REMARK    3  A    between atoms: C_9  and  N_2 
REMARK    4  A    between atoms: C_6  and  O_7 
REMARK    5  A    between atoms: O_7  and  C_14 
REMARK    6  A    between atoms: C_13  and  C_9 
REMARK    7  A    between atoms: O_17  and  C_10 
ROOT
ATOM      1  C   UNL d   1       1.072  -1.316   0.000  0.00  0.00     0.105 A 
ATOM      2  C   UNL d   1       1.780  -1.726   0.000  0.00  0.00     0.015 A 
ATOM      3  C   UNL d   1       1.072  -0.488   0.000  0.00  0.00     0.015 A 
ATOM      4  C   UNL d   1       2.488  -0.488   0.000  0.00  0.00     0.100 A 
ATOM      5  C   UNL d   1       2.488  -1.316   0.000  0.00  0.00     0.025 A 
ATOM      6  C   UNL d   1       1.780  -0.079   0.000  0.00  0.00     0.025 A 
ENDROOT
BRANCH   1   7
ATOM      7  S   UNL d   1       0.360  -1.738   0.000  0.00  0.00     0.285 S 
ATOM      8  O   UNL d   1      -0.360  -1.333   0.000  0.00  0.00    -0.198 OA
ATOM      9  O   UNL d   1       0.372  -2.562   0.000  0.00  0.00    -0.198 OA
BRANCH   7  10
ATOM     10  N   UNL d   1      -0.224  -2.326   0.000  0.00  0.00    -0.155 NA
BRANCH  10  11
ATOM     11  C   UNL d   1       0.000  -3.133   0.000  0.00  0.00     0.131 C 
BRANCH  11  12
ATOM     12  C   UNL d   1       0.807  -3.332   0.000  0.00  0.00     0.101 A 
ATOM     13  N   UNL d   1       1.031  -4.127   0.000  0.00  0.00    -0.242 NA
ATOM     14  C   UNL d   1       1.829  -4.334   0.000  0.00  0.00     0.099 A 
ATOM     15  C   UNL d   1       2.413  -3.738   0.000  0.00  0.00     0.021 A 
ATOM     16  C   UNL d   1       2.177  -2.935   0.000  0.00  0.00     0.003 A 
ATOM     17  C   UNL d   1       1.378  -2.736   0.000  0.00  0.00     0.021 A 
ENDBRANCH  11  12
ENDBRANCH  10  11
ENDBRANCH   7  10
ENDBRANCH   1   7
BRANCH   4  18
ATOM     18  O   UNL d   1       3.208  -0.074   0.000  0.00  0.00    -0.305 OA
BRANCH  18  19
ATOM     19  C   UNL d   1       3.928  -0.484   0.000  0.00  0.00     0.122 A 
ATOM     20  C   UNL d   1       4.636  -0.066   0.000  0.00  0.00     0.117 A 
ATOM     21  C   UNL d   1       5.352  -0.476   0.000  0.00  0.00     0.026 A 
ATOM     22  C   UNL d   1       5.356  -1.296   0.000  0.00  0.00     0.002 A 
ATOM     23  C   UNL d   1       4.644  -1.714   0.000  0.00  0.00     0.002 A 
ATOM     24  C   UNL d   1       3.928  -1.304   0.000  0.00  0.00     0.027 A 
BRANCH  20  25
ATOM     25  O   UNL d   1       4.623   0.753   0.000  0.00  0.00    -0.326 OA
ATOM     26  C   UNL d   1       3.916   1.155   0.000  0.00  0.00     0.181 C 
ENDBRANCH  20  25
ENDBRANCH  18  19
ENDBRANCH   4  18
TORSDOF 7
