REMARK  5 active torsions:
REMARK  status: ('A' for Active; 'I' for Inactive)
REMARK    1  A    between atoms: N_2  and  S_1 
REMARK    2  A    between atoms: C_6  and  S_1 
REMARK       I    between atoms: C_3  and  N_4 
REMARK    3  A    between atoms: C_5  and  C_3 
REMARK    4  A    between atoms: O_20  and  C_21 
REMARK    5  A    between atoms: C_24  and  O_20 
ROOT
ATOM      1  S   UNL d   1       4.626  -1.357   0.000  0.00  0.00     0.271 S 
ATOM      2  O   UNL d   1       5.340  -1.766   0.000  0.00  0.00    -0.200 OA
ATOM      3  O   UNL d   1       5.035  -0.643   0.000  0.00  0.00    -0.200 OA
ENDROOT
BRANCH   1   4
ATOM      4  N   UNL d   1       4.213  -2.071   0.000  0.00  0.00    -0.226 N 
ATOM      5  C   UNL d   1       3.394  -2.079   0.000  0.00  0.00     0.111 A 
ATOM      6  C   UNL d   1       2.985  -2.793   0.000  0.00  0.00     0.103 A 
ATOM      7  N   UNL d   1       3.407  -3.499   0.000  0.00  0.00    -0.267 N 
ATOM      8  C   UNL d   1       2.998  -4.213   0.000  0.00  0.00     0.288 C 
ATOM      9  C   UNL d   1       4.225  -3.499   0.000  0.00  0.00     0.103 A 
ATOM     10  O   UNL d   1       3.411  -4.927   0.000  0.00  0.00    -0.264 OA
ATOM     11  C   UNL d   1       4.639  -2.785   0.000  0.00  0.00     0.111 A 
BRANCH   8  12
ATOM     12  C   UNL d   1       2.171  -4.221   0.000  0.00  0.00     0.156 A 
ATOM     13  O   UNL d   1       1.683  -4.889   0.000  0.00  0.00    -0.300 OA
ATOM     14  C   UNL d   1       0.902  -4.639   0.000  0.00  0.00     0.123 A 
ATOM     15  C   UNL d   1       0.893  -3.812   0.000  0.00  0.00     0.029 A 
ATOM     16  C   UNL d   1       1.683  -3.557   0.000  0.00  0.00     0.032 A 
ENDBRANCH   8  12
ENDBRANCH   1   4
BRANCH   1  17
ATOM     17  C   UNL d   1       3.912  -0.944   0.000  0.00  0.00     0.104 A 
ATOM     18  C   UNL d   1       3.900  -0.117   0.000  0.00  0.00     0.015 A 
ATOM     19  C   UNL d   1       3.186   0.288   0.000  0.00  0.00     0.025 A 
ATOM     20  C   UNL d   1       2.480  -0.130   0.000  0.00  0.00     0.100 A 
ATOM     21  C   UNL d   1       2.480  -0.956   0.000  0.00  0.00     0.025 A 
ATOM     22  C   UNL d   1       3.194  -1.365   0.000  0.00  0.00     0.015 A 
BRANCH  20  23
ATOM     23  O   UNL d   1       1.758   0.284   0.000  0.00  0.00    -0.307 OA
BRANCH  23  24
ATOM     24  C   UNL d   1       1.044  -0.138   0.000  0.00  0.00     0.100 A 
ATOM     25  C   UNL d   1       1.044  -0.969   0.000  0.00  0.00     0.025 A 
ATOM     26  C   UNL d   1       0.330  -1.382   0.000  0.00  0.00     0.002 A 
ATOM     27  C   UNL d   1      -0.384  -0.969   0.000  0.00  0.00     0.000 A 
ATOM     28  C   UNL d   1      -0.384  -0.138   0.000  0.00  0.00     0.002 A 
ATOM     29  C   UNL d   1       0.330   0.276   0.000  0.00  0.00     0.025 A 
ENDBRANCH  23  24
ENDBRANCH  20  23
ENDBRANCH   1  17
TORSDOF 5
