REMARK  2 active torsions:
REMARK  status: ('A' for Active; 'I' for Inactive)
REMARK    1  A    between atoms: N_2  and  S_1 
REMARK    2  A    between atoms: C_8  and  S_1 
ROOT
ATOM      1  N   UNL d   1       2.184  -3.209   0.000  0.00  0.00    -0.231 N 
ATOM      2  C   UNL d   1       2.663  -2.546   0.000  0.00  0.00     0.092 A 
ATOM      3  C   UNL d   1       1.400  -2.951   0.000  0.00  0.00     0.075 A 
ATOM      4  C   UNL d   1       2.184  -1.876   0.000  0.00  0.00     0.021 A 
ATOM      5  C   UNL d   1       1.400  -2.124   0.000  0.00  0.00     0.018 A 
ATOM      6  C   UNL d   1       0.689  -3.363   0.000  0.00  0.00     0.018 A 
ATOM      7  C   UNL d   1       0.689  -1.713   0.000  0.00  0.00     0.002 A 
ATOM      8  C   UNL d   1      -0.028  -2.951   0.000  0.00  0.00     0.002 A 
ATOM      9  C   UNL d   1      -0.028  -2.124   0.000  0.00  0.00     0.000 A 
ENDROOT
BRANCH   1  10
ATOM     10  S   UNL d   1       2.437  -3.994   0.000  0.00  0.00     0.271 S 
ATOM     11  O   UNL d   1       3.225  -3.736   0.000  0.00  0.00    -0.200 OA
ATOM     12  O   UNL d   1       1.651  -4.247   0.000  0.00  0.00    -0.200 OA
BRANCH  10  13
ATOM     13  C   UNL d   1       2.688  -4.783   0.000  0.00  0.00     0.104 A 
ATOM     14  C   UNL d   1       2.139  -5.393   0.000  0.00  0.00     0.013 A 
ATOM     15  C   UNL d   1       2.387  -6.171   0.000  0.00  0.00     0.001 A 
ATOM     16  C   UNL d   1       3.196  -6.348   0.000  0.00  0.00     0.000 A 
ATOM     17  C   UNL d   1       3.749  -5.743   0.000  0.00  0.00     0.001 A 
ATOM     18  C   UNL d   1       3.497  -4.956   0.000  0.00  0.00     0.013 A 
ENDBRANCH  10  13
ENDBRANCH   1  10
TORSDOF 2
