REMARK  5 active torsions:
REMARK  status: ('A' for Active; 'I' for Inactive)
REMARK    1  A    between atoms: N_2  and  S_1 
REMARK    2  A    between atoms: C_3  and  S_1 
REMARK    3  A    between atoms: C_6  and  O_7 
REMARK    4  A    between atoms: O_7  and  C_11 
REMARK    5  A    between atoms: O_16  and  C_8 
ROOT
ATOM      1  C   UNL d   1      -3.204   1.298   0.000  0.00  0.00     0.104 A 
ATOM      2  C   UNL d   1      -2.496   0.890   0.000  0.00  0.00     0.015 A 
ATOM      3  C   UNL d   1      -3.204   2.131   0.000  0.00  0.00     0.015 A 
ATOM      4  C   UNL d   1      -1.788   2.131   0.000  0.00  0.00     0.100 A 
ATOM      5  C   UNL d   1      -2.496   2.542   0.000  0.00  0.00     0.025 A 
ATOM      6  C   UNL d   1      -1.788   1.298   0.000  0.00  0.00     0.025 A 
ENDROOT
BRANCH   4   7
ATOM      7  O   UNL d   1      -1.062   2.542   0.000  0.00  0.00    -0.305 OA
BRANCH   7   8
ATOM      8  C   UNL d   1      -0.339   2.135   0.000  0.00  0.00     0.122 A 
ATOM      9  C   UNL d   1       0.369   2.553   0.000  0.00  0.00     0.117 A 
ATOM     10  C   UNL d   1       1.088   2.142   0.000  0.00  0.00     0.026 A 
ATOM     11  C   UNL d   1       1.088   1.320   0.000  0.00  0.00     0.002 A 
ATOM     12  C   UNL d   1       0.377   0.902   0.000  0.00  0.00     0.002 A 
ATOM     13  C   UNL d   1      -0.339   1.313   0.000  0.00  0.00     0.027 A 
BRANCH   9  14
ATOM     14  O   UNL d   1       0.358   3.375   0.000  0.00  0.00    -0.326 OA
ATOM     15  C   UNL d   1      -0.354   3.771   0.000  0.00  0.00     0.181 C 
ENDBRANCH   9  14
ENDBRANCH   7   8
ENDBRANCH   4   7
BRANCH   1  16
ATOM     16  S   UNL d   1      -3.916   0.879   0.000  0.00  0.00     0.271 S 
ATOM     17  O   UNL d   1      -4.642   1.286   0.000  0.00  0.00    -0.200 OA
ATOM     18  O   UNL d   1      -3.912   0.053   0.000  0.00  0.00    -0.200 OA
BRANCH  16  19
ATOM     19  N   UNL d   1      -4.498   0.293   0.000  0.00  0.00    -0.229 N 
ATOM     20  C   UNL d   1      -4.368  -0.529   0.000  0.00  0.00     0.092 A 
ATOM     21  C   UNL d   1      -5.099  -0.917   0.000  0.00  0.00     0.021 A 
ATOM     22  C   UNL d   1      -5.689  -0.343   0.000  0.00  0.00     0.021 A 
ATOM     23  C   UNL d   1      -5.327   0.407   0.000  0.00  0.00     0.092 A 
ENDBRANCH  16  19
ENDBRANCH   1  16
TORSDOF 5
