REMARK  3 active torsions:
REMARK  status: ('A' for Active; 'I' for Inactive)
REMARK    1  A    between atoms: C_5  and  C_1 
REMARK    2  A    between atoms: C_8  and  N_2 
REMARK    3  A    between atoms: C_10  and  C_8 
ROOT
ATOM      1  C   UNL d   1      -0.399  -2.817   0.000  0.00  0.00     0.166 A 
ATOM      2  N   UNL d   1       1.031  -1.993   0.000  0.00  0.00    -0.302 N 
ATOM      3  C   UNL d   1       0.316  -3.229   0.000  0.00  0.00     0.058 A 
ATOM      4  C   UNL d   1      -0.399  -1.993   0.000  0.00  0.00     0.058 A 
ATOM      5  C   UNL d   1       0.316  -1.580   0.000  0.00  0.00     0.083 A 
ATOM      6  C   UNL d   1       1.031  -2.817   0.000  0.00  0.00     0.083 A 
ATOM      7  O   UNL d   1      -1.136  -2.336   0.000  0.00  0.00    -0.290 OA
ENDROOT
BRANCH   1   8
ATOM      8  C   UNL d   1      -1.113  -3.229   0.000  0.00  0.00     0.036 A 
ATOM      9  C   UNL d   1      -1.837  -2.808   0.000  0.00  0.00     0.003 A 
ATOM     10  C   UNL d   1      -2.542  -3.229   0.000  0.00  0.00     0.000 A 
ATOM     11  C   UNL d   1      -2.542  -4.059   0.000  0.00  0.00     0.000 A 
ATOM     12  C   UNL d   1      -1.837  -4.471   0.000  0.00  0.00     0.000 A 
ATOM     13  C   UNL d   1      -1.113  -4.059   0.000  0.00  0.00     0.003 A 
ENDBRANCH   1   8
BRANCH   2  14
ATOM     14  C   UNL d   1       1.745  -1.580   0.000  0.00  0.00     0.080 C 
BRANCH  14  15
ATOM     15  C   UNL d   1       2.460  -1.993   0.000  0.00  0.00     0.018 A 
ATOM     16  C   UNL d   1       2.460  -2.817   0.000  0.00  0.00     0.002 A 
ATOM     17  C   UNL d   1       3.175  -3.229   0.000  0.00  0.00     0.000 A 
ATOM     18  C   UNL d   1       3.889  -2.822   0.000  0.00  0.00     0.000 A 
ATOM     19  C   UNL d   1       3.889  -1.997   0.000  0.00  0.00     0.000 A 
ATOM     20  C   UNL d   1       3.175  -1.580   0.000  0.00  0.00     0.002 A 
ENDBRANCH  14  15
ENDBRANCH   2  14
TORSDOF 3
