REMARK  2 active torsions:
REMARK  status: ('A' for Active; 'I' for Inactive)
REMARK    1  A    between atoms: C_8  and  N_1 
REMARK    2  A    between atoms: N_5  and  C_9 
ROOT
ATOM      1  N   UNL d   1      -1.589  -0.132   0.000  0.00  0.00    -0.192 N 
ATOM      2  C   UNL d   1      -2.119  -0.769   0.000  0.00  0.00     0.281 A 
ATOM      3  N   UNL d   1      -1.866   0.617   0.000  0.00  0.00    -0.120 NA
ATOM      4  C   UNL d   1      -2.679   0.767   0.000  0.00  0.00     0.296 A 
ATOM      5  C   UNL d   1      -2.933  -0.637   0.000  0.00  0.00     0.063 A 
ATOM      6  C   UNL d   1      -3.230   0.170   0.000  0.00  0.00     0.064 A 
ATOM      7  O   UNL d   1      -1.844  -1.551   0.000  0.00  0.00    -0.265 OA
ATOM      8  O   UNL d   1      -2.948   1.530   0.000  0.00  0.00    -0.264 OA
ATOM      9  C   UNL d   1      -3.469  -1.258   0.000  0.00  0.00     0.005 A 
ATOM     10  C   UNL d   1      -4.034   0.282   0.000  0.00  0.00     0.005 A 
ATOM     11  C   UNL d   1      -4.289  -1.105   0.000  0.00  0.00     0.000 A 
ATOM     12  C   UNL d   1      -4.572  -0.355   0.000  0.00  0.00     0.000 A 
ENDROOT
BRANCH   1  13
ATOM     13  C   UNL d   1      -0.793  -0.255   0.000  0.00  0.00     0.086 A 
ATOM     14  C   UNL d   1      -0.271   0.385   0.000  0.00  0.00     0.021 A 
ATOM     15  C   UNL d   1       0.557   0.234   0.000  0.00  0.00     0.025 A 
ATOM     16  C   UNL d   1       0.833  -0.557   0.000  0.00  0.00     0.127 A 
ATOM     17  C   UNL d   1       0.290  -1.154   0.000  0.00  0.00     0.025 A 
ATOM     18  C   UNL d   1      -0.511  -1.040   0.000  0.00  0.00     0.021 A 
BRANCH  16  19
ATOM     19  N   UNL d   1       1.658  -0.701   0.000  0.00  0.00    -0.114 N 
ATOM     20  O   UNL d   1       1.912  -1.472   0.000  0.00  0.00    -0.532 OA
ATOM     21  O   UNL d   1       2.232  -0.100   0.000  0.00  0.00    -0.532 OA
ENDBRANCH  16  19
ENDBRANCH   1  13
TORSDOF 2
