REMARK  3 active torsions:
REMARK  status: ('A' for Active; 'I' for Inactive)
REMARK    1  A    between atoms: C_6  and  C_1 
REMARK    2  A    between atoms: O_9  and  C_6 
REMARK    3  A    between atoms: C_12  and  O_9 
ROOT
ATOM      1  C   UNL d   1      -1.668   1.114   0.000  0.00  0.00     0.089 A 
ATOM      2  C   UNL d   1      -1.401   0.326   0.000  0.00  0.00     0.138 A 
ATOM      3  S   UNL d   1      -2.047  -0.153   0.000  0.00  0.00    -0.066 SA
ATOM      4  C   UNL d   1      -2.475   1.089   0.000  0.00  0.00     0.013 A 
ATOM      5  C   UNL d   1      -2.713   0.326   0.000  0.00  0.00     0.031 A 
ATOM      6  N   UNL d   1      -0.614   0.060   0.000  0.00  0.00    -0.141 N 
ATOM      7  C   UNL d   1      -3.027   1.713   0.000  0.00  0.00     0.001 A 
ATOM      8  C   UNL d   1      -3.525   0.135   0.000  0.00  0.00     0.006 A 
ATOM      9  C   UNL d   1      -3.839   1.517   0.000  0.00  0.00     0.000 A 
ATOM     10  C   UNL d   1      -4.060   0.758   0.000  0.00  0.00     0.001 A 
ENDROOT
BRANCH   1  11
ATOM     11  C   UNL d   1      -1.163   1.787   0.000  0.00  0.00     0.302 C 
ATOM     12  O   UNL d   1      -1.496   2.522   0.000  0.00  0.00    -0.259 OA
BRANCH  11  13
ATOM     13  O   UNL d   1      -0.374   1.668   0.000  0.00  0.00    -0.271 OA
BRANCH  13  14
ATOM     14  C   UNL d   1       0.124   2.310   0.000  0.00  0.00     0.126 C 
ATOM     15  C   UNL d   1       0.940   2.189   0.000  0.00  0.00     0.029 C 
ENDBRANCH  13  14
ENDBRANCH  11  13
ENDBRANCH   1  11
TORSDOF 3
