REMARK  5 active torsions:
REMARK  status: ('A' for Active; 'I' for Inactive)
REMARK    1  A    between atoms: C_2  and  S_1 
REMARK    2  A    between atoms: N_3  and  S_1 
REMARK    3  A    between atoms: C_21  and  N_8 
REMARK    4  A    between atoms: O_26  and  C_16 
REMARK    5  A    between atoms: C_19  and  C_21 
ROOT
ATOM      1  N   UNL d   1       3.925  -0.495   0.000  0.00  0.00    -0.226 N 
ATOM      2  N   UNL d   1       2.500  -1.328   0.000  0.00  0.00    -0.300 N 
ATOM      3  C   UNL d   1       3.925  -1.328   0.000  0.00  0.00     0.111 A 
ATOM      4  C   UNL d   1       3.208  -0.090   0.000  0.00  0.00     0.111 A 
ATOM      5  C   UNL d   1       3.208  -1.735   0.000  0.00  0.00     0.100 A 
ATOM      6  C   UNL d   1       2.500  -0.495   0.000  0.00  0.00     0.100 A 
ENDROOT
BRANCH   1   7
ATOM      7  S   UNL d   1       4.638  -0.090   0.000  0.00  0.00     0.271 S 
ATOM      8  O   UNL d   1       5.053  -0.803   0.000  0.00  0.00    -0.200 OA
ATOM      9  O   UNL d   1       4.222   0.628   0.000  0.00  0.00    -0.200 OA
BRANCH   7  10
ATOM     10  C   UNL d   1       5.349   0.318   0.000  0.00  0.00     0.104 A 
ATOM     11  C   UNL d   1       6.067  -0.090   0.000  0.00  0.00     0.014 A 
ATOM     12  C   UNL d   1       6.782   0.324   0.000  0.00  0.00     0.023 A 
ATOM     13  C   UNL d   1       6.067  -0.916   0.000  0.00  0.00     0.001 A 
ATOM     14  C   UNL d   1       7.488  -0.077   0.000  0.00  0.00     0.002 A 
ATOM     15  C   UNL d   1       6.782   1.151   0.000  0.00  0.00     0.094 A 
ATOM     16  C   UNL d   1       7.499  -0.903   0.000  0.00  0.00     0.000 A 
ATOM     17  C   UNL d   1       6.784  -1.321   0.000  0.00  0.00     0.000 A 
ATOM     18  C   UNL d   1       6.067   1.560   0.000  0.00  0.00     0.025 A 
ATOM     19  C   UNL d   1       5.349   1.151   0.000  0.00  0.00     0.015 A 
BRANCH  15  20
ATOM     20  O   UNL d   1       7.488   1.560   0.000  0.00  0.00    -0.328 OA
ATOM     21  C   UNL d   1       8.197   1.151   0.000  0.00  0.00     0.181 C 
ENDBRANCH  15  20
ENDBRANCH   7  10
ENDBRANCH   1   7
BRANCH   2  22
ATOM     22  C   UNL d   1       1.782  -1.735   0.000  0.00  0.00     0.080 C 
BRANCH  22  23
ATOM     23  C   UNL d   1       1.065  -1.328   0.000  0.00  0.00     0.020 A 
ATOM     24  C   UNL d   1       0.359  -1.735   0.000  0.00  0.00     0.028 A 
ATOM     25  C   UNL d   1      -0.356  -1.328   0.000  0.00  0.00     0.119 A 
ATOM     26  O   UNL d   1      -1.140  -1.584   0.000  0.00  0.00    -0.300 OA
ATOM     27  C   UNL d   1      -0.356  -0.495   0.000  0.00  0.00     0.119 A 
ATOM     28  C   UNL d   1      -1.624  -0.916   0.000  0.00  0.00     0.304 A 
ATOM     29  O   UNL d   1      -1.140  -0.250   0.000  0.00  0.00    -0.300 OA
ATOM     30  C   UNL d   1       0.359  -0.090   0.000  0.00  0.00     0.026 A 
ATOM     31  C   UNL d   1       1.065  -0.495   0.000  0.00  0.00     0.004 A 
ENDBRANCH  22  23
ENDBRANCH   2  22
TORSDOF 5
