REMARK  2 active torsions:
REMARK  status: ('A' for Active; 'I' for Inactive)
REMARK    1  A    between atoms: C_2  and  C_1 
REMARK       I    between atoms: N_3  and  C_1 
REMARK    2  A    between atoms: C_5  and  N_4 
ROOT
ATOM      1  C   UNL d   1       4.670  -0.466   0.000  0.00  0.00     0.267 C 
ATOM      2  N   UNL d   1       3.845  -0.466   0.000  0.00  0.00    -0.269 N 
ATOM      3  N   UNL d   1       2.193  -0.466   0.000  0.00  0.00    -0.301 N 
ATOM      4  O   UNL d   1       5.083  -1.177   0.000  0.00  0.00    -0.267 OA
ATOM      5  C   UNL d   1       3.430  -1.177   0.000  0.00  0.00     0.102 A 
ATOM      6  C   UNL d   1       3.430   0.247   0.000  0.00  0.00     0.102 A 
ATOM      7  C   UNL d   1       2.605   0.247   0.000  0.00  0.00     0.100 A 
ATOM      8  C   UNL d   1       2.605  -1.177   0.000  0.00  0.00     0.100 A 
ENDROOT
BRANCH   1   9
ATOM      9  C   UNL d   1       5.083   0.247   0.000  0.00  0.00     0.084 A 
ATOM     10  C   UNL d   1       5.910   0.247   0.000  0.00  0.00     0.145 A 
ATOM     11  F   UNL d   1       6.323  -0.466   0.000  0.00  0.00    -0.204 F 
ATOM     12  C   UNL d   1       6.323   0.967   0.000  0.00  0.00     0.030 A 
ATOM     13  C   UNL d   1       5.910   1.676   0.000  0.00  0.00     0.002 A 
ATOM     14  C   UNL d   1       5.083   1.676   0.000  0.00  0.00     0.000 A 
ATOM     15  C   UNL d   1       4.670   0.967   0.000  0.00  0.00     0.007 A 
ENDBRANCH   1   9
BRANCH   3  16
ATOM     16  C   UNL d   1       1.365  -0.466   0.000  0.00  0.00     0.064 A 
ATOM     17  C   UNL d   1       0.955  -1.177   0.000  0.00  0.00     0.016 A 
ATOM     18  C   UNL d   1       0.128  -1.177   0.000  0.00  0.00     0.001 A 
ATOM     19  C   UNL d   1       1.365  -1.892   0.000  0.00  0.00     0.002 C 
ATOM     20  C   UNL d   1      -0.285  -0.466   0.000  0.00  0.00     0.000 A 
ATOM     21  C   UNL d   1       0.128   0.247   0.000  0.00  0.00     0.002 A 
ATOM     22  C   UNL d   1      -1.110  -0.466   0.000  0.00  0.00     0.000 C 
ATOM     23  C   UNL d   1       0.955   0.247   0.000  0.00  0.00     0.018 A 
ENDBRANCH   3  16
TORSDOF 2
