REMARK  4 active torsions:
REMARK  status: ('A' for Active; 'I' for Inactive)
REMARK    1  A    between atoms: C_5  and  C_1 
REMARK    2  A    between atoms: O_9  and  C_5 
REMARK    3  A    between atoms: C_18  and  O_9 
REMARK       I    between atoms: C_11  and  N_14 
REMARK    4  A    between atoms: N_14  and  C_20 
ROOT
ATOM      1  C   UNL d   1       2.780  -1.879   0.000  0.00  0.00     0.127 A 
ATOM      2  C   UNL d   1       2.780  -2.700   0.000  0.00  0.00     0.305 A 
ATOM      3  O   UNL d   1       2.062  -3.105   0.000  0.00  0.00    -0.272 OA
ATOM      4  C   UNL d   1       2.066  -1.453   0.000  0.00  0.00     0.013 A 
ATOM      5  C   UNL d   1       1.349  -1.865   0.000  0.00  0.00     0.024 A 
ATOM      6  C   UNL d   1       1.341  -2.690   0.000  0.00  0.00     0.110 A 
ATOM      7  C   UNL d   1       0.628  -3.105   0.000  0.00  0.00     0.058 A 
ATOM      8  C   UNL d   1      -0.085  -2.690   0.000  0.00  0.00     0.015 A 
ATOM      9  C   UNL d   1       0.628  -1.453   0.000  0.00  0.00     0.009 A 
ATOM     10  O   UNL d   1       3.493  -3.111   0.000  0.00  0.00    -0.259 OA
ATOM     11  C   UNL d   1      -0.085  -1.861   0.000  0.00  0.00     0.035 A 
ATOM     12 BR   UNL d   1       0.628  -3.928   0.000  0.00  0.00    -0.047 Br
ATOM     13 BR   UNL d   1      -0.796  -1.447   0.000  0.00  0.00    -0.049 Br
ENDROOT
BRANCH   1  14
ATOM     14  C   UNL d   1       3.493  -1.463   0.000  0.00  0.00     0.305 C 
ATOM     15  O   UNL d   1       4.202  -1.879   0.000  0.00  0.00    -0.259 OA
BRANCH  14  16
ATOM     16  O   UNL d   1       3.501  -0.636   0.000  0.00  0.00    -0.273 OA
BRANCH  16  17
ATOM     17  C   UNL d   1       4.214  -0.228   0.000  0.00  0.00     0.103 A 
ATOM     18  C   UNL d   1       4.927  -0.640   0.000  0.00  0.00     0.026 A 
ATOM     19  C   UNL d   1       5.640  -0.240   0.000  0.00  0.00     0.021 A 
ATOM     20  C   UNL d   1       5.651   0.585   0.000  0.00  0.00     0.085 A 
ATOM     21  C   UNL d   1       4.939   1.010   0.000  0.00  0.00     0.021 A 
ATOM     22  C   UNL d   1       4.214   0.597   0.000  0.00  0.00     0.026 A 
BRANCH  20  23
ATOM     23  N   UNL d   1       6.366   0.998   0.000  0.00  0.00    -0.208 NA
ATOM     24  C   UNL d   1       7.079   0.577   0.000  0.00  0.00     0.279 C 
ATOM     25  O   UNL d   1       7.077  -0.252   0.000  0.00  0.00    -0.265 OA
ATOM     26  C   UNL d   1       7.802   0.985   0.000  0.00  0.00     0.068 C 
ENDBRANCH  20  23
ENDBRANCH  16  17
ENDBRANCH  14  16
ENDBRANCH   1  14
TORSDOF 4
