REMARK  4 active torsions:
REMARK  status: ('A' for Active; 'I' for Inactive)
REMARK    1  A    between atoms: N_8  and  C_7 
REMARK    2  A    between atoms: C_9  and  N_8 
REMARK    3  A    between atoms: O_15  and  C_10 
REMARK    4  A    between atoms: C_16  and  O_15 
ROOT
ATOM      1  C   UNL d   1       0.392   0.463   0.000  0.00  0.00     0.082 A 
ATOM      2  C   UNL d   1       2.031   0.598   0.000  0.00  0.00     0.100 A 
ATOM      3  C   UNL d   1       0.742   1.208   0.000  0.00  0.00     0.021 A 
ATOM      4  C   UNL d   1       0.855  -0.215   0.000  0.00  0.00     0.021 A 
ATOM      5  C   UNL d   1       1.565   1.277   0.000  0.00  0.00     0.026 A 
ATOM      6  C   UNL d   1       1.681  -0.149   0.000  0.00  0.00     0.026 A 
ENDROOT
BRANCH   1   7
ATOM      7  N   UNL d   1      -0.434   0.397   0.000  0.00  0.00    -0.245 NA
BRANCH   7   8
ATOM      8  C   UNL d   1      -0.872  -0.312   0.000  0.00  0.00     0.093 A 
ATOM      9  C   UNL d   1      -0.810  -1.139   0.000  0.00  0.00     0.118 A 
ATOM     10  S   UNL d   1      -1.565  -1.444   0.000  0.00  0.00     0.213 S 
ATOM     11  C   UNL d   1      -2.103  -0.818   0.000  0.00  0.00     0.100 A 
ATOM     12  O   UNL d   1      -2.340  -1.756   0.000  0.00  0.00    -0.217 OA
ATOM     13  O   UNL d   1      -1.074  -2.107   0.000  0.00  0.00    -0.217 OA
ATOM     14  C   UNL d   1      -1.672  -0.117   0.000  0.00  0.00     0.032 A 
ENDBRANCH   7   8
ENDBRANCH   1   7
BRANCH   2  15
ATOM     15  O   UNL d   1       2.857   0.664   0.000  0.00  0.00    -0.305 OA
BRANCH  15  16
ATOM     16  C   UNL d   1       3.207   1.410   0.000  0.00  0.00     0.123 C 
ATOM     17  C   UNL d   1       4.035   1.476   0.000  0.00  0.00     0.029 C 
ENDBRANCH  15  16
ENDBRANCH   2  15
TORSDOF 4
