REMARK  4 active torsions:
REMARK  status: ('A' for Active; 'I' for Inactive)
REMARK       I    between atoms: N_2  and  C_1 
REMARK    1  A    between atoms: C_4  and  C_1 
REMARK    2  A    between atoms: C_5  and  N_3 
REMARK    3  A    between atoms: O_21  and  C_8 
REMARK    4  A    between atoms: O_22  and  C_15 
ROOT
ATOM      1  C   UNL d   1       0.876   1.077   0.000  0.00  0.00     0.265 C 
ATOM      2  N   UNL d   1       1.586   0.664   0.000  0.00  0.00    -0.269 N 
ATOM      3  N   UNL d   1       3.001  -0.157   0.000  0.00  0.00    -0.301 N 
ATOM      4  C   UNL d   1       2.293   1.077   0.000  0.00  0.00     0.102 A 
ATOM      5  C   UNL d   1       1.579  -0.154   0.000  0.00  0.00     0.102 A 
ATOM      6  C   UNL d   1       2.289  -0.566   0.000  0.00  0.00     0.100 A 
ATOM      7  C   UNL d   1       3.006   0.659   0.000  0.00  0.00     0.100 A 
ATOM      8  O   UNL d   1       0.876   1.901   0.000  0.00  0.00    -0.267 OA
ENDROOT
BRANCH   1   9
ATOM      9  C   UNL d   1       0.162   0.664   0.000  0.00  0.00     0.059 A 
ATOM     10  C   UNL d   1       0.164  -0.164   0.000  0.00  0.00     0.031 A 
ATOM     11  C   UNL d   1      -0.559  -0.587   0.000  0.00  0.00     0.116 A 
ATOM     12  C   UNL d   1      -1.273  -0.179   0.000  0.00  0.00     0.116 A 
ATOM     13  C   UNL d   1      -1.278   0.659   0.000  0.00  0.00     0.026 A 
ATOM     14  C   UNL d   1      -0.564   1.086   0.000  0.00  0.00     0.007 A 
BRANCH  11  15
ATOM     15  O   UNL d   1      -0.551  -1.404   0.000  0.00  0.00    -0.326 OA
ATOM     16  C   UNL d   1       0.164  -1.817   0.000  0.00  0.00     0.181 C 
ENDBRANCH  11  15
BRANCH  12  17
ATOM     17  O   UNL d   1      -1.986  -0.592   0.000  0.00  0.00    -0.326 OA
ATOM     18  C   UNL d   1      -1.986  -1.417   0.000  0.00  0.00     0.181 C 
ENDBRANCH  12  17
ENDBRANCH   1   9
BRANCH   3  19
ATOM     19  C   UNL d   1       3.828  -0.154   0.000  0.00  0.00     0.064 A 
ATOM     20  C   UNL d   1       4.233   0.551   0.000  0.00  0.00     0.018 A 
ATOM     21  C   UNL d   1       5.055   0.559   0.000  0.00  0.00     0.001 A 
ATOM     22  C   UNL d   1       5.458   1.278   0.000  0.00  0.00     0.000 C 
ATOM     23  C   UNL d   1       5.471  -0.154   0.000  0.00  0.00     0.000 A 
ATOM     24  C   UNL d   1       5.058  -0.866   0.000  0.00  0.00     0.002 A 
ATOM     25  C   UNL d   1       6.298  -0.154   0.000  0.00  0.00     0.000 C 
ATOM     26  C   UNL d   1       4.233  -0.876   0.000  0.00  0.00     0.018 A 
ENDBRANCH   3  19
TORSDOF 4
