REMARK  5 active torsions:
REMARK  status: ('A' for Active; 'I' for Inactive)
REMARK    1  A    between atoms: C_2  and  C_1 
REMARK    2  A    between atoms: O_4  and  C_2 
REMARK    3  A    between atoms: C_9  and  O_4 
REMARK    4  A    between atoms: C_5  and  C_9 
REMARK    5  A    between atoms: C_12  and  C_5 
ROOT
ATOM      1  C   UNL d   1      -0.396   0.572   0.000  0.00  0.00     0.168 C 
ENDROOT
BRANCH   1   2
ATOM      2  C   UNL d   1      -0.225  -0.241   0.000  0.00  0.00     0.220 C 
ATOM      3  O   UNL d   1      -0.838  -0.789   0.000  0.00  0.00    -0.284 OA
BRANCH   2   4
ATOM      4  C   UNL d   1       0.562  -0.490   0.000  0.00  0.00     0.041 A 
ATOM      5  C   UNL d   1       0.728  -1.301   0.000  0.00  0.00     0.003 A 
ATOM      6  C   UNL d   1       1.510  -1.552   0.000  0.00  0.00     0.000 A 
ATOM      7  C   UNL d   1       2.122  -1.002   0.000  0.00  0.00     0.000 A 
ATOM      8  C   UNL d   1       1.947  -0.191   0.000  0.00  0.00     0.000 A 
ATOM      9  C   UNL d   1       1.164   0.059   0.000  0.00  0.00     0.003 A 
ENDBRANCH   2   4
ENDBRANCH   1   2
BRANCH   1  10
ATOM     10  O   UNL d   1       0.216   1.118   0.000  0.00  0.00    -0.267 OA
BRANCH  10  11
ATOM     11  C   UNL d   1       0.050   1.922   0.000  0.00  0.00     0.306 C 
ATOM     12  O   UNL d   1       0.661   2.472   0.000  0.00  0.00    -0.258 OA
BRANCH  11  13
ATOM     13  C   UNL d   1      -0.737   2.180   0.000  0.00  0.00     0.093 A 
ATOM     14  S   UNL d   1      -1.405   1.698   0.000  0.00  0.00    -0.081 SA
ATOM     15  C   UNL d   1      -2.072   2.180   0.000  0.00  0.00     0.036 A 
ATOM     16  C   UNL d   1      -1.818   2.967   0.000  0.00  0.00     0.008 A 
ATOM     17  C   UNL d   1      -0.996   2.967   0.000  0.00  0.00     0.012 A 
ENDBRANCH  11  13
ENDBRANCH  10  11
ENDBRANCH   1  10
TORSDOF 5
