REMARK  5 active torsions:
REMARK  status: ('A' for Active; 'I' for Inactive)
REMARK    1  A    between atoms: N_10  and  C_2 
REMARK    2  A    between atoms: C_7  and  C_5 
REMARK    3  A    between atoms: C_6  and  C_9 
REMARK    4  A    between atoms: C_8  and  C_7 
REMARK       I    between atoms: N_11  and  C_8 
REMARK    5  A    between atoms: C_14  and  N_11 
ROOT
ATOM      1  C   UNL d   1       0.544   0.085   0.000  0.00  0.00     0.280 C 
ATOM      2  N   UNL d   1      -0.171   0.493   0.000  0.00  0.00    -0.208 NA
ATOM      3  O   UNL d   1       0.544  -0.739   0.000  0.00  0.00    -0.265 OA
ENDROOT
BRANCH   1   4
ATOM      4  C   UNL d   1       1.257   0.496   0.000  0.00  0.00     0.074 C 
BRANCH   4   5
ATOM      5  C   UNL d   1       1.973   0.088   0.000  0.00  0.00     0.093 A 
ATOM      6  C   UNL d   1       2.060  -0.732   0.000  0.00  0.00     0.272 A 
ATOM      7  N   UNL d   1       2.862  -0.899   0.000  0.00  0.00    -0.251 N 
ATOM      8  O   UNL d   1       1.448  -1.285   0.000  0.00  0.00    -0.266 OA
ATOM      9  C   UNL d   1       3.273  -0.183   0.000  0.00  0.00     0.182 A 
ATOM     10  C   UNL d   1       3.204  -1.652   0.000  0.00  0.00     0.104 C 
ATOM     11  S   UNL d   1       2.721   0.425   0.000  0.00  0.00    -0.045 SA
BRANCH   9  12
ATOM     12  N   UNL d   1       4.093  -0.094   0.000  0.00  0.00    -0.219 NA
ATOM     13  C   UNL d   1       4.582  -0.760   0.000  0.00  0.00     0.122 C 
ENDBRANCH   9  12
ENDBRANCH   4   5
ENDBRANCH   1   4
BRANCH   2  14
ATOM     14  C   UNL d   1      -0.883   0.075   0.000  0.00  0.00     0.085 A 
ATOM     15  C   UNL d   1      -0.883  -0.753   0.000  0.00  0.00     0.023 A 
ATOM     16  C   UNL d   1      -1.599  -1.165   0.000  0.00  0.00     0.073 A 
ATOM     17  C   UNL d   1      -2.309  -0.753   0.000  0.00  0.00     0.004 A 
ATOM     18  C   UNL d   1      -2.309   0.075   0.000  0.00  0.00     0.002 A 
ATOM     19  C   UNL d   1      -1.599   0.489   0.000  0.00  0.00     0.019 A 
BRANCH  16  20
ATOM     20  C   UNL d   1      -1.599  -1.992   0.000  0.00  0.00     0.419 C 
ATOM     21  F   UNL d   1      -1.599  -2.742   0.000  0.00  0.00    -0.166 F 
ATOM     22  F   UNL d   1      -2.264  -2.538   0.000  0.00  0.00    -0.166 F 
ATOM     23  F   UNL d   1      -0.930  -2.538   0.000  0.00  0.00    -0.166 F 
ENDBRANCH  16  20
ENDBRANCH   2  14
TORSDOF 5
