REMARK  3 active torsions:
REMARK  status: ('A' for Active; 'I' for Inactive)
REMARK    1  A    between atoms: N_2  and  S_1 
REMARK    2  A    between atoms: C_5  and  S_1 
REMARK    3  A    between atoms: C_4  and  N_3 
ROOT
ATOM      1  N   UNL d   1       3.012  -0.112   0.000  0.00  0.00    -0.226 N 
ATOM      2  N   UNL d   1       1.362  -0.112   0.000  0.00  0.00    -0.301 N 
ATOM      3  C   UNL d   1       2.599  -0.821   0.000  0.00  0.00     0.111 A 
ATOM      4  C   UNL d   1       2.599   0.611   0.000  0.00  0.00     0.111 A 
ATOM      5  C   UNL d   1       1.774  -0.821   0.000  0.00  0.00     0.100 A 
ATOM      6  C   UNL d   1       1.774   0.611   0.000  0.00  0.00     0.100 A 
ENDROOT
BRANCH   1   7
ATOM      7  S   UNL d   1       3.837  -0.112   0.000  0.00  0.00     0.271 S 
ATOM      8  O   UNL d   1       3.837  -0.936   0.000  0.00  0.00    -0.200 OA
ATOM      9  O   UNL d   1       3.837   0.714   0.000  0.00  0.00    -0.200 OA
BRANCH   7  10
ATOM     10  C   UNL d   1       4.662  -0.112   0.000  0.00  0.00     0.104 A 
ATOM     11  C   UNL d   1       5.074  -0.821   0.000  0.00  0.00     0.015 A 
ATOM     12  C   UNL d   1       5.898  -0.821   0.000  0.00  0.00     0.030 A 
ATOM     13  C   UNL d   1       6.310  -0.112   0.000  0.00  0.00     0.140 A 
ATOM     14  C   UNL d   1       5.898   0.611   0.000  0.00  0.00     0.030 A 
ATOM     15  F   UNL d   1       7.135  -0.112   0.000  0.00  0.00    -0.204 F 
ATOM     16  C   UNL d   1       5.074   0.611   0.000  0.00  0.00     0.015 A 
ENDBRANCH   7  10
ENDBRANCH   1   7
BRANCH   2  17
ATOM     17  C   UNL d   1       0.541  -0.112   0.000  0.00  0.00     0.064 A 
ATOM     18  C   UNL d   1       0.128  -0.821   0.000  0.00  0.00     0.016 A 
ATOM     19  C   UNL d   1      -0.697  -0.821   0.000  0.00  0.00     0.001 A 
ATOM     20  C   UNL d   1       0.541  -1.538   0.000  0.00  0.00     0.002 C 
ATOM     21  C   UNL d   1      -1.107  -0.112   0.000  0.00  0.00     0.000 A 
ATOM     22  C   UNL d   1      -0.697   0.611   0.000  0.00  0.00     0.001 A 
ATOM     23  C   UNL d   1       0.128   0.611   0.000  0.00  0.00     0.016 A 
ATOM     24  C   UNL d   1       0.541   1.321   0.000  0.00  0.00     0.002 C 
ENDBRANCH   2  17
TORSDOF 3
