REMARK  5 active torsions:
REMARK  status: ('A' for Active; 'I' for Inactive)
REMARK    1  A    between atoms: C_7  and  C_1 
REMARK       I    between atoms: C_3  and  N_8 
REMARK       I    between atoms: N_10  and  C_3 
REMARK    2  A    between atoms: N_8  and  C_6 
REMARK    3  A    between atoms: O_14  and  C_7 
REMARK    4  A    between atoms: C_13  and  N_10 
REMARK    5  A    between atoms: C_23  and  O_14 
ROOT
ATOM      1  C   UNL d   1       7.244  -8.568   0.000  0.00  0.00     0.083 A 
ATOM      2  N   UNL d   1       7.950  -9.804   0.000  0.00  0.00    -0.244 NA
ATOM      3  C   UNL d   1       7.244  -9.388   0.000  0.00  0.00     0.087 A 
ATOM      4  C   UNL d   1       7.950  -8.158   0.000  0.00  0.00     0.028 A 
ATOM      5  C   UNL d   1       8.669  -8.568   0.000  0.00  0.00     0.104 A 
ATOM      6  C   UNL d   1       8.669  -9.388   0.000  0.00  0.00     0.099 A 
ATOM      7  C   UNL d   1       6.525  -9.804   0.000  0.00  0.00     0.021 C 
ATOM      8  C   UNL d   1       9.388  -9.804   0.000  0.00  0.00     0.022 C 
ENDROOT
BRANCH   5   9
ATOM      9  N   UNL d   1       9.388  -8.152   0.000  0.00  0.00    -0.189 NA
ATOM     10  C   UNL d   1      10.100  -8.556   0.000  0.00  0.00     0.369 C 
ATOM     11  N   UNL d   1      10.819  -8.152   0.000  0.00  0.00    -0.191 NA
ATOM     12  O   UNL d   1      10.106  -9.388   0.000  0.00  0.00    -0.242 OA
BRANCH  11  13
ATOM     13  C   UNL d   1      11.525  -8.556   0.000  0.00  0.00     0.086 A 
ATOM     14  C   UNL d   1      12.237  -8.139   0.000  0.00  0.00     0.020 A 
ATOM     15  C   UNL d   1      12.956  -8.556   0.000  0.00  0.00     0.008 A 
ATOM     16  C   UNL d   1      12.956  -9.381   0.000  0.00  0.00     0.035 A 
ATOM     17  C   UNL d   1      12.244  -9.797   0.000  0.00  0.00     0.008 A 
ATOM     18 BR   UNL d   1      13.662  -9.785   0.000  0.00  0.00    -0.049 Br
ATOM     19  C   UNL d   1      11.525  -9.388   0.000  0.00  0.00     0.020 A 
ENDBRANCH  11  13
ENDBRANCH   5   9
BRANCH   1  20
ATOM     20  C   UNL d   1       6.532  -8.158   0.000  0.00  0.00     0.302 C 
ATOM     21  O   UNL d   1       6.532  -7.345   0.000  0.00  0.00    -0.259 OA
BRANCH  20  22
ATOM     22  O   UNL d   1       5.832  -8.568   0.000  0.00  0.00    -0.271 OA
BRANCH  22  23
ATOM     23  C   UNL d   1       5.126  -8.158   0.000  0.00  0.00     0.126 C 
ATOM     24  C   UNL d   1       4.413  -8.568   0.000  0.00  0.00     0.029 C 
ENDBRANCH  22  23
ENDBRANCH  20  22
ENDBRANCH   1  20
TORSDOF 5
