REMARK  2 active torsions:
REMARK  status: ('A' for Active; 'I' for Inactive)
REMARK    1  A    between atoms: C_12  and  C_9 
REMARK    2  A    between atoms: N_15  and  C_12 
ROOT
ATOM      1  C   UNL d   1      -0.464   0.335   0.000  0.00  0.00     0.176 A 
ATOM      2  C   UNL d   1      -0.464   1.160   0.000  0.00  0.00     0.174 A 
ATOM      3  N   UNL d   1      -1.194  -0.082   0.000  0.00  0.00    -0.240 N 
ATOM      4  N   UNL d   1      -1.903   1.160   0.000  0.00  0.00    -0.223 N 
ATOM      5  C   UNL d   1      -1.903   0.322   0.000  0.00  0.00     0.343 A 
ATOM      6  C   UNL d   1      -1.194   1.581   0.000  0.00  0.00     0.289 A 
ATOM      7  N   UNL d   1       0.236  -0.090   0.000  0.00  0.00    -0.206 NA
ATOM      8  N   UNL d   1       0.967   1.156   0.000  0.00  0.00    -0.217 NA
ATOM      9  C   UNL d   1       0.954   0.318   0.000  0.00  0.00     0.182 A 
ATOM     10  O   UNL d   1      -2.625  -0.090   0.000  0.00  0.00    -0.245 OA
ATOM     11  O   UNL d   1      -1.194   2.410   0.000  0.00  0.00    -0.265 OA
ATOM     12  C   UNL d   1      -1.194  -0.915   0.000  0.00  0.00     0.105 C 
ATOM     13  C   UNL d   1      -2.664   1.594   0.000  0.00  0.00     0.107 C 
ENDROOT
BRANCH   9  14
ATOM     14  C   UNL d   1       1.525  -0.262   0.000  0.00  0.00     0.120 C 
BRANCH  14  15
ATOM     15  N   UNL d   1       2.325  -0.262   0.000  0.00  0.00    -0.297 N 
ATOM     16  C   UNL d   1       2.733  -0.958   0.000  0.00  0.00     0.100 C 
ATOM     17  C   UNL d   1       2.724   0.438   0.000  0.00  0.00     0.100 C 
ENDBRANCH  14  15
ENDBRANCH   9  14
TORSDOF 2
