REMARK  6 active torsions:
REMARK  status: ('A' for Active; 'I' for Inactive)
REMARK    1  A    between atoms: C_6  and  C_1 
REMARK    2  A    between atoms: N_8  and  C_5 
REMARK    3  A    between atoms: O_13  and  C_6 
REMARK       I    between atoms: C_7  and  N_8 
REMARK    4  A    between atoms: O_12  and  C_7 
REMARK    5  A    between atoms: C_16  and  O_12 
REMARK    6  A    between atoms: C_17  and  O_13 
ROOT
ATOM      1  C   UNL d   1      -1.279   0.959   0.000  0.00  0.00     0.083 A 
ATOM      2  N   UNL d   1      -0.556  -0.275   0.000  0.00  0.00    -0.244 NA
ATOM      3  C   UNL d   1      -1.279   0.147   0.000  0.00  0.00     0.087 A 
ATOM      4  C   UNL d   1      -0.556   1.381   0.000  0.00  0.00     0.028 A 
ATOM      5  C   UNL d   1       0.160   0.972   0.000  0.00  0.00     0.104 A 
ATOM      6  C   UNL d   1       0.160   0.147   0.000  0.00  0.00     0.099 A 
ATOM      7  C   UNL d   1      -1.995  -0.275   0.000  0.00  0.00     0.021 C 
ATOM      8  C   UNL d   1       0.889  -0.275   0.000  0.00  0.00     0.022 C 
ENDROOT
BRANCH   5   9
ATOM      9  N   UNL d   1       0.883   1.394   0.000  0.00  0.00    -0.184 NA
ATOM     10  C   UNL d   1       1.599   0.979   0.000  0.00  0.00     0.392 C 
ATOM     11  O   UNL d   1       1.612   0.147   0.000  0.00  0.00    -0.236 OA
BRANCH  10  12
ATOM     12  O   UNL d   1       2.321   1.394   0.000  0.00  0.00    -0.256 OA
BRANCH  12  13
ATOM     13  C   UNL d   1       3.038   0.991   0.000  0.00  0.00     0.128 C 
ATOM     14  C   UNL d   1       3.748   1.401   0.000  0.00  0.00     0.029 C 
ENDBRANCH  12  13
ENDBRANCH  10  12
ENDBRANCH   5   9
BRANCH   1  15
ATOM     15  C   UNL d   1      -1.989   1.375   0.000  0.00  0.00     0.302 C 
ATOM     16  O   UNL d   1      -1.989   2.200   0.000  0.00  0.00    -0.259 OA
BRANCH  15  17
ATOM     17  O   UNL d   1      -2.699   0.959   0.000  0.00  0.00    -0.271 OA
BRANCH  17  18
ATOM     18  C   UNL d   1      -3.409   1.375   0.000  0.00  0.00     0.126 C 
ATOM     19  C   UNL d   1      -4.119   0.959   0.000  0.00  0.00     0.029 C 
ENDBRANCH  17  18
ENDBRANCH  15  17
ENDBRANCH   1  15
TORSDOF 6
