REMARK  8 active torsions:
REMARK  status: ('A' for Active; 'I' for Inactive)
REMARK    1  A    between atoms: C_2  and  C_1 
REMARK    2  A    between atoms: C_12  and  C_5 
REMARK    3  A    between atoms: C_14  and  C_6 
REMARK    4  A    between atoms: O_20  and  C_13 
REMARK    5  A    between atoms: O_21  and  C_14 
REMARK    6  A    between atoms: O_23  and  C_15 
REMARK    7  A    between atoms: O_22  and  C_16 
REMARK    8  A    between atoms: C_26  and  O_21 
ROOT
ATOM      1  C   UNL d   1       7.833  -3.077   0.000  0.00  0.00     0.206 A 
ATOM      2  O   UNL d   1       8.623  -3.422   0.000  0.00  0.00    -0.268 OA
ATOM      3  N   UNL d   1       7.921  -2.217   0.000  0.00  0.00    -0.121 NA
ATOM      4  C   UNL d   1       9.202  -2.779   0.000  0.00  0.00     0.205 A 
ATOM      5  N   UNL d   1       8.763  -2.024   0.000  0.00  0.00    -0.121 NA
ENDROOT
BRANCH   1   6
ATOM      6  C   UNL d   1       7.131  -3.498   0.000  0.00  0.00     0.061 A 
ATOM      7  C   UNL d   1       6.423  -3.095   0.000  0.00  0.00     0.012 A 
ATOM      8  C   UNL d   1       5.721  -3.498   0.000  0.00  0.00     0.081 A 
ATOM      9  C   UNL d   1       5.721  -4.317   0.000  0.00  0.00     0.086 A 
ATOM     10  N   UNL d   1       6.423  -4.721   0.000  0.00  0.00    -0.245 NA
ATOM     11  C   UNL d   1       5.019  -4.721   0.000  0.00  0.00     0.021 C 
ATOM     12  C   UNL d   1       7.131  -4.317   0.000  0.00  0.00     0.085 A 
ATOM     13  C   UNL d   1       7.833  -4.727   0.000  0.00  0.00     0.021 C 
BRANCH   8  14
ATOM     14  C   UNL d   1       5.025  -3.095   0.000  0.00  0.00     0.302 C 
ATOM     15  O   UNL d   1       5.025  -2.281   0.000  0.00  0.00    -0.259 OA
BRANCH  14  16
ATOM     16  O   UNL d   1       4.317  -3.492   0.000  0.00  0.00    -0.271 OA
BRANCH  16  17
ATOM     17  C   UNL d   1       3.621  -3.077   0.000  0.00  0.00     0.126 C 
ATOM     18  C   UNL d   1       2.901  -3.481   0.000  0.00  0.00     0.029 C 
ENDBRANCH  16  17
ENDBRANCH  14  16
ENDBRANCH   8  14
ENDBRANCH   1   6
BRANCH   4  19
ATOM     19  C   UNL d   1      10.073  -2.866   0.000  0.00  0.00     0.047 A 
ATOM     20  C   UNL d   1      10.570  -2.164   0.000  0.00  0.00     0.030 A 
ATOM     21  C   UNL d   1      11.430  -2.246   0.000  0.00  0.00     0.118 A 
ATOM     22  C   UNL d   1      11.793  -3.042   0.000  0.00  0.00     0.138 A 
ATOM     23  C   UNL d   1      11.284  -3.744   0.000  0.00  0.00     0.118 A 
ATOM     24  C   UNL d   1      10.424  -3.656   0.000  0.00  0.00     0.030 A 
BRANCH  21  25
ATOM     25  O   UNL d   1      12.185  -1.808   0.000  0.00  0.00    -0.326 OA
ATOM     26  C   UNL d   1      12.940  -2.235   0.000  0.00  0.00     0.181 C 
ENDBRANCH  21  25
BRANCH  22  27
ATOM     27  O   UNL d   1      12.653  -3.124   0.000  0.00  0.00    -0.324 OA
ATOM     28  C   UNL d   1      13.010  -3.913   0.000  0.00  0.00     0.182 C 
ENDBRANCH  22  27
BRANCH  23  29
ATOM     29  O   UNL d   1      11.641  -4.534   0.000  0.00  0.00    -0.326 OA
ATOM     30  C   UNL d   1      12.501  -4.621   0.000  0.00  0.00     0.181 C 
ENDBRANCH  23  29
ENDBRANCH   4  19
TORSDOF 8
