REMARK  4 active torsions:
REMARK  status: ('A' for Active; 'I' for Inactive)
REMARK    1  A    between atoms: C_8  and  N_1 
REMARK    2  A    between atoms: C_6  and  C_5 
REMARK    3  A    between atoms: C_7  and  C_6 
REMARK       I    between atoms: N_10  and  C_7 
REMARK    4  A    between atoms: C_13  and  N_10 
ROOT
ATOM      1  N   UNL d   1      -0.347  -1.821   0.000  0.00  0.00    -0.236 N 
ATOM      2  C   UNL d   1       0.323  -2.301   0.000  0.00  0.00     0.298 A 
ATOM      3  C   UNL d   1      -1.009  -2.301   0.000  0.00  0.00     0.274 A 
ATOM      4  S   UNL d   1       0.067  -3.087   0.000  0.00  0.00    -0.022 SA
ATOM      5  C   UNL d   1      -0.759  -3.087   0.000  0.00  0.00     0.095 A 
ATOM      6  O   UNL d   1       1.110  -2.050   0.000  0.00  0.00    -0.259 OA
ATOM      7  O   UNL d   1      -1.794  -2.050   0.000  0.00  0.00    -0.266 OA
ENDROOT
BRANCH   5   8
ATOM      8  C   UNL d   1      -1.244  -3.756   0.000  0.00  0.00     0.074 C 
BRANCH   8   9
ATOM      9  C   UNL d   1      -2.058  -3.668   0.000  0.00  0.00     0.280 C 
ATOM     10  N   UNL d   1      -2.546  -4.333   0.000  0.00  0.00    -0.208 NA
ATOM     11  O   UNL d   1      -2.391  -2.912   0.000  0.00  0.00    -0.265 OA
BRANCH  10  12
ATOM     12  C   UNL d   1      -3.366  -4.247   0.000  0.00  0.00     0.085 A 
ATOM     13  C   UNL d   1      -3.703  -3.494   0.000  0.00  0.00     0.019 A 
ATOM     14  C   UNL d   1      -4.525  -3.408   0.000  0.00  0.00     0.002 A 
ATOM     15  C   UNL d   1      -5.014  -4.071   0.000  0.00  0.00     0.000 A 
ATOM     16  C   UNL d   1      -4.662  -4.830   0.000  0.00  0.00     0.002 A 
ATOM     17  C   UNL d   1      -3.852  -4.909   0.000  0.00  0.00     0.019 A 
ENDBRANCH  10  12
ENDBRANCH   8   9
ENDBRANCH   5   8
BRANCH   1  18
ATOM     18  C   UNL d   1      -0.351  -0.996   0.000  0.00  0.00     0.070 A 
ATOM     19  C   UNL d   1       0.362  -0.577   0.000  0.00  0.00     0.018 A 
ATOM     20  C   UNL d   1       0.352   0.247   0.000  0.00  0.00     0.002 A 
ATOM     21  C   UNL d   1      -0.359   0.653   0.000  0.00  0.00     0.000 A 
ATOM     22  C   UNL d   1      -1.076   0.234   0.000  0.00  0.00     0.002 A 
ATOM     23  C   UNL d   1      -1.069  -0.589   0.000  0.00  0.00     0.018 A 
ENDBRANCH   1  18
TORSDOF 4
