REMARK  3 active torsions:
REMARK  status: ('A' for Active; 'I' for Inactive)
REMARK    1  A    between atoms: N_2  and  S_1 
REMARK    2  A    between atoms: C_5  and  S_1 
REMARK    3  A    between atoms: C_4  and  C_3 
ROOT
ATOM      1  N   UNL d   1       4.415  -2.111   0.000  0.00  0.00    -0.223 N 
ATOM      2  C   UNL d   1       4.160  -2.901   0.000  0.00  0.00     0.127 A 
ATOM      3  S   UNL d   1       3.335  -2.901   0.000  0.00  0.00    -0.065 SA
ATOM      4  C   UNL d   1       3.747  -1.626   0.000  0.00  0.00     0.099 A 
ATOM      5  C   UNL d   1       3.080  -2.111   0.000  0.00  0.00     0.057 A 
ENDROOT
BRANCH   1   6
ATOM      6  S   UNL d   1       5.205  -1.853   0.000  0.00  0.00     0.272 S 
ATOM      7  O   UNL d   1       5.376  -1.054   0.000  0.00  0.00    -0.200 OA
ATOM      8  O   UNL d   1       5.810  -2.412   0.000  0.00  0.00    -0.200 OA
BRANCH   6   9
ATOM      9  C   UNL d   1       6.000  -1.639   0.000  0.00  0.00     0.104 A 
ATOM     10  C   UNL d   1       6.587  -2.215   0.000  0.00  0.00     0.014 A 
ATOM     11  C   UNL d   1       7.379  -1.999   0.000  0.00  0.00     0.012 A 
ATOM     12  C   UNL d   1       7.589  -1.198   0.000  0.00  0.00     0.058 A 
ATOM     13  C   UNL d   1       6.993  -0.616   0.000  0.00  0.00     0.012 A 
ATOM     14 CL   UNL d   1       8.381  -0.978   0.000  0.00  0.00    -0.082 Cl
ATOM     15  C   UNL d   1       6.201  -0.840   0.000  0.00  0.00     0.014 A 
ENDBRANCH   6   9
ENDBRANCH   1   6
BRANCH   2  16
ATOM     16  C   UNL d   1       4.642  -3.564   0.000  0.00  0.00     0.123 A 
ATOM     17  O   UNL d   1       4.389  -4.350   0.000  0.00  0.00    -0.303 OA
ATOM     18  C   UNL d   1       5.055  -4.834   0.000  0.00  0.00     0.123 A 
ATOM     19  C   UNL d   1       5.725  -4.350   0.000  0.00  0.00     0.029 A 
ATOM     20  C   UNL d   1       5.467  -3.564   0.000  0.00  0.00     0.029 A 
ENDBRANCH   2  16
TORSDOF 3
