REMARK  5 active torsions:
REMARK  status: ('A' for Active; 'I' for Inactive)
REMARK    1  A    between atoms: C_12  and  N_1 
REMARK    2  A    between atoms: C_6  and  C_5 
REMARK    3  A    between atoms: C_7  and  C_6 
REMARK       I    between atoms: N_9  and  C_7 
REMARK    4  A    between atoms: C_13  and  N_9 
REMARK    5  A    between atoms: C_16  and  C_12 
ROOT
ATOM      1  N   UNL d   1       4.044  -0.302   0.000  0.00  0.00    -0.235 N 
ATOM      2  C   UNL d   1       4.718  -0.780   0.000  0.00  0.00     0.298 A 
ATOM      3  C   UNL d   1       3.382  -0.780   0.000  0.00  0.00     0.274 A 
ATOM      4  S   UNL d   1       4.464  -1.567   0.000  0.00  0.00    -0.022 SA
ATOM      5  C   UNL d   1       3.640  -1.567   0.000  0.00  0.00     0.095 A 
ATOM      6  O   UNL d   1       5.505  -0.530   0.000  0.00  0.00    -0.259 OA
ATOM      7  O   UNL d   1       2.603  -0.530   0.000  0.00  0.00    -0.266 OA
ENDROOT
BRANCH   5   8
ATOM      8  C   UNL d   1       3.154  -2.238   0.000  0.00  0.00     0.074 C 
BRANCH   8   9
ATOM      9  C   UNL d   1       2.333  -2.151   0.000  0.00  0.00     0.280 C 
ATOM     10  N   UNL d   1       1.847  -2.817   0.000  0.00  0.00    -0.208 NA
ATOM     11  O   UNL d   1       1.997  -1.393   0.000  0.00  0.00    -0.265 OA
BRANCH  10  12
ATOM     12  C   UNL d   1       1.029  -2.728   0.000  0.00  0.00     0.085 A 
ATOM     13  C   UNL d   1       0.694  -1.976   0.000  0.00  0.00     0.019 A 
ATOM     14  C   UNL d   1      -0.128  -1.888   0.000  0.00  0.00     0.002 A 
ATOM     15  C   UNL d   1      -0.614  -2.555   0.000  0.00  0.00     0.000 A 
ATOM     16  C   UNL d   1      -0.275  -3.312   0.000  0.00  0.00     0.002 A 
ATOM     17  C   UNL d   1       0.543  -3.391   0.000  0.00  0.00     0.019 A 
ENDBRANCH  10  12
ENDBRANCH   8   9
ENDBRANCH   5   8
BRANCH   1  18
ATOM     18  C   UNL d   1       4.044   0.520   0.000  0.00  0.00     0.086 C 
BRANCH  18  19
ATOM     19  C   UNL d   1       4.750   0.942   0.000  0.00  0.00     0.019 C 
ATOM     20  C   UNL d   1       4.741   1.763   0.000  0.00  0.00     0.002 C 
ENDBRANCH  18  19
ENDBRANCH   1  18
TORSDOF 5
