REMARK  3 active torsions:
REMARK  status: ('A' for Active; 'I' for Inactive)
REMARK    1  A    between atoms: N_7  and  S_1 
REMARK    2  A    between atoms: C_3  and  C_8 
REMARK    3  A    between atoms: C_13  and  N_7 
ROOT
ATOM      1  C   UNL d   1      -0.419  -0.587   0.000  0.00  0.00     0.018 A 
ATOM      2  C   UNL d   1      -0.595   0.212   0.000  0.00  0.00     0.003 A 
ATOM      3  C   UNL d   1      -1.028  -1.146   0.000  0.00  0.00     0.003 A 
ATOM      4  C   UNL d   1      -1.985  -0.078   0.000  0.00  0.00     0.093 A 
ATOM      5  C   UNL d   1      -1.377   0.469   0.000  0.00  0.00     0.020 A 
ATOM      6  C   UNL d   1      -1.809  -0.893   0.000  0.00  0.00     0.020 A 
ENDROOT
BRANCH   1   7
ATOM      7  C   UNL d   1       0.364  -0.846   0.000  0.00  0.00     0.088 A 
ATOM      8  N   UNL d   1       1.032  -0.364   0.000  0.00  0.00    -0.239 NA
ATOM      9  C   UNL d   1       1.694  -0.846   0.000  0.00  0.00     0.111 A 
ATOM     10  C   UNL d   1       2.486  -0.587   0.000  0.00  0.00     0.028 C 
ATOM     11  S   UNL d   1       1.441  -1.632   0.000  0.00  0.00    -0.066 SA
ATOM     12  C   UNL d   1       0.613  -1.632   0.000  0.00  0.00     0.056 A 
ENDBRANCH   1   7
BRANCH   4  13
ATOM     13  N   UNL d   1      -2.773   0.172   0.000  0.00  0.00    -0.162 NA
BRANCH  13  14
ATOM     14  S   UNL d   1      -3.356  -0.414   0.000  0.00  0.00     0.266 S 
ATOM     15  O   UNL d   1      -2.743  -1.035   0.000  0.00  0.00    -0.203 OA
ATOM     16  O   UNL d   1      -4.028   0.382   0.000  0.00  0.00    -0.203 OA
ATOM     17  C   UNL d   1      -4.261  -1.060   0.000  0.00  0.00     0.165 C 
ENDBRANCH  13  14
ENDBRANCH   4  13
TORSDOF 3
