REMARK  6 active torsions:
REMARK  status: ('A' for Active; 'I' for Inactive)
REMARK    1  A    between atoms: N_2  and  S_1 
REMARK    2  A    between atoms: C_8  and  S_1 
REMARK    3  A    between atoms: C_4  and  C_3 
REMARK    4  A    between atoms: O_18  and  C_5 
REMARK    5  A    between atoms: O_20  and  C_12 
REMARK    6  A    between atoms: O_21  and  C_13 
ROOT
ATOM      1  N   UNL d   1      -1.435  -0.588   0.000  0.00  0.00    -0.127 NA
ATOM      2  C   UNL d   1      -1.435  -1.410   0.000  0.00  0.00     0.086 A 
ATOM      3  S   UNL d   1      -2.145  -1.821   0.000  0.00  0.00    -0.073 SA
ATOM      4  C   UNL d   1      -2.858  -0.579   0.000  0.00  0.00     0.074 A 
ATOM      5  C   UNL d   1      -2.858  -1.401   0.000  0.00  0.00     0.050 A 
ENDROOT
BRANCH   2   6
ATOM      6  C   UNL d   1      -0.722  -1.827   0.000  0.00  0.00     0.042 A 
ATOM      7  C   UNL d   1      -0.736  -2.649   0.000  0.00  0.00     0.098 A 
ATOM      8  C   UNL d   1      -0.023  -3.058   0.000  0.00  0.00     0.050 A 
ATOM      9  C   UNL d   1       0.690  -2.661   0.000  0.00  0.00     0.118 A 
ATOM     10  C   UNL d   1       0.699  -1.836   0.000  0.00  0.00     0.117 A 
ATOM     11  C   UNL d   1      -0.009  -1.414   0.000  0.00  0.00     0.030 A 
BRANCH   7  12
ATOM     12  O   UNL d   1      -1.449  -3.058   0.000  0.00  0.00    -0.328 OA
ATOM     13  C   UNL d   1      -1.449  -3.882   0.000  0.00  0.00     0.181 C 
ENDBRANCH   7  12
BRANCH   9  14
ATOM     14  O   UNL d   1       1.396  -3.073   0.000  0.00  0.00    -0.326 OA
ATOM     15  C   UNL d   1       2.114  -2.670   0.000  0.00  0.00     0.181 C 
ENDBRANCH   9  14
BRANCH  10  16
ATOM     16  O   UNL d   1       1.414  -1.429   0.000  0.00  0.00    -0.326 OA
ATOM     17  C   UNL d   1       1.423  -0.607   0.000  0.00  0.00     0.181 C 
ENDBRANCH  10  16
ENDBRANCH   2   6
BRANCH   1  18
ATOM     18  S   UNL d   1      -1.666   0.297   0.000  0.00  0.00     0.255 S 
ATOM     19  O   UNL d   1      -2.123   1.078   0.000  0.00  0.00    -0.205 OA
ATOM     20  O   UNL d   1      -2.543   0.066   0.000  0.00  0.00    -0.205 OA
BRANCH  18  21
ATOM     21  C   UNL d   1      -0.915   0.791   0.000  0.00  0.00     0.099 A 
ATOM     22  C   UNL d   1      -0.105   0.393   0.000  0.00  0.00     0.015 A 
ATOM     23  C   UNL d   1       0.643   0.878   0.000  0.00  0.00     0.030 A 
ATOM     24  C   UNL d   1       0.592   1.775   0.000  0.00  0.00     0.140 A 
ATOM     25  C   UNL d   1      -0.215   2.185   0.000  0.00  0.00     0.030 A 
ATOM     26  F   UNL d   1       1.347   2.282   0.000  0.00  0.00    -0.204 F 
ATOM     27  C   UNL d   1      -0.976   1.693   0.000  0.00  0.00     0.015 A 
ENDBRANCH  18  21
ENDBRANCH   1  18
TORSDOF 6
