REMARK  5 active torsions:
REMARK  status: ('A' for Active; 'I' for Inactive)
REMARK    1  A    between atoms: S_3  and  N_1 
REMARK    2  A    between atoms: C_7  and  C_4 
REMARK    3  A    between atoms: C_8  and  C_5 
REMARK    4  A    between atoms: O_21  and  C_13 
REMARK    5  A    between atoms: O_22  and  C_15 
ROOT
ATOM      1  N   UNL d   1       3.351   1.159   0.000  0.00  0.00    -0.155 N 
ATOM      2  N   UNL d   1       2.554   0.995   0.000  0.00  0.00    -0.155 NA
ATOM      3  C   UNL d   1       2.143   1.708   0.000  0.00  0.00     0.110 A 
ATOM      4  C   UNL d   1       3.435   1.979   0.000  0.00  0.00     0.096 A 
ATOM      5  C   UNL d   1       2.690   2.311   0.000  0.00  0.00     0.041 A 
ENDROOT
BRANCH   4   6
ATOM      6  C   UNL d   1       4.147   2.389   0.000  0.00  0.00     0.021 A 
ATOM      7  C   UNL d   1       4.147   3.214   0.000  0.00  0.00     0.028 A 
ATOM      8  C   UNL d   1       4.864   3.627   0.000  0.00  0.00     0.116 A 
ATOM      9  C   UNL d   1       5.576   3.214   0.000  0.00  0.00     0.116 A 
ATOM     10  C   UNL d   1       5.576   2.389   0.000  0.00  0.00     0.026 A 
ATOM     11  C   UNL d   1       4.864   1.979   0.000  0.00  0.00     0.004 A 
BRANCH   8  12
ATOM     12  O   UNL d   1       4.864   4.452   0.000  0.00  0.00    -0.326 OA
ATOM     13  C   UNL d   1       5.576   4.864   0.000  0.00  0.00     0.181 C 
ENDBRANCH   8  12
BRANCH   9  14
ATOM     14  O   UNL d   1       6.293   3.627   0.000  0.00  0.00    -0.326 OA
ATOM     15  C   UNL d   1       7.009   3.214   0.000  0.00  0.00     0.181 C 
ENDBRANCH   9  14
ENDBRANCH   4   6
BRANCH   1  16
ATOM     16  S   UNL d   1       3.955   0.611   0.000  0.00  0.00     0.266 S 
ATOM     17  O   UNL d   1       4.589   0.058   0.000  0.00  0.00    -0.203 OA
ATOM     18  O   UNL d   1       3.406   0.000   0.000  0.00  0.00    -0.203 OA
ATOM     19  C   UNL d   1       4.503   1.214   0.000  0.00  0.00     0.165 C 
ENDBRANCH   1  16
BRANCH   3  20
ATOM     20  C   UNL d   1       1.316   1.787   0.000  0.00  0.00     0.049 A 
ATOM     21  S   UNL d   1       0.905   2.499   0.000  0.00  0.00    -0.085 SA
ATOM     22  C   UNL d   1       0.079   2.340   0.000  0.00  0.00     0.035 A 
ATOM     23  C   UNL d   1       0.000   1.517   0.000  0.00  0.00     0.007 A 
ATOM     24  C   UNL d   1       0.768   1.186   0.000  0.00  0.00     0.009 A 
ENDBRANCH   3  20
TORSDOF 5
