REMARK  3 active torsions:
REMARK  status: ('A' for Active; 'I' for Inactive)
REMARK    1  A    between atoms: S_3  and  N_1 
REMARK    2  A    between atoms: C_7  and  C_4 
REMARK    3  A    between atoms: C_16  and  C_5 
ROOT
ATOM      1  N   UNL d   1       2.888   1.573   0.000  0.00  0.00    -0.155 N 
ATOM      2  N   UNL d   1       2.087   1.817   0.000  0.00  0.00    -0.156 NA
ATOM      3  C   UNL d   1       3.356   2.229   0.000  0.00  0.00     0.096 A 
ATOM      4  C   UNL d   1       2.087   2.640   0.000  0.00  0.00     0.103 A 
ATOM      5  C   UNL d   1       2.888   2.888   0.000  0.00  0.00     0.041 A 
ENDROOT
BRANCH   3   6
ATOM      6  C   UNL d   1       4.181   2.229   0.000  0.00  0.00     0.021 A 
ATOM      7  C   UNL d   1       4.620   2.944   0.000  0.00  0.00     0.028 A 
ATOM      8  C   UNL d   1       5.447   2.944   0.000  0.00  0.00     0.119 A 
ATOM      9  O   UNL d   1       5.968   3.546   0.000  0.00  0.00    -0.300 OA
ATOM     10  C   UNL d   1       5.831   2.229   0.000  0.00  0.00     0.119 A 
ATOM     11  C   UNL d   1       6.740   3.214   0.000  0.00  0.00     0.304 A 
ATOM     12  O   UNL d   1       6.630   2.387   0.000  0.00  0.00    -0.300 OA
ATOM     13  C   UNL d   1       5.447   1.520   0.000  0.00  0.00     0.026 A 
ATOM     14  C   UNL d   1       4.620   1.520   0.000  0.00  0.00     0.004 A 
ENDBRANCH   3   6
BRANCH   1  15
ATOM     15  S   UNL d   1       3.135   0.772   0.000  0.00  0.00     0.266 S 
ATOM     16  O   UNL d   1       3.904   1.048   0.000  0.00  0.00    -0.203 OA
ATOM     17  O   UNL d   1       2.338   0.525   0.000  0.00  0.00    -0.203 OA
ATOM     18  C   UNL d   1       3.383   0.000   0.000  0.00  0.00     0.165 C 
ENDBRANCH   1  15
BRANCH   4  19
ATOM     19  C   UNL d   1       1.429   3.135   0.000  0.00  0.00     0.019 A 
ATOM     20  C   UNL d   1       0.686   2.751   0.000  0.00  0.00     0.002 A 
ATOM     21  C   UNL d   1       0.000   3.246   0.000  0.00  0.00     0.000 A 
ATOM     22  C   UNL d   1       0.081   4.071   0.000  0.00  0.00     0.000 A 
ATOM     23  C   UNL d   1       0.823   4.399   0.000  0.00  0.00     0.000 A 
ATOM     24  C   UNL d   1       1.482   3.930   0.000  0.00  0.00     0.002 A 
ENDBRANCH   4  19
TORSDOF 3
