REMARK  4 active torsions:
REMARK  status: ('A' for Active; 'I' for Inactive)
REMARK    1  A    between atoms: N_2  and  S_1 
REMARK    2  A    between atoms: C_8  and  S_1 
REMARK    3  A    between atoms: C_4  and  C_3 
REMARK       I    between atoms: N_5  and  C_4 
REMARK    4  A    between atoms: C_6  and  N_5 
ROOT
ATOM      1  N   UNL d   1       1.567   0.496   0.000  0.00  0.00    -0.226 N 
ATOM      2  C   UNL d   1       2.242   0.975   0.000  0.00  0.00     0.133 A 
ATOM      3  C   UNL d   1       0.904   0.983   0.000  0.00  0.00     0.092 A 
ATOM      4  C   UNL d   1       1.992   1.762   0.000  0.00  0.00     0.025 A 
ATOM      5  C   UNL d   1       1.167   1.762   0.000  0.00  0.00     0.021 A 
ENDROOT
BRANCH   1   6
ATOM      6  S   UNL d   1       1.629  -0.329   0.000  0.00  0.00     0.271 S 
ATOM      7  O   UNL d   1       2.454  -0.317   0.000  0.00  0.00    -0.200 OA
ATOM      8  O   UNL d   1       0.804  -0.329   0.000  0.00  0.00    -0.200 OA
BRANCH   6   9
ATOM      9  C   UNL d   1       1.637  -1.150   0.000  0.00  0.00     0.104 A 
ATOM     10  C   UNL d   1       0.925  -1.567   0.000  0.00  0.00     0.013 A 
ATOM     11  C   UNL d   1       0.929  -2.392   0.000  0.00  0.00     0.001 A 
ATOM     12  C   UNL d   1       1.650  -2.800   0.000  0.00  0.00     0.000 A 
ATOM     13  C   UNL d   1       2.362  -2.379   0.000  0.00  0.00     0.001 A 
ATOM     14  C   UNL d   1       1.654  -3.625   0.000  0.00  0.00     0.000 C 
ATOM     15  C   UNL d   1       2.354  -1.554   0.000  0.00  0.00     0.013 A 
ENDBRANCH   6   9
ENDBRANCH   1   6
BRANCH   2  16
ATOM     16  C   UNL d   1       3.029   0.713   0.000  0.00  0.00     0.298 C 
ATOM     17  N   UNL d   1       3.642   1.271   0.000  0.00  0.00    -0.181 NA
ATOM     18  O   UNL d   1       3.192  -0.092   0.000  0.00  0.00    -0.264 OA
BRANCH  17  19
ATOM     19  C   UNL d   1       4.425   1.008   0.000  0.00  0.00     0.197 A 
ATOM     20  N   UNL d   1       5.092   1.496   0.000  0.00  0.00    -0.219 NA
ATOM     21  C   UNL d   1       5.754   1.008   0.000  0.00  0.00     0.108 A 
ATOM     22  C   UNL d   1       5.504   0.225   0.000  0.00  0.00     0.059 A 
ATOM     23  S   UNL d   1       4.675   0.225   0.000  0.00  0.00    -0.046 SA
ENDBRANCH  17  19
ENDBRANCH   2  16
TORSDOF 4
