REMARK  4 active torsions:
REMARK  status: ('A' for Active; 'I' for Inactive)
REMARK    1  A    between atoms: S_10  and  C_1 
REMARK    2  A    between atoms: N_3  and  C_2 
REMARK    3  A    between atoms: S_4  and  C_9 
REMARK    4  A    between atoms: C_8  and  S_10 
ROOT
ATOM      1  C   UNL d   1       3.182  -1.933   0.000  0.00  0.00     0.133 A 
ATOM      2  C   UNL d   1       3.183  -2.764   0.000  0.00  0.00     0.035 A 
ATOM      3  C   UNL d   1       2.465  -1.522   0.000  0.00  0.00     0.053 A 
ATOM      4  C   UNL d   1       2.466  -3.180   0.000  0.00  0.00     0.086 A 
ATOM      5  C   UNL d   1       1.752  -1.937   0.000  0.00  0.00     0.009 A 
ATOM      6  C   UNL d   1       1.749  -2.764   0.000  0.00  0.00     0.012 A 
ENDROOT
BRANCH   3   7
ATOM      7  S   UNL d   1       2.462  -0.696   0.000  0.00  0.00    -0.060 SA
BRANCH   7   8
ATOM      8  C   UNL d   1       1.745  -0.284   0.000  0.00  0.00     0.141 A 
ATOM      9  N   UNL d   1       1.658   0.536   0.000  0.00  0.00    -0.232 NA
ATOM     10  C   UNL d   1       0.849   0.705   0.000  0.00  0.00     0.088 A 
ATOM     11  C   UNL d   1       0.435   1.413   0.000  0.00  0.00     0.020 A 
ATOM     12  C   UNL d   1       0.439  -0.009   0.000  0.00  0.00     0.049 A 
ATOM     13  C   UNL d   1      -0.388   1.409   0.000  0.00  0.00     0.002 A 
ATOM     14  C   UNL d   1      -0.796   0.693   0.000  0.00  0.00     0.001 A 
ATOM     15  C   UNL d   1      -0.381  -0.015   0.000  0.00  0.00     0.008 A 
ATOM     16  S   UNL d   1       0.994  -0.624   0.000  0.00  0.00    -0.060 SA
ENDBRANCH   7   8
ENDBRANCH   3   7
BRANCH   1  17
ATOM     17  N   UNL d   1       3.900  -1.515   0.000  0.00  0.00    -0.113 N 
ATOM     18  O   UNL d   1       4.617  -1.927   0.000  0.00  0.00    -0.532 OA
ATOM     19  O   UNL d   1       3.896  -0.688   0.000  0.00  0.00    -0.532 OA
ENDBRANCH   1  17
BRANCH   4  20
ATOM     20  S   UNL d   1       2.466  -4.005   0.000  0.00  0.00     0.191 S 
ATOM     21  O   UNL d   1       2.470  -4.832   0.000  0.00  0.00    -0.222 OA
ATOM     22  O   UNL d   1       3.289  -4.009   0.000  0.00  0.00    -0.222 OA
ATOM     23  C   UNL d   1       1.636  -4.005   0.000  0.00  0.00     0.145 C 
ENDBRANCH   4  20
TORSDOF 4
