REMARK  0 active torsions:
REMARK  status: ('A' for Active; 'I' for Inactive)
ROOT
ATOM      1  C   UNL d   1      -0.152   0.710   0.000  0.00  0.00     0.086 A 
ATOM      2  S   UNL d   1      -0.866   1.115   0.000  0.00  0.00    -0.081 SA
ATOM      3  C   UNL d   1      -0.152  -0.134   0.000  0.00  0.00     0.090 A 
ATOM      4  N   UNL d   1      -0.866  -0.539   0.000  0.00  0.00    -0.244 NA
ATOM      5  C   UNL d   1      -1.579   0.710   0.000  0.00  0.00     0.047 A 
ATOM      6  C   UNL d   1      -1.579  -0.115   0.000  0.00  0.00     0.087 A 
ATOM      7  C   UNL d   1       0.580   1.115   0.000  0.00  0.00     0.203 A 
ATOM      8  O   UNL d   1       0.580   1.958   0.000  0.00  0.00    -0.286 OA
ATOM      9  C   UNL d   1       0.580  -0.539   0.000  0.00  0.00     0.020 A 
ATOM     10  C   UNL d   1       1.293   0.710   0.000  0.00  0.00     0.043 A 
ATOM     11  C   UNL d   1       1.293  -0.115   0.000  0.00  0.00     0.005 A 
ATOM     12  C   UNL d   1      -2.293   1.115   0.000  0.00  0.00     0.008 A 
ATOM     13  C   UNL d   1      -2.293  -0.524   0.000  0.00  0.00     0.020 A 
ATOM     14  C   UNL d   1      -3.006   0.688   0.000  0.00  0.00     0.001 A 
ATOM     15  C   UNL d   1      -3.006  -0.115   0.000  0.00  0.00     0.002 A 
ENDROOT
TORSDOF 0
