REMARK  4 active torsions:
REMARK  status: ('A' for Active; 'I' for Inactive)
REMARK    1  A    between atoms: C_7  and  C_5 
REMARK    2  A    between atoms: C_8  and  C_7 
REMARK    3  A    between atoms: C_10  and  C_8 
REMARK    4  A    between atoms: O_18  and  C_11 
ROOT
ATOM      1  C   UNL d   1      -1.204   0.762   0.000  0.00  0.00     0.303 A 
ATOM      2  N   UNL d   1      -1.204  -0.891   0.000  0.00  0.00    -0.222 NA
ATOM      3  O   UNL d   1      -0.489   0.348   0.000  0.00  0.00    -0.255 OA
ATOM      4  C   UNL d   1      -1.920   0.348   0.000  0.00  0.00     0.081 A 
ATOM      5  C   UNL d   1      -0.489  -0.473   0.000  0.00  0.00     0.186 A 
ATOM      6  C   UNL d   1      -1.920  -0.473   0.000  0.00  0.00     0.089 A 
ATOM      7  O   UNL d   1      -1.204   1.591   0.000  0.00  0.00    -0.259 OA
ATOM      8  C   UNL d   1      -2.628   0.762   0.000  0.00  0.00     0.007 A 
ATOM      9  C   UNL d   1      -2.628  -0.891   0.000  0.00  0.00     0.019 A 
ATOM     10  C   UNL d   1      -3.343   0.348   0.000  0.00  0.00     0.000 A 
ATOM     11  C   UNL d   1      -3.343  -0.473   0.000  0.00  0.00     0.002 A 
ENDROOT
BRANCH   5  12
ATOM     12  C   UNL d   1       0.239  -0.907   0.000  0.00  0.00     0.045 C 
BRANCH  12  13
ATOM     13  C   UNL d   1       0.954  -0.497   0.000  0.00  0.00     0.004 C 
BRANCH  13  14
ATOM     14  C   UNL d   1       1.670  -0.907   0.000  0.00  0.00     0.000 A 
ATOM     15  C   UNL d   1       2.381  -0.497   0.000  0.00  0.00     0.002 A 
ATOM     16  C   UNL d   1       3.097  -0.907   0.000  0.00  0.00     0.024 A 
ATOM     17  C   UNL d   1       3.097  -1.736   0.000  0.00  0.00     0.094 A 
ATOM     18  C   UNL d   1       2.381  -2.147   0.000  0.00  0.00     0.024 A 
ATOM     19  C   UNL d   1       1.670  -1.736   0.000  0.00  0.00     0.002 A 
BRANCH  17  20
ATOM     20  O   UNL d   1       3.828  -2.147   0.000  0.00  0.00    -0.328 OA
ATOM     21  C   UNL d   1       4.540  -1.736   0.000  0.00  0.00     0.181 C 
ENDBRANCH  17  20
ENDBRANCH  13  14
ENDBRANCH  12  13
ENDBRANCH   5  12
TORSDOF 4
