REMARK  2 active torsions:
REMARK  status: ('A' for Active; 'I' for Inactive)
REMARK    1  A    between atoms: S_2  and  N_1 
REMARK    2  A    between atoms: C_8  and  S_2 
ROOT
ATOM      1  S   UNL d   1       3.069  -0.948   0.000  0.00  0.00     0.273 S 
ATOM      2  O   UNL d   1       3.078  -0.128   0.000  0.00  0.00    -0.200 OA
ATOM      3  O   UNL d   1       3.069  -1.773   0.000  0.00  0.00    -0.200 OA
ENDROOT
BRANCH   1   4
ATOM      4  N   UNL d   1       3.894  -0.939   0.000  0.00  0.00    -0.207 N 
ATOM      5  C   UNL d   1       4.246  -1.690   0.000  0.00  0.00     0.148 A 
ATOM      6  N   UNL d   1       5.057  -1.874   0.000  0.00  0.00    -0.198 NA
ATOM      7  C   UNL d   1       5.694  -1.374   0.000  0.00  0.00     0.066 A 
ATOM      8  C   UNL d   1       4.631  -0.980   0.000  0.00  0.00     0.169 A 
ATOM      9  C   UNL d   1       5.703  -0.554   0.000  0.00  0.00     0.066 A 
ATOM     10  N   UNL d   1       5.062  -0.032   0.000  0.00  0.00    -0.198 NA
ATOM     11  C   UNL d   1       4.260  -0.206   0.000  0.00  0.00     0.148 A 
ENDBRANCH   1   4
BRANCH   1  12
ATOM     12  C   UNL d   1       2.245  -0.948   0.000  0.00  0.00     0.104 A 
ATOM     13  C   UNL d   1       1.832  -0.234   0.000  0.00  0.00     0.014 A 
ATOM     14  C   UNL d   1       1.008  -0.234   0.000  0.00  0.00     0.012 A 
ATOM     15  C   UNL d   1       0.596  -0.948   0.000  0.00  0.00     0.058 A 
ATOM     16  C   UNL d   1       1.008  -1.663   0.000  0.00  0.00     0.012 A 
ATOM     17 CL   UNL d   1      -0.229  -0.939   0.000  0.00  0.00    -0.082 Cl
ATOM     18  C   UNL d   1       1.832  -1.663   0.000  0.00  0.00     0.014 A 
ENDBRANCH   1  12
TORSDOF 2
