REMARK  5 active torsions:
REMARK  status: ('A' for Active; 'I' for Inactive)
REMARK    1  A    between atoms: N_2  and  S_1 
REMARK    2  A    between atoms: C_5  and  S_1 
REMARK    3  A    between atoms: C_4  and  C_3 
REMARK       I    between atoms: N_6  and  C_4 
REMARK    4  A    between atoms: C_12  and  N_6 
REMARK    5  A    between atoms: O_23  and  C_15 
ROOT
ATOM      1  N   UNL d   1       0.275   0.496   0.000  0.00  0.00    -0.226 N 
ATOM      2  C   UNL d   1       0.950   0.975   0.000  0.00  0.00     0.133 A 
ATOM      3  C   UNL d   1      -0.388   0.983   0.000  0.00  0.00     0.092 A 
ATOM      4  C   UNL d   1       0.692   1.762   0.000  0.00  0.00     0.025 A 
ATOM      5  C   UNL d   1      -0.133   1.762   0.000  0.00  0.00     0.021 A 
ENDROOT
BRANCH   2   6
ATOM      6  C   UNL d   1       1.729   0.713   0.000  0.00  0.00     0.296 C 
ATOM      7  N   UNL d   1       2.342   1.271   0.000  0.00  0.00    -0.207 NA
ATOM      8  O   UNL d   1       1.900  -0.092   0.000  0.00  0.00    -0.264 OA
BRANCH   7   9
ATOM      9  C   UNL d   1       3.129   1.008   0.000  0.00  0.00     0.085 A 
ATOM     10  C   UNL d   1       3.292   0.196   0.000  0.00  0.00     0.021 A 
ATOM     11  C   UNL d   1       4.079  -0.062   0.000  0.00  0.00     0.026 A 
ATOM     12  C   UNL d   1       4.692   0.487   0.000  0.00  0.00     0.094 A 
ATOM     13  C   UNL d   1       4.525   1.300   0.000  0.00  0.00     0.026 A 
ATOM     14  C   UNL d   1       3.742   1.558   0.000  0.00  0.00     0.021 A 
BRANCH  12  15
ATOM     15  O   UNL d   1       5.479   0.233   0.000  0.00  0.00    -0.328 OA
ATOM     16  C   UNL d   1       5.642  -0.579   0.000  0.00  0.00     0.181 C 
ENDBRANCH  12  15
ENDBRANCH   7   9
ENDBRANCH   2   6
BRANCH   1  17
ATOM     17  S   UNL d   1       0.329  -0.329   0.000  0.00  0.00     0.271 S 
ATOM     18  O   UNL d   1      -0.487  -0.329   0.000  0.00  0.00    -0.200 OA
ATOM     19  O   UNL d   1       1.163  -0.317   0.000  0.00  0.00    -0.200 OA
BRANCH  17  20
ATOM     20  C   UNL d   1       0.342  -1.150   0.000  0.00  0.00     0.104 A 
ATOM     21  C   UNL d   1       1.062  -1.554   0.000  0.00  0.00     0.013 A 
ATOM     22  C   UNL d   1       1.067  -2.379   0.000  0.00  0.00     0.001 A 
ATOM     23  C   UNL d   1       0.354  -2.800   0.000  0.00  0.00     0.000 A 
ATOM     24  C   UNL d   1      -0.371  -2.392   0.000  0.00  0.00     0.001 A 
ATOM     25  C   UNL d   1       0.354  -3.625   0.000  0.00  0.00     0.000 C 
ATOM     26  C   UNL d   1      -0.371  -1.567   0.000  0.00  0.00     0.013 A 
ENDBRANCH  17  20
ENDBRANCH   1  17
TORSDOF 5
