REMARK  5 active torsions:
REMARK  status: ('A' for Active; 'I' for Inactive)
REMARK    1  A    between atoms: C_7  and  C_4 
REMARK    2  A    between atoms: O_9  and  C_7 
REMARK    3  A    between atoms: O_15  and  C_8 
REMARK    4  A    between atoms: C_17  and  O_9 
REMARK    5  A    between atoms: O_16  and  C_11 
ROOT
ATOM      1  C   UNL d   1       6.104  -5.487   0.000  0.00  0.00     0.228 A 
ATOM      2  C   UNL d   1       5.392  -5.067   0.000  0.00  0.00     0.070 A 
ATOM      3  S   UNL d   1       6.825  -5.075   0.000  0.00  0.00    -0.040 SA
ATOM      4  C   UNL d   1       6.825  -4.242   0.000  0.00  0.00     0.096 A 
ATOM      5  C   UNL d   1       5.392  -4.242   0.000  0.00  0.00     0.006 A 
ATOM      6  C   UNL d   1       6.104  -3.829   0.000  0.00  0.00     0.012 A 
ATOM      7  C   UNL d   1       4.679  -5.487   0.000  0.00  0.00     0.120 A 
ATOM      8  O   UNL d   1       6.104  -6.312   0.000  0.00  0.00    -0.279 OA
ATOM      9  C   UNL d   1       3.967  -5.075   0.000  0.00  0.00     0.116 A 
ATOM     10  C   UNL d   1       4.679  -3.829   0.000  0.00  0.00     0.002 A 
ATOM     11  C   UNL d   1       3.967  -4.250   0.000  0.00  0.00     0.026 A 
ENDROOT
BRANCH   4  12
ATOM     12  C   UNL d   1       7.542  -3.837   0.000  0.00  0.00     0.306 C 
ATOM     13  O   UNL d   1       7.542  -3.013   0.000  0.00  0.00    -0.258 OA
BRANCH  12  14
ATOM     14  O   UNL d   1       8.254  -4.250   0.000  0.00  0.00    -0.273 OA
BRANCH  14  15
ATOM     15  C   UNL d   1       8.254  -5.075   0.000  0.00  0.00     0.103 C 
ATOM     16  C   UNL d   1       8.967  -5.487   0.000  0.00  0.00     0.027 C 
ATOM     17  C   UNL d   1       7.537  -5.487   0.000  0.00  0.00     0.027 C 
ENDBRANCH  14  15
ENDBRANCH  12  14
ENDBRANCH   4  12
BRANCH   7  18
ATOM     18  O   UNL d   1       4.679  -6.312   0.000  0.00  0.00    -0.326 OA
ATOM     19  C   UNL d   1       5.400  -6.725   0.000  0.00  0.00     0.181 C 
ENDBRANCH   7  18
BRANCH   9  20
ATOM     20  O   UNL d   1       3.250  -5.487   0.000  0.00  0.00    -0.326 OA
ATOM     21  C   UNL d   1       2.538  -5.075   0.000  0.00  0.00     0.181 C 
ENDBRANCH   9  20
TORSDOF 5
