REMARK  4 active torsions:
REMARK  status: ('A' for Active; 'I' for Inactive)
REMARK    1  A    between atoms: S_3  and  N_1 
REMARK    2  A    between atoms: C_7  and  C_4 
REMARK    3  A    between atoms: C_11  and  C_5 
REMARK    4  A    between atoms: O_21  and  C_18 
ROOT
ATOM      1  N   UNL d   1       4.484   1.531   0.000  0.00  0.00    -0.155 N 
ATOM      2  N   UNL d   1       3.681   1.696   0.000  0.00  0.00    -0.156 NA
ATOM      3  C   UNL d   1       4.897   2.244   0.000  0.00  0.00     0.102 A 
ATOM      4  C   UNL d   1       3.568   2.513   0.000  0.00  0.00     0.104 A 
ATOM      5  C   UNL d   1       4.346   2.848   0.000  0.00  0.00     0.041 A 
ENDROOT
BRANCH   4   6
ATOM      6  C   UNL d   1       2.876   2.907   0.000  0.00  0.00     0.020 A 
ATOM      7  C   UNL d   1       2.876   3.764   0.000  0.00  0.00     0.004 A 
ATOM      8  C   UNL d   1       2.183   4.178   0.000  0.00  0.00     0.024 A 
ATOM      9  C   UNL d   1       1.436   3.793   0.000  0.00  0.00     0.094 A 
ATOM     10  C   UNL d   1       1.436   2.962   0.000  0.00  0.00     0.024 A 
ATOM     11  C   UNL d   1       2.128   2.513   0.000  0.00  0.00     0.004 A 
BRANCH   9  12
ATOM     12  O   UNL d   1       0.716   4.233   0.000  0.00  0.00    -0.328 OA
ATOM     13  C   UNL d   1       0.000   3.821   0.000  0.00  0.00     0.181 C 
ENDBRANCH   9  12
ENDBRANCH   4   6
BRANCH   1  14
ATOM     14  S   UNL d   1       4.815   0.751   0.000  0.00  0.00     0.266 S 
ATOM     15  O   UNL d   1       4.068   0.416   0.000  0.00  0.00    -0.203 OA
ATOM     16  O   UNL d   1       5.150   0.000   0.000  0.00  0.00    -0.203 OA
ATOM     17  C   UNL d   1       5.593   1.113   0.000  0.00  0.00     0.165 C 
ENDBRANCH   1  14
BRANCH   3  18
ATOM     18  C   UNL d   1       5.727   2.326   0.000  0.00  0.00     0.048 A 
ATOM     19  S   UNL d   1       6.145   3.013   0.000  0.00  0.00    -0.085 SA
ATOM     20  C   UNL d   1       6.951   2.848   0.000  0.00  0.00     0.035 A 
ATOM     21  C   UNL d   1       7.033   2.051   0.000  0.00  0.00     0.007 A 
ATOM     22  C   UNL d   1       6.286   1.723   0.000  0.00  0.00     0.009 A 
ENDBRANCH   3  18
TORSDOF 4
