REMARK  1 active torsions:
REMARK  status: ('A' for Active; 'I' for Inactive)
REMARK    1  A    between atoms: C_12  and  C_8 
ROOT
ATOM      1  N   UNL d   1       5.025  -3.487   0.000  0.00  0.00    -0.123 N 
ATOM      2  N   UNL d   1       4.312  -4.717   0.000  0.00  0.00    -0.180 NA
ATOM      3  C   UNL d   1       5.017  -4.312   0.000  0.00  0.00     0.217 A 
ATOM      4  N   UNL d   1       4.312  -3.067   0.000  0.00  0.00    -0.141 NA
ATOM      5  N   UNL d   1       5.729  -3.067   0.000  0.00  0.00    -0.146 NA
ATOM      6  C   UNL d   1       3.604  -4.312   0.000  0.00  0.00     0.300 A 
ATOM      7  C   UNL d   1       3.604  -3.487   0.000  0.00  0.00     0.161 A 
ATOM      8  C   UNL d   1       6.450  -3.487   0.000  0.00  0.00     0.110 A 
ATOM      9  S   UNL d   1       5.729  -4.717   0.000  0.00  0.00    -0.045 SA
ATOM     10  C   UNL d   1       6.450  -4.312   0.000  0.00  0.00     0.059 A 
ATOM     11  O   UNL d   1       2.888  -4.725   0.000  0.00  0.00    -0.263 OA
ATOM     12  C   UNL d   1       2.888  -3.075   0.000  0.00  0.00     0.028 C 
ENDROOT
BRANCH   8  13
ATOM     13  C   UNL d   1       7.162  -3.075   0.000  0.00  0.00     0.020 A 
ATOM     14  C   UNL d   1       7.875  -3.492   0.000  0.00  0.00     0.002 A 
ATOM     15  C   UNL d   1       8.592  -3.079   0.000  0.00  0.00     0.000 A 
ATOM     16  C   UNL d   1       8.592  -2.254   0.000  0.00  0.00     0.000 A 
ATOM     17  C   UNL d   1       7.875  -1.842   0.000  0.00  0.00     0.000 A 
ATOM     18  C   UNL d   1       7.162  -2.254   0.000  0.00  0.00     0.002 A 
ENDBRANCH   8  13
TORSDOF 1
