REMARK  2 active torsions:
REMARK  status: ('A' for Active; 'I' for Inactive)
REMARK       I    between atoms: C_6  and  N_8 
REMARK    1  A    between atoms: C_7  and  C_6 
REMARK    2  A    between atoms: N_8  and  C_11 
ROOT
ATOM      1  N   UNL d   1      -2.478  -1.450   0.000  0.00  0.00    -0.246 NA
ATOM      2  C   UNL d   1      -2.566  -0.114   0.000  0.00  0.00     0.019 A 
ATOM      3  C   UNL d   1      -3.005  -0.816   0.000  0.00  0.00     0.081 A 
ATOM      4  C   UNL d   1      -1.775  -0.322   0.000  0.00  0.00     0.021 A 
ATOM      5  C   UNL d   1      -1.731  -1.146   0.000  0.00  0.00     0.082 A 
ATOM      6  C   UNL d   1      -1.095   0.132   0.000  0.00  0.00     0.021 A 
ATOM      7  C   UNL d   1      -0.351  -0.234   0.000  0.00  0.00     0.085 A 
ATOM      8  C   UNL d   1      -0.985  -1.519   0.000  0.00  0.00     0.021 A 
ATOM      9  C   UNL d   1      -0.304  -1.058   0.000  0.00  0.00     0.021 A 
ATOM     10  C   UNL d   1      -2.954   0.626   0.000  0.00  0.00     0.002 A 
ATOM     11  C   UNL d   1      -3.833  -0.780   0.000  0.00  0.00     0.019 A 
ATOM     12  C   UNL d   1      -3.778   0.659   0.000  0.00  0.00     0.000 A 
ATOM     13  C   UNL d   1      -4.217  -0.044   0.000  0.00  0.00     0.002 A 
ENDROOT
BRANCH   7  14
ATOM     14  N   UNL d   1       0.351   0.238   0.000  0.00  0.00    -0.206 NA
ATOM     15  C   UNL d   1       0.296   1.065   0.000  0.00  0.00     0.302 C 
ATOM     16  O   UNL d   1       0.981   1.504   0.000  0.00  0.00    -0.263 OA
BRANCH  15  17
ATOM     17  C   UNL d   1      -0.458   1.435   0.000  0.00  0.00     0.158 A 
ATOM     18  O   UNL d   1      -1.230   1.138   0.000  0.00  0.00    -0.300 OA
ATOM     19  C   UNL d   1      -1.742   1.775   0.000  0.00  0.00     0.123 A 
ATOM     20  C   UNL d   1      -1.303   2.456   0.000  0.00  0.00     0.029 A 
ATOM     21  C   UNL d   1      -0.512   2.240   0.000  0.00  0.00     0.032 A 
ENDBRANCH  15  17
ENDBRANCH   7  14
TORSDOF 2
