REMARK  4 active torsions:
REMARK  status: ('A' for Active; 'I' for Inactive)
REMARK    1  A    between atoms: N_2  and  S_1 
REMARK    2  A    between atoms: C_3  and  S_1 
REMARK    3  A    between atoms: O_15  and  C_13 
REMARK    4  A    between atoms: C_19  and  O_15 
ROOT
ATOM      1  C   UNL d   1       3.546  -0.029   0.000  0.00  0.00     0.105 A 
ATOM      2  C   UNL d   1       3.970  -0.748   0.000  0.00  0.00     0.014 A 
ATOM      3  C   UNL d   1       4.793  -0.740   0.000  0.00  0.00     0.024 A 
ATOM      4  C   UNL d   1       3.970   0.686   0.000  0.00  0.00     0.015 A 
ATOM      5  C   UNL d   1       5.205  -0.029   0.000  0.00  0.00     0.100 A 
ATOM      6  C   UNL d   1       4.793   0.686   0.000  0.00  0.00     0.025 A 
ATOM      7  C   UNL d   1       3.558  -1.463   0.000  0.00  0.00     0.001 A 
ATOM      8  C   UNL d   1       5.205  -1.451   0.000  0.00  0.00     0.002 A 
ATOM      9  C   UNL d   1       3.970  -2.174   0.000  0.00  0.00     0.000 A 
ATOM     10  C   UNL d   1       4.801  -2.170   0.000  0.00  0.00     0.000 A 
ENDROOT
BRANCH   1  11
ATOM     11  S   UNL d   1       2.723  -0.029   0.000  0.00  0.00     0.286 S 
ATOM     12  O   UNL d   1       2.723   0.798   0.000  0.00  0.00    -0.198 OA
ATOM     13  O   UNL d   1       2.723  -0.861   0.000  0.00  0.00    -0.198 OA
BRANCH  11  14
ATOM     14  N   UNL d   1       1.887  -0.029   0.000  0.00  0.00    -0.150 N 
ATOM     15  N   UNL d   1       1.401  -0.703   0.000  0.00  0.00    -0.155 NA
ATOM     16  C   UNL d   1       0.615  -0.449   0.000  0.00  0.00     0.104 A 
ATOM     17  C   UNL d   1      -0.058  -0.935   0.000  0.00  0.00     0.022 C 
ATOM     18  C   UNL d   1       0.615   0.382   0.000  0.00  0.00     0.042 A 
ATOM     19  C   UNL d   1       1.401   0.636   0.000  0.00  0.00     0.115 A 
ENDBRANCH  11  14
ENDBRANCH   1  11
BRANCH   5  20
ATOM     20  O   UNL d   1       6.028  -0.029   0.000  0.00  0.00    -0.305 OA
BRANCH  20  21
ATOM     21  C   UNL d   1       6.439  -0.740   0.000  0.00  0.00     0.123 C 
ATOM     22  C   UNL d   1       7.262  -0.748   0.000  0.00  0.00     0.029 C 
ENDBRANCH  20  21
ENDBRANCH   5  20
TORSDOF 4
