REMARK  3 active torsions:
REMARK  status: ('A' for Active; 'I' for Inactive)
REMARK    1  A    between atoms: S_3  and  N_1 
REMARK    2  A    between atoms: C_7  and  C_4 
REMARK    3  A    between atoms: C_11  and  C_5 
ROOT
ATOM      1  N   UNL d   1       3.750   1.532   0.000  0.00  0.00    -0.155 N 
ATOM      2  N   UNL d   1       2.946   1.693   0.000  0.00  0.00    -0.156 NA
ATOM      3  C   UNL d   1       4.169   2.256   0.000  0.00  0.00     0.102 A 
ATOM      4  C   UNL d   1       2.857   2.527   0.000  0.00  0.00     0.104 A 
ATOM      5  C   UNL d   1       3.610   2.857   0.000  0.00  0.00     0.041 A 
ENDROOT
BRANCH   4   6
ATOM      6  C   UNL d   1       2.137   2.946   0.000  0.00  0.00     0.019 A 
ATOM      7  C   UNL d   1       1.415   2.527   0.000  0.00  0.00     0.002 A 
ATOM      8  C   UNL d   1       0.692   2.946   0.000  0.00  0.00     0.000 A 
ATOM      9  C   UNL d   1       0.692   3.775   0.000  0.00  0.00     0.000 A 
ATOM     10  C   UNL d   1       1.415   4.169   0.000  0.00  0.00     0.000 A 
ATOM     11  C   UNL d   1       0.000   4.169   0.000  0.00  0.00     0.000 C 
ATOM     12  C   UNL d   1       2.137   3.775   0.000  0.00  0.00     0.002 A 
ENDBRANCH   4   6
BRANCH   1  13
ATOM     13  S   UNL d   1       4.085   0.753   0.000  0.00  0.00     0.266 S 
ATOM     14  O   UNL d   1       4.449   0.000   0.000  0.00  0.00    -0.203 OA
ATOM     15  O   UNL d   1       3.336   0.422   0.000  0.00  0.00    -0.203 OA
ATOM     16  C   UNL d   1       4.865   1.118   0.000  0.00  0.00     0.165 C 
ENDBRANCH   1  13
BRANCH   3  17
ATOM     17  C   UNL d   1       5.003   2.334   0.000  0.00  0.00     0.048 A 
ATOM     18  S   UNL d   1       5.417   3.058   0.000  0.00  0.00    -0.085 SA
ATOM     19  C   UNL d   1       6.221   2.857   0.000  0.00  0.00     0.035 A 
ATOM     20  C   UNL d   1       6.313   2.058   0.000  0.00  0.00     0.007 A 
ATOM     21  C   UNL d   1       5.560   1.726   0.000  0.00  0.00     0.009 A 
ENDBRANCH   3  17
TORSDOF 3
