REMARK  2 active torsions:
REMARK  status: ('A' for Active; 'I' for Inactive)
REMARK    1  A    between atoms: C_6  and  C_1 
REMARK    2  A    between atoms: O_10  and  C_6 
ROOT
ATOM      1  C   UNL d   1       6.112  -4.379   0.000  0.00  0.00     0.096 A 
ATOM      2  S   UNL d   1       6.112  -5.213   0.000  0.00  0.00    -0.040 SA
ATOM      3  C   UNL d   1       5.392  -5.625   0.000  0.00  0.00     0.226 A 
ATOM      4  C   UNL d   1       5.392  -3.967   0.000  0.00  0.00     0.012 A 
ATOM      5  C   UNL d   1       4.679  -4.379   0.000  0.00  0.00     0.004 A 
ATOM      6  C   UNL d   1       4.679  -5.204   0.000  0.00  0.00     0.045 A 
ATOM      7  O   UNL d   1       5.392  -6.450   0.000  0.00  0.00    -0.279 OA
ATOM      8  C   UNL d   1       3.967  -3.967   0.000  0.00  0.00     0.000 A 
ATOM      9  C   UNL d   1       3.967  -5.625   0.000  0.00  0.00     0.004 A 
ATOM     10  C   UNL d   1       3.254  -4.379   0.000  0.00  0.00     0.000 A 
ATOM     11  C   UNL d   1       3.254  -5.213   0.000  0.00  0.00     0.000 A 
ENDROOT
BRANCH   1  12
ATOM     12  C   UNL d   1       6.829  -3.975   0.000  0.00  0.00     0.302 C 
ATOM     13  O   UNL d   1       6.829  -3.150   0.000  0.00  0.00    -0.259 OA
BRANCH  12  14
ATOM     14  O   UNL d   1       7.542  -4.379   0.000  0.00  0.00    -0.295 OA
ATOM     15  C   UNL d   1       7.542  -5.213   0.000  0.00  0.00     0.185 C 
ENDBRANCH  12  14
ENDBRANCH   1  12
TORSDOF 2
