REMARK  2 active torsions:
REMARK  status: ('A' for Active; 'I' for Inactive)
REMARK    1  A    between atoms: C_10  and  N_1 
REMARK    2  A    between atoms: C_11  and  C_10 
ROOT
ATOM      1  N   UNL d   1       3.383  -1.303   0.000  0.00  0.00    -0.187 N 
ATOM      2  N   UNL d   1       2.867  -0.520   0.000  0.00  0.00    -0.162 NA
ATOM      3  C   UNL d   1       1.985  -0.520   0.000  0.00  0.00     0.102 A 
ATOM      4  C   UNL d   1       1.732  -1.303   0.000  0.00  0.00     0.024 A 
ATOM      5  C   UNL d   1       2.969  -2.018   0.000  0.00  0.00     0.281 A 
ATOM      6  C   UNL d   1       2.144  -2.018   0.000  0.00  0.00     0.059 A 
ATOM      7  C   UNL d   1       0.900  -1.303   0.000  0.00  0.00     0.002 A 
ATOM      8  C   UNL d   1       1.315  -0.041   0.000  0.00  0.00     0.019 A 
ATOM      9  C   UNL d   1       0.647  -0.520   0.000  0.00  0.00     0.002 A 
ATOM     10  O   UNL d   1       3.394  -2.742   0.000  0.00  0.00    -0.265 OA
ATOM     11  C   UNL d   1       1.732  -2.738   0.000  0.00  0.00     0.005 A 
ATOM     12  C   UNL d   1       0.491  -2.018   0.000  0.00  0.00     0.000 A 
ATOM     13  C   UNL d   1       1.227   0.779   0.000  0.00  0.00     0.002 A 
ATOM     14  C   UNL d   1      -0.110  -0.188   0.000  0.00  0.00     0.000 A 
ATOM     15  C   UNL d   1       0.900  -2.738   0.000  0.00  0.00     0.000 A 
ATOM     16  C   UNL d   1      -0.191   0.632   0.000  0.00  0.00     0.000 A 
ATOM     17  C   UNL d   1       0.471   1.119   0.000  0.00  0.00     0.000 A 
ENDROOT
BRANCH   1  18
ATOM     18  C   UNL d   1       4.192  -1.500   0.000  0.00  0.00     0.174 C 
BRANCH  18  19
ATOM     19  C   UNL d   1       4.433  -2.295   0.000  0.00  0.00     0.231 C 
ATOM     20  O   UNL d   1       5.228  -2.476   0.000  0.00  0.00    -0.643 OA
ATOM     21  O   UNL d   1       4.188  -3.064   0.000  0.00  0.00    -0.643 OA
ENDBRANCH  18  19
ENDBRANCH   1  18
TORSDOF 2
