REMARK  3 active torsions:
REMARK  status: ('A' for Active; 'I' for Inactive)
REMARK    1  A    between atoms: S_9  and  C_3 
REMARK    2  A    between atoms: C_15  and  S_9 
REMARK    3  A    between atoms: C_11  and  C_15 
ROOT
ATOM      1  N   UNL d   1      -0.071  -2.553   0.000  0.00  0.00    -0.263 N 
ATOM      2  C   UNL d   1       0.450  -3.203   0.000  0.00  0.00     0.202 A 
ATOM      3  C   UNL d   1       0.400  -1.866   0.000  0.00  0.00     0.202 A 
ATOM      4  N   UNL d   1       1.224  -2.924   0.000  0.00  0.00    -0.121 NA
ATOM      5  S   UNL d   1      -0.021  -3.898   0.000  0.00  0.00    -0.047 SA
ATOM      6  N   UNL d   1       1.191  -2.091   0.000  0.00  0.00    -0.121 NA
ATOM      7  C   UNL d   1      -0.845  -2.840   0.000  0.00  0.00     0.074 A 
ATOM      8  C   UNL d   1      -0.820  -3.665   0.000  0.00  0.00     0.049 A 
ATOM      9  C   UNL d   1      -1.570  -2.449   0.000  0.00  0.00     0.018 A 
ATOM     10  C   UNL d   1      -1.512  -4.090   0.000  0.00  0.00     0.008 A 
ATOM     11  C   UNL d   1      -2.270  -2.886   0.000  0.00  0.00     0.002 A 
ATOM     12  C   UNL d   1      -2.236  -3.711   0.000  0.00  0.00     0.001 A 
ENDROOT
BRANCH   3  13
ATOM     13  S   UNL d   1       0.117  -1.099   0.000  0.00  0.00    -0.047 SA
BRANCH  13  14
ATOM     14  C   UNL d   1       0.641  -0.467   0.000  0.00  0.00     0.045 C 
BRANCH  14  15
ATOM     15  C   UNL d   1       0.354   0.308   0.000  0.00  0.00     0.036 A 
ATOM     16  S   UNL d   1       0.816   0.995   0.000  0.00  0.00    -0.086 SA
ATOM     17  C   UNL d   1       0.304   1.637   0.000  0.00  0.00     0.035 A 
ATOM     18  C   UNL d   1      -0.471   1.358   0.000  0.00  0.00     0.007 A 
ATOM     19  C   UNL d   1      -0.433   0.533   0.000  0.00  0.00     0.007 A 
ENDBRANCH  14  15
ENDBRANCH  13  14
ENDBRANCH   3  13
TORSDOF 3
