REMARK  8 active torsions:
REMARK  status: ('A' for Active; 'I' for Inactive)
REMARK       I    between atoms: C_2  and  N_1 
REMARK    1  A    between atoms: C_3  and  N_1 
REMARK    2  A    between atoms: C_4  and  N_1 
REMARK    3  A    between atoms: C_6  and  C_2 
REMARK    4  A    between atoms: C_5  and  C_4 
REMARK    5  A    between atoms: C_7  and  C_5 
REMARK    6  A    between atoms: O_19  and  C_7 
REMARK    7  A    between atoms: C_9  and  O_11 
REMARK    8  A    between atoms: O_11  and  C_16 
ROOT
ATOM      1  N   UNL d   1       1.738  -0.679   0.000  0.00  0.00    -0.258 N 
ATOM      2  C   UNL d   1       1.738  -1.504   0.000  0.00  0.00     0.266 C 
ATOM      3  O   UNL d   1       1.025  -1.917   0.000  0.00  0.00    -0.267 OA
ENDROOT
BRANCH   1   4
ATOM      4  C   UNL d   1       1.017  -0.267   0.000  0.00  0.00     0.150 A 
ATOM      5  N   UNL d   1       0.304  -0.679   0.000  0.00  0.00    -0.227 NA
ATOM      6  C   UNL d   1      -0.408  -0.267   0.000  0.00  0.00     0.101 A 
ATOM      7  C   UNL d   1      -0.408   0.563   0.000  0.00  0.00     0.021 A 
ATOM      8  C   UNL d   1       0.304   0.975   0.000  0.00  0.00     0.005 A 
ATOM      9  C   UNL d   1       1.017   0.563   0.000  0.00  0.00     0.037 A 
ENDBRANCH   1   4
BRANCH   1  10
ATOM     10  C   UNL d   1       2.442  -0.263   0.000  0.00  0.00     0.090 C 
BRANCH  10  11
ATOM     11  C   UNL d   1       3.167  -0.675   0.000  0.00  0.00     0.087 C 
BRANCH  11  12
ATOM     12  C   UNL d   1       3.880  -0.263   0.000  0.00  0.00     0.297 C 
ATOM     13  O   UNL d   1       3.880   0.563   0.000  0.00  0.00    -0.259 OA
BRANCH  12  14
ATOM     14  O   UNL d   1       4.593  -0.675   0.000  0.00  0.00    -0.296 OA
ATOM     15  C   UNL d   1       5.180  -0.087   0.000  0.00  0.00     0.185 C 
ENDBRANCH  12  14
ENDBRANCH  11  12
ENDBRANCH  10  11
ENDBRANCH   1  10
BRANCH   2  16
ATOM     16  C   UNL d   1       2.455  -1.913   0.000  0.00  0.00     0.057 A 
ATOM     17  C   UNL d   1       3.163  -1.492   0.000  0.00  0.00     0.007 A 
ATOM     18  C   UNL d   1       3.876  -1.905   0.000  0.00  0.00     0.025 A 
ATOM     19  C   UNL d   1       3.880  -2.730   0.000  0.00  0.00     0.103 A 
ATOM     20  C   UNL d   1       3.167  -3.142   0.000  0.00  0.00     0.025 A 
ATOM     21  C   UNL d   1       2.442  -2.738   0.000  0.00  0.00     0.007 A 
BRANCH  19  22
ATOM     22  O   UNL d   1       4.593  -3.142   0.000  0.00  0.00    -0.273 OA
BRANCH  22  23
ATOM     23  C   UNL d   1       4.593  -3.967   0.000  0.00  0.00     0.300 C 
ATOM     24  O   UNL d   1       3.880  -4.380   0.000  0.00  0.00    -0.259 OA
ATOM     25  C   UNL d   1       5.314  -4.380   0.000  0.00  0.00     0.074 C 
ENDBRANCH  22  23
ENDBRANCH  19  22
ENDBRANCH   2  16
TORSDOF 8
