REMARK  3 active torsions:
REMARK  status: ('A' for Active; 'I' for Inactive)
REMARK    1  A    between atoms: C_4  and  N_1 
REMARK    2  A    between atoms: S_5  and  C_6 
REMARK    3  A    between atoms: C_9  and  S_5 
ROOT
ATOM      1  C   UNL d   1       1.867  -1.240   0.000  0.00  0.00     0.078 A 
ATOM      2  C   UNL d   1       1.870  -2.075   0.000  0.00  0.00     0.080 A 
ATOM      3  C   UNL d   1       1.151  -0.832   0.000  0.00  0.00     0.018 A 
ATOM      4  C   UNL d   1       1.152  -2.486   0.000  0.00  0.00     0.010 A 
ATOM      5  C   UNL d   1       0.437  -1.244   0.000  0.00  0.00     0.002 A 
ATOM      6  C   UNL d   1       0.437  -2.075   0.000  0.00  0.00     0.001 A 
ENDROOT
BRANCH   1   7
ATOM      7  N   UNL d   1       2.578  -0.828   0.000  0.00  0.00    -0.241 N 
ATOM      8  C   UNL d   1       3.333  -1.160   0.000  0.00  0.00     0.267 A 
ATOM      9  C   UNL d   1       3.879  -0.545   0.000  0.00  0.00     0.061 A 
ATOM     10  O   UNL d   1       3.509  -1.967   0.000  0.00  0.00    -0.267 OA
ATOM     11  C   UNL d   1       4.699  -0.545   0.000  0.00  0.00     0.005 A 
ATOM     12  C   UNL d   1       3.469   0.166   0.000  0.00  0.00     0.061 A 
ATOM     13  C   UNL d   1       5.113   0.170   0.000  0.00  0.00     0.000 A 
ATOM     14  C   UNL d   1       4.691   0.885   0.000  0.00  0.00     0.000 A 
ATOM     15  C   UNL d   1       3.872   0.879   0.000  0.00  0.00     0.005 A 
ATOM     16  C   UNL d   1       2.662  -0.005   0.000  0.00  0.00     0.267 A 
ATOM     17  O   UNL d   1       2.045   0.546   0.000  0.00  0.00    -0.267 OA
ENDBRANCH   1   7
BRANCH   2  18
ATOM     18  S   UNL d   1       2.586  -2.485   0.000  0.00  0.00     0.160 S 
ATOM     19  O   UNL d   1       3.329  -2.610   0.000  0.00  0.00    -0.244 OA
BRANCH  18  20
ATOM     20  C   UNL d   1       2.586  -3.309   0.000  0.00  0.00     0.477 C 
ATOM     21  F   UNL d   1       1.917  -3.859   0.000  0.00  0.00    -0.158 F 
ATOM     22  F   UNL d   1       3.257  -3.856   0.000  0.00  0.00    -0.158 F 
ATOM     23  F   UNL d   1       2.586  -4.060   0.000  0.00  0.00    -0.158 F 
ENDBRANCH  18  20
ENDBRANCH   2  18
TORSDOF 3
