REMARK  5 active torsions:
REMARK  status: ('A' for Active; 'I' for Inactive)
REMARK    1  A    between atoms: C_6  and  S_1 
REMARK    2  A    between atoms: C_9  and  S_1 
REMARK    3  A    between atoms: C_2  and  S_11 
REMARK    4  A    between atoms: N_4  and  C_3 
REMARK    5  A    between atoms: S_11  and  C_10 
ROOT
ATOM      1  C   UNL d   1       0.468  -2.752   0.000  0.00  0.00     0.133 A 
ATOM      2  C   UNL d   1      -0.246  -3.165   0.000  0.00  0.00     0.035 A 
ATOM      3  C   UNL d   1      -0.962  -2.752   0.000  0.00  0.00     0.094 A 
ATOM      4  C   UNL d   1       0.465  -1.923   0.000  0.00  0.00     0.054 A 
ATOM      5  C   UNL d   1      -0.960  -1.926   0.000  0.00  0.00     0.012 A 
ATOM      6  C   UNL d   1      -0.248  -1.514   0.000  0.00  0.00     0.009 A 
ENDROOT
BRANCH   4   7
ATOM      7  S   UNL d   1       1.179  -1.508   0.000  0.00  0.00    -0.047 SA
BRANCH   7   8
ATOM      8  C   UNL d   1       1.175  -0.683   0.000  0.00  0.00     0.194 A 
ATOM      9  N   UNL d   1       0.506  -0.206   0.000  0.00  0.00    -0.220 NA
ATOM     10  C   UNL d   1       0.758   0.582   0.000  0.00  0.00     0.101 A 
ATOM     11  C   UNL d   1       0.346   1.288   0.000  0.00  0.00     0.021 A 
ATOM     12  C   UNL d   1       1.584   0.578   0.000  0.00  0.00     0.101 A 
ATOM     13  C   UNL d   1       0.752   2.001   0.000  0.00  0.00     0.002 A 
ATOM     14  C   UNL d   1       1.581   2.004   0.000  0.00  0.00     0.002 A 
ATOM     15  C   UNL d   1       1.995   1.291   0.000  0.00  0.00     0.021 A 
ATOM     16  N   UNL d   1       1.839  -0.200   0.000  0.00  0.00    -0.220 NA
ENDBRANCH   7   8
ENDBRANCH   4   7
BRANCH   1  17
ATOM     17  N   UNL d   1       1.185  -3.163   0.000  0.00  0.00    -0.113 N 
ATOM     18  O   UNL d   1       1.187  -3.988   0.000  0.00  0.00    -0.532 OA
ATOM     19  O   UNL d   1       1.898  -2.749   0.000  0.00  0.00    -0.532 OA
ENDBRANCH   1  17
BRANCH   3  20
ATOM     20  S   UNL d   1      -1.671  -3.163   0.000  0.00  0.00     0.278 S 
ATOM     21  O   UNL d   1      -1.267  -3.877   0.000  0.00  0.00    -0.213 OA
ATOM     22  O   UNL d   1      -2.383  -3.577   0.000  0.00  0.00    -0.213 OA
BRANCH  20  23
ATOM     23  C   UNL d   1      -2.085  -2.447   0.000  0.00  0.00     0.503 C 
ATOM     24  F   UNL d   1      -2.459  -1.796   0.000  0.00  0.00    -0.157 F 
ATOM     25  F   UNL d   1      -1.777  -1.640   0.000  0.00  0.00    -0.157 F 
ATOM     26  F   UNL d   1      -2.938  -2.308   0.000  0.00  0.00    -0.157 F 
ENDBRANCH  20  23
ENDBRANCH   3  20
TORSDOF 5
