REMARK  8 active torsions:
REMARK  status: ('A' for Active; 'I' for Inactive)
REMARK    1  A    between atoms: C_2  and  S_1 
REMARK    2  A    between atoms: N_13  and  S_1 
REMARK    3  A    between atoms: C_16  and  C_4 
REMARK    4  A    between atoms: O_17  and  C_5 
REMARK    5  A    between atoms: N_8  and  C_18 
REMARK    6  A    between atoms: C_21  and  N_13 
REMARK    7  A    between atoms: C_18  and  C_19 
REMARK    8  A    between atoms: C_19  and  C_21 
ROOT
ATOM      1  C   UNL d   1      10.167  -0.113   0.000  0.00  0.00     0.128 A 
ATOM      2  C   UNL d   1      10.579   0.608   0.000  0.00  0.00     0.015 A 
ATOM      3  C   UNL d   1      11.404   0.608   0.000  0.00  0.00     0.001 A 
ATOM      4  C   UNL d   1      10.579  -0.829   0.000  0.00  0.00     0.106 A 
ATOM      5  C   UNL d   1      11.817  -0.113   0.000  0.00  0.00     0.002 A 
ATOM      6  C   UNL d   1      11.404  -0.829   0.000  0.00  0.00     0.025 A 
ATOM      7  C   UNL d   1      12.642  -0.113   0.000  0.00  0.00     0.000 C 
ENDROOT
BRANCH   1   8
ATOM      8  S   UNL d   1       9.342  -0.113   0.000  0.00  0.00     0.287 S 
ATOM      9  O   UNL d   1       9.342  -0.938   0.000  0.00  0.00    -0.198 OA
ATOM     10  O   UNL d   1       9.342   0.713   0.000  0.00  0.00    -0.198 OA
BRANCH   8  11
ATOM     11  N   UNL d   1       8.512  -0.113   0.000  0.00  0.00    -0.157 NA
BRANCH  11  12
ATOM     12  C   UNL d   1       8.100   0.608   0.000  0.00  0.00     0.114 C 
BRANCH  12  13
ATOM     13  C   UNL d   1       7.275   0.608   0.000  0.00  0.00     0.041 C 
BRANCH  13  14
ATOM     14  C   UNL d   1       6.854   1.321   0.000  0.00  0.00     0.083 C 
BRANCH  14  15
ATOM     15  N   UNL d   1       6.029   1.321   0.000  0.00  0.00    -0.285 N 
ATOM     16  C   UNL d   1       5.550   0.650   0.000  0.00  0.00     0.183 A 
ATOM     17  N   UNL d   1       4.763   0.908   0.000  0.00  0.00    -0.222 NA
ATOM     18  C   UNL d   1       4.763   1.733   0.000  0.00  0.00     0.120 A 
ATOM     19  C   UNL d   1       5.550   1.988   0.000  0.00  0.00     0.102 A 
ENDBRANCH  14  15
ENDBRANCH  13  14
ENDBRANCH  12  13
ENDBRANCH  11  12
ENDBRANCH   8  11
ENDBRANCH   1   8
BRANCH   4  20
ATOM     20  O   UNL d   1      10.167  -1.542   0.000  0.00  0.00    -0.327 OA
ATOM     21  C   UNL d   1      10.579  -2.254   0.000  0.00  0.00     0.181 C 
ENDBRANCH   4  20
BRANCH   3  22
ATOM     22  C   UNL d   1      11.817   1.321   0.000  0.00  0.00     0.000 C 
ATOM     23  C   UNL d   1      12.642   1.321   0.000  0.00  0.00     0.000 C 
ATOM     24  C   UNL d   1      11.404   2.033   0.000  0.00  0.00     0.000 C 
ENDBRANCH   3  22
TORSDOF 8
