REMARK  3 active torsions:
REMARK  status: ('A' for Active; 'I' for Inactive)
REMARK    1  A    between atoms: C_2  and  S_1 
REMARK    2  A    between atoms: N_3  and  S_1 
REMARK    3  A    between atoms: C_9  and  N_3 
ROOT
ATOM      1  S   UNL d   1       9.048  -1.102   0.000  0.00  0.00     0.285 S 
ATOM      2  O   UNL d   1       9.044  -1.921   0.000  0.00  0.00    -0.198 OA
ATOM      3  O   UNL d   1       9.056  -0.276   0.000  0.00  0.00    -0.198 OA
ENDROOT
BRANCH   1   4
ATOM      4  C   UNL d   1       9.875  -1.107   0.000  0.00  0.00     0.105 A 
ATOM      5  C   UNL d   1      10.284  -1.821   0.000  0.00  0.00     0.013 A 
ATOM      6  C   UNL d   1      11.102  -1.829   0.000  0.00  0.00     0.001 A 
ATOM      7  C   UNL d   1      11.515  -2.547   0.000  0.00  0.00     0.000 C 
ATOM      8  C   UNL d   1      11.524  -1.119   0.000  0.00  0.00     0.000 A 
ATOM      9  C   UNL d   1      11.115  -0.401   0.000  0.00  0.00     0.001 A 
ATOM     10  C   UNL d   1      12.351  -1.119   0.000  0.00  0.00     0.000 C 
ATOM     11  C   UNL d   1      10.288  -0.393   0.000  0.00  0.00     0.012 A 
ATOM     12  C   UNL d   1       9.883   0.322   0.000  0.00  0.00     0.001 C 
ENDBRANCH   1   4
BRANCH   1  13
ATOM     13  N   UNL d   1       8.221  -1.094   0.000  0.00  0.00    -0.159 NA
BRANCH  13  14
ATOM     14  C   UNL d   1       7.820  -0.380   0.000  0.00  0.00     0.089 A 
ATOM     15  C   UNL d   1       6.994  -0.367   0.000  0.00  0.00     0.015 A 
ATOM     16  C   UNL d   1       6.589   0.346   0.000  0.00  0.00     0.100 A 
ATOM     17  C   UNL d   1       5.879   0.760   0.000  0.00  0.00     0.029 C 
ATOM     18  C   UNL d   1       5.875  -0.063   0.000  0.00  0.00     0.029 C 
ATOM     19  N   UNL d   1       7.006   1.052   0.000  0.00  0.00    -0.295 NA
ATOM     20  C   UNL d   1       7.829   1.048   0.000  0.00  0.00     0.100 A 
ATOM     21  C   UNL d   1       8.234   0.334   0.000  0.00  0.00     0.015 A 
ATOM     22  C   UNL d   1       8.547   1.453   0.000  0.00  0.00     0.029 C 
ATOM     23  C   UNL d   1       7.833   1.875   0.000  0.00  0.00     0.029 C 
ENDBRANCH  13  14
ENDBRANCH   1  13
TORSDOF 3
