REMARK  6 active torsions:
REMARK  status: ('A' for Active; 'I' for Inactive)
REMARK    1  A    between atoms: N_2  and  S_1 
REMARK    2  A    between atoms: C_5  and  S_1 
REMARK    3  A    between atoms: C_4  and  C_3 
REMARK       I    between atoms: N_6  and  C_4 
REMARK    4  A    between atoms: C_15  and  N_6 
REMARK    5  A    between atoms: C_9  and  C_10 
REMARK    6  A    between atoms: O_20  and  C_9 
ROOT
ATOM      1  N   UNL d   1       0.192   0.496   0.000  0.00  0.00    -0.226 N 
ATOM      2  C   UNL d   1       0.867   0.975   0.000  0.00  0.00     0.133 A 
ATOM      3  C   UNL d   1      -0.471   0.983   0.000  0.00  0.00     0.092 A 
ATOM      4  C   UNL d   1       0.612   1.762   0.000  0.00  0.00     0.025 A 
ATOM      5  C   UNL d   1      -0.212   1.762   0.000  0.00  0.00     0.021 A 
ENDROOT
BRANCH   2   6
ATOM      6  C   UNL d   1       1.650   0.712   0.000  0.00  0.00     0.296 C 
ATOM      7  N   UNL d   1       2.254   1.270   0.000  0.00  0.00    -0.207 NA
ATOM      8  O   UNL d   1       1.816  -0.092   0.000  0.00  0.00    -0.264 OA
BRANCH   7   9
ATOM      9  C   UNL d   1       3.041   1.008   0.000  0.00  0.00     0.085 A 
ATOM     10  C   UNL d   1       3.212   0.196   0.000  0.00  0.00     0.019 A 
ATOM     11  C   UNL d   1       3.991  -0.062   0.000  0.00  0.00     0.007 A 
ATOM     12  C   UNL d   1       4.611   0.487   0.000  0.00  0.00     0.063 A 
ATOM     13  C   UNL d   1       4.441   1.300   0.000  0.00  0.00     0.007 A 
ATOM     14  C   UNL d   1       3.653   1.558   0.000  0.00  0.00     0.019 A 
BRANCH  12  15
ATOM     15  C   UNL d   1       5.390   0.233   0.000  0.00  0.00     0.296 C 
ATOM     16  O   UNL d   1       6.011   0.783   0.000  0.00  0.00    -0.259 OA
BRANCH  15  17
ATOM     17  O   UNL d   1       5.565  -0.579   0.000  0.00  0.00    -0.296 OA
ATOM     18  C   UNL d   1       6.348  -0.837   0.000  0.00  0.00     0.185 C 
ENDBRANCH  15  17
ENDBRANCH  12  15
ENDBRANCH   7   9
ENDBRANCH   2   6
BRANCH   1  19
ATOM     19  S   UNL d   1       0.250  -0.329   0.000  0.00  0.00     0.271 S 
ATOM     20  O   UNL d   1      -0.571  -0.329   0.000  0.00  0.00    -0.200 OA
ATOM     21  O   UNL d   1       1.079  -0.317   0.000  0.00  0.00    -0.200 OA
BRANCH  19  22
ATOM     22  C   UNL d   1       0.254  -1.150   0.000  0.00  0.00     0.104 A 
ATOM     23  C   UNL d   1      -0.458  -1.566   0.000  0.00  0.00     0.013 A 
ATOM     24  C   UNL d   1      -0.450  -2.391   0.000  0.00  0.00     0.001 A 
ATOM     25  C   UNL d   1       0.267  -2.799   0.000  0.00  0.00     0.000 A 
ATOM     26  C   UNL d   1       0.979  -2.379   0.000  0.00  0.00     0.001 A 
ATOM     27  C   UNL d   1       0.275  -3.624   0.000  0.00  0.00     0.000 C 
ATOM     28  C   UNL d   1       0.979  -1.554   0.000  0.00  0.00     0.013 A 
ENDBRANCH  19  22
ENDBRANCH   1  19
TORSDOF 6
