REMARK  5 active torsions:
REMARK  status: ('A' for Active; 'I' for Inactive)
REMARK    1  A    between atoms: C_2  and  S_1 
REMARK    2  A    between atoms: N_3  and  S_1 
REMARK    3  A    between atoms: C_11  and  N_3 
REMARK    4  A    between atoms: O_13  and  C_5 
REMARK    5  A    between atoms: C_14  and  C_11 
ROOT
ATOM      1  S   UNL d   1       9.060  -0.125   0.000  0.00  0.00     0.285 S 
ATOM      2  O   UNL d   1       8.647   0.589   0.000  0.00  0.00    -0.198 OA
ATOM      3  O   UNL d   1       9.470  -0.839   0.000  0.00  0.00    -0.198 OA
ENDROOT
BRANCH   1   4
ATOM      4  C   UNL d   1       9.774   0.288   0.000  0.00  0.00     0.107 A 
ATOM      5  C   UNL d   1      10.488  -0.125   0.000  0.00  0.00     0.039 A 
ATOM      6  C   UNL d   1      11.202   0.288   0.000  0.00  0.00     0.122 A 
ATOM      7  C   UNL d   1      11.202   1.115   0.000  0.00  0.00     0.162 A 
ATOM      8  C   UNL d   1      10.488   1.524   0.000  0.00  0.00     0.032 A 
ATOM      9  F   UNL d   1      11.916   1.524   0.000  0.00  0.00    -0.202 F 
ATOM     10  C   UNL d   1       9.774   1.115   0.000  0.00  0.00     0.015 A 
BRANCH   6  11
ATOM     11  O   UNL d   1      11.916  -0.125   0.000  0.00  0.00    -0.326 OA
ATOM     12  C   UNL d   1      11.916  -0.952   0.000  0.00  0.00     0.181 C 
ENDBRANCH   6  11
ENDBRANCH   1   4
BRANCH   1  13
ATOM     13  N   UNL d   1       8.342  -0.539   0.000  0.00  0.00    -0.157 NA
BRANCH  13  14
ATOM     14  C   UNL d   1       7.628  -0.125   0.000  0.00  0.00     0.112 C 
BRANCH  14  15
ATOM     15  C   UNL d   1       6.914  -0.539   0.000  0.00  0.00     0.020 A 
ATOM     16  C   UNL d   1       6.914  -1.365   0.000  0.00  0.00     0.002 A 
ATOM     17  C   UNL d   1       6.192  -1.779   0.000  0.00  0.00     0.000 A 
ATOM     18  C   UNL d   1       5.478  -1.365   0.000  0.00  0.00     0.000 A 
ATOM     19  C   UNL d   1       5.478  -0.539   0.000  0.00  0.00     0.000 A 
ATOM     20  C   UNL d   1       6.192  -0.125   0.000  0.00  0.00     0.002 A 
ENDBRANCH  14  15
ENDBRANCH  13  14
ENDBRANCH   1  13
TORSDOF 5
