REMARK  3 active torsions:
REMARK  status: ('A' for Active; 'I' for Inactive)
REMARK    1  A    between atoms: S_3  and  N_1 
REMARK    2  A    between atoms: C_7  and  C_4 
REMARK    3  A    between atoms: C_11  and  C_5 
ROOT
ATOM      1  N   UNL d   1       3.461   1.567   0.000  0.00  0.00    -0.155 N 
ATOM      2  N   UNL d   1       2.662   1.844   0.000  0.00  0.00    -0.156 NA
ATOM      3  C   UNL d   1       3.925   2.256   0.000  0.00  0.00     0.102 A 
ATOM      4  C   UNL d   1       2.662   2.662   0.000  0.00  0.00     0.104 A 
ATOM      5  C   UNL d   1       3.461   2.909   0.000  0.00  0.00     0.041 A 
ENDROOT
BRANCH   4   6
ATOM      6  C   UNL d   1       2.004   3.127   0.000  0.00  0.00     0.019 A 
ATOM      7  C   UNL d   1       2.084   3.954   0.000  0.00  0.00     0.002 A 
ATOM      8  C   UNL d   1       1.426   4.448   0.000  0.00  0.00     0.007 A 
ATOM      9  C   UNL d   1       0.655   4.122   0.000  0.00  0.00     0.035 A 
ATOM     10  C   UNL d   1       0.575   3.292   0.000  0.00  0.00     0.007 A 
ATOM     11 BR   UNL d   1       0.000   4.612   0.000  0.00  0.00    -0.049 Br
ATOM     12  C   UNL d   1       1.236   2.798   0.000  0.00  0.00     0.002 A 
ENDBRANCH   4   6
BRANCH   1  13
ATOM     13  S   UNL d   1       3.708   0.802   0.000  0.00  0.00     0.266 S 
ATOM     14  O   UNL d   1       3.954   0.000   0.000  0.00  0.00    -0.203 OA
ATOM     15  O   UNL d   1       4.476   1.046   0.000  0.00  0.00    -0.203 OA
ATOM     16  C   UNL d   1       2.909   0.550   0.000  0.00  0.00     0.165 C 
ENDBRANCH   1  13
BRANCH   3  17
ATOM     17  C   UNL d   1       4.749   2.256   0.000  0.00  0.00     0.048 A 
ATOM     18  S   UNL d   1       5.247   2.909   0.000  0.00  0.00    -0.085 SA
ATOM     19  C   UNL d   1       6.016   2.662   0.000  0.00  0.00     0.035 A 
ATOM     20  C   UNL d   1       6.016   1.844   0.000  0.00  0.00     0.007 A 
ATOM     21  C   UNL d   1       5.247   1.590   0.000  0.00  0.00     0.009 A 
ENDBRANCH   3  17
TORSDOF 3
