REMARK  2 active torsions:
REMARK  status: ('A' for Active; 'I' for Inactive)
REMARK    1  A    between atoms: S_2  and  N_1 
REMARK    2  A    between atoms: C_8  and  S_2 
ROOT
ATOM      1  S   UNL d   1       2.658  -0.949   0.000  0.00  0.00     0.273 S 
ATOM      2  O   UNL d   1       2.667  -0.128   0.000  0.00  0.00    -0.200 OA
ATOM      3  O   UNL d   1       2.658  -1.774   0.000  0.00  0.00    -0.200 OA
ENDROOT
BRANCH   1   4
ATOM      4  N   UNL d   1       3.483  -0.940   0.000  0.00  0.00    -0.207 N 
ATOM      5  C   UNL d   1       3.836  -1.691   0.000  0.00  0.00     0.148 A 
ATOM      6  N   UNL d   1       4.647  -1.875   0.000  0.00  0.00    -0.198 NA
ATOM      7  C   UNL d   1       5.284  -1.375   0.000  0.00  0.00     0.066 A 
ATOM      8  C   UNL d   1       4.221  -0.981   0.000  0.00  0.00     0.169 A 
ATOM      9  C   UNL d   1       5.293  -0.555   0.000  0.00  0.00     0.066 A 
ATOM     10  N   UNL d   1       4.652  -0.032   0.000  0.00  0.00    -0.198 NA
ATOM     11  C   UNL d   1       3.850  -0.206   0.000  0.00  0.00     0.148 A 
ENDBRANCH   1   4
BRANCH   1  12
ATOM     12  C   UNL d   1       1.833  -0.949   0.000  0.00  0.00     0.104 A 
ATOM     13  C   UNL d   1       1.421  -0.234   0.000  0.00  0.00     0.013 A 
ATOM     14  C   UNL d   1       0.596  -0.234   0.000  0.00  0.00     0.001 A 
ATOM     15  C   UNL d   1       0.183  -0.949   0.000  0.00  0.00     0.000 A 
ATOM     16  C   UNL d   1       0.596  -1.664   0.000  0.00  0.00     0.001 A 
ATOM     17  C   UNL d   1      -0.642  -0.940   0.000  0.00  0.00     0.000 C 
ATOM     18  C   UNL d   1       1.421  -1.664   0.000  0.00  0.00     0.013 A 
ENDBRANCH   1  12
TORSDOF 2
