REMARK  0 active torsions:
REMARK  status: ('A' for Active; 'I' for Inactive)
ROOT
ATOM      1  C   UNL d   1       1.424   1.238   0.000  0.00  0.00     0.094 A 
ATOM      2  C   UNL d   1       1.424   0.413   0.000  0.00  0.00     0.143 A 
ATOM      3  S   UNL d   1       2.138   0.000   0.000  0.00  0.00    -0.055 SA
ATOM      4  C   UNL d   1       2.138   1.650   0.000  0.00  0.00     0.013 A 
ATOM      5  C   UNL d   1       2.853   0.413   0.000  0.00  0.00     0.086 A 
ATOM      6  C   UNL d   1       2.853   1.238   0.000  0.00  0.00     0.017 A 
ATOM      7  C   UNL d   1       0.709   1.650   0.000  0.00  0.00     0.103 C 
ATOM      8  N   UNL d   1       0.000   2.061   0.000  0.00  0.00    -0.191 NA
ATOM      9  S   UNL d   1       3.573   0.000   0.000  0.00  0.00    -0.071 SA
ATOM     10  N   UNL d   1       0.715   0.000   0.000  0.00  0.00    -0.140 N 
ATOM     11  C   UNL d   1       2.138   2.474   0.000  0.00  0.00     0.001 A 
ATOM     12  C   UNL d   1       3.568   1.650   0.000  0.00  0.00     0.001 A 
ATOM     13  C   UNL d   1       2.853   2.887   0.000  0.00  0.00     0.000 A 
ATOM     14  C   UNL d   1       3.568   2.474   0.000  0.00  0.00     0.000 A 
ENDROOT
TORSDOF 0
