REMARK  3 active torsions:
REMARK  status: ('A' for Active; 'I' for Inactive)
REMARK    1  A    between atoms: C_7  and  N_1 
REMARK    2  A    between atoms: C_8  and  C_2 
REMARK    3  A    between atoms: N_4  and  C_9 
ROOT
ATOM      1  N   UNL d   1       1.183  -2.033   0.000  0.00  0.00    -0.211 N 
ATOM      2  C   UNL d   1       0.514  -1.547   0.000  0.00  0.00     0.105 A 
ATOM      3  N   UNL d   1       0.925  -2.823   0.000  0.00  0.00    -0.060 NA
ATOM      4  N   UNL d   1       0.098  -2.823   0.000  0.00  0.00    -0.127 NA
ATOM      5  C   UNL d   1      -0.150  -2.033   0.000  0.00  0.00     0.143 A 
ENDROOT
BRANCH   1   6
ATOM      6  C   UNL d   1       1.967  -1.781   0.000  0.00  0.00     0.085 A 
ATOM      7  C   UNL d   1       2.141  -0.975   0.000  0.00  0.00     0.021 A 
ATOM      8  C   UNL d   1       2.924  -0.718   0.000  0.00  0.00     0.025 A 
ATOM      9  C   UNL d   1       3.537  -1.274   0.000  0.00  0.00     0.127 A 
ATOM     10  C   UNL d   1       3.367  -2.079   0.000  0.00  0.00     0.025 A 
ATOM     11  C   UNL d   1       2.583  -2.334   0.000  0.00  0.00     0.021 A 
BRANCH   9  12
ATOM     12  N   UNL d   1       4.323  -1.015   0.000  0.00  0.00    -0.114 N 
ATOM     13  O   UNL d   1       4.935  -1.569   0.000  0.00  0.00    -0.532 OA
ATOM     14  O   UNL d   1       4.492  -0.216   0.000  0.00  0.00    -0.532 OA
ENDBRANCH   9  12
ENDBRANCH   1   6
BRANCH   2  15
ATOM     15  C   UNL d   1       0.514  -0.722   0.000  0.00  0.00     0.019 A 
ATOM     16  C   UNL d   1      -0.201  -0.310   0.000  0.00  0.00     0.002 A 
ATOM     17  C   UNL d   1      -0.204   0.511   0.000  0.00  0.00     0.011 A 
ATOM     18  C   UNL d   1       0.514   0.932   0.000  0.00  0.00     0.058 A 
ATOM     19  C   UNL d   1       1.234   0.515   0.000  0.00  0.00     0.011 A 
ATOM     20 CL   UNL d   1       0.510   1.752   0.000  0.00  0.00    -0.082 Cl
ATOM     21  C   UNL d   1       1.234  -0.306   0.000  0.00  0.00     0.002 A 
ENDBRANCH   2  15
TORSDOF 3
