REMARK  5 active torsions:
REMARK  status: ('A' for Active; 'I' for Inactive)
REMARK    1  A    between atoms: N_3  and  S_1 
REMARK    2  A    between atoms: C_4  and  S_1 
REMARK    3  A    between atoms: S_2  and  N_5 
REMARK    4  A    between atoms: C_8  and  N_3 
REMARK    5  A    between atoms: N_5  and  C_15 
ROOT
ATOM      1  N   UNL d   1       5.058  -0.904   0.000  0.00  0.00    -0.229 N 
ATOM      2  C   UNL d   1       5.468  -0.191   0.000  0.00  0.00     0.111 C 
ENDROOT
BRANCH   1   3
ATOM      3  S   UNL d   1       4.230  -0.904   0.000  0.00  0.00     0.271 S 
ATOM      4  O   UNL d   1       4.644  -0.191   0.000  0.00  0.00    -0.200 OA
ATOM      5  O   UNL d   1       4.644  -1.628   0.000  0.00  0.00    -0.200 OA
BRANCH   3   6
ATOM      6  C   UNL d   1       3.401  -0.904   0.000  0.00  0.00     0.104 A 
ATOM      7  C   UNL d   1       2.986  -0.191   0.000  0.00  0.00     0.013 A 
ATOM      8  C   UNL d   1       2.173  -0.191   0.000  0.00  0.00     0.001 A 
ATOM      9  C   UNL d   1       1.759  -0.902   0.000  0.00  0.00     0.000 A 
ATOM     10  C   UNL d   1       2.168  -1.617   0.000  0.00  0.00     0.001 A 
ATOM     11  C   UNL d   1       0.930  -0.893   0.000  0.00  0.00     0.000 C 
ATOM     12  C   UNL d   1       2.986  -1.617   0.000  0.00  0.00     0.013 A 
ENDBRANCH   3   6
ENDBRANCH   1   3
BRANCH   1  13
ATOM     13  C   UNL d   1       5.471  -1.621   0.000  0.00  0.00     0.075 A 
ATOM     14  C   UNL d   1       5.053  -2.336   0.000  0.00  0.00     0.020 A 
ATOM     15  C   UNL d   1       5.468  -3.049   0.000  0.00  0.00     0.021 A 
ATOM     16  C   UNL d   1       6.300  -3.049   0.000  0.00  0.00     0.094 A 
ATOM     17  C   UNL d   1       6.709  -2.331   0.000  0.00  0.00     0.021 A 
ATOM     18  C   UNL d   1       6.295  -1.621   0.000  0.00  0.00     0.020 A 
BRANCH  16  19
ATOM     19  N   UNL d   1       6.714  -3.766   0.000  0.00  0.00    -0.162 NA
BRANCH  19  20
ATOM     20  S   UNL d   1       6.300  -4.490   0.000  0.00  0.00     0.266 S 
ATOM     21  O   UNL d   1       6.714  -5.200   0.000  0.00  0.00    -0.203 OA
ATOM     22  O   UNL d   1       5.885  -3.766   0.000  0.00  0.00    -0.203 OA
ATOM     23  C   UNL d   1       5.471  -4.490   0.000  0.00  0.00     0.165 C 
ENDBRANCH  19  20
ENDBRANCH  16  19
ENDBRANCH   1  13
TORSDOF 5
