REMARK  8 active torsions:
REMARK  status: ('A' for Active; 'I' for Inactive)
REMARK    1  A    between atoms: N_2  and  S_1 
REMARK    2  A    between atoms: C_6  and  S_1 
REMARK    3  A    between atoms: C_5  and  N_2 
REMARK    4  A    between atoms: C_4  and  C_3 
REMARK       I    between atoms: N_9  and  C_4 
REMARK    5  A    between atoms: C_14  and  N_9 
REMARK    6  A    between atoms: C_16  and  C_14 
REMARK    7  A    between atoms: O_20  and  C_15 
REMARK    8  A    between atoms: C_23  and  O_20 
ROOT
ATOM      1  C   UNL d   1       1.020   0.126   0.000  0.00  0.00     0.076 A 
ATOM      2  C   UNL d   1       1.024  -0.705   0.000  0.00  0.00     0.098 A 
ATOM      3  C   UNL d   1       0.306   0.536   0.000  0.00  0.00     0.006 A 
ATOM      4  C   UNL d   1       0.306  -1.120   0.000  0.00  0.00     0.020 A 
ATOM      5  C   UNL d   1      -0.408   0.122   0.000  0.00  0.00     0.000 A 
ATOM      6  C   UNL d   1      -0.408  -0.705   0.000  0.00  0.00     0.002 A 
ENDROOT
BRANCH   2   7
ATOM      7  N   UNL d   1       1.738  -1.117   0.000  0.00  0.00    -0.158 NA
BRANCH   7   8
ATOM      8  S   UNL d   1       1.741  -1.941   0.000  0.00  0.00     0.285 S 
ATOM      9  O   UNL d   1       2.562  -1.941   0.000  0.00  0.00    -0.198 OA
ATOM     10  O   UNL d   1       0.912  -1.937   0.000  0.00  0.00    -0.198 OA
BRANCH   8  11
ATOM     11  C   UNL d   1       1.747  -2.765   0.000  0.00  0.00     0.105 A 
ATOM     12  C   UNL d   1       1.037  -3.184   0.000  0.00  0.00     0.015 A 
ATOM     13  C   UNL d   1       1.045  -4.008   0.000  0.00  0.00     0.025 A 
ATOM     14  C   UNL d   1       1.763  -4.414   0.000  0.00  0.00     0.100 A 
ATOM     15  C   UNL d   1       2.477  -3.990   0.000  0.00  0.00     0.025 A 
ATOM     16  C   UNL d   1       2.465  -3.169   0.000  0.00  0.00     0.015 A 
BRANCH  14  17
ATOM     17  O   UNL d   1       1.772  -5.236   0.000  0.00  0.00    -0.305 OA
BRANCH  17  18
ATOM     18  C   UNL d   1       2.492  -5.642   0.000  0.00  0.00     0.123 C 
ATOM     19  C   UNL d   1       3.201  -5.220   0.000  0.00  0.00     0.029 C 
ENDBRANCH  17  18
ENDBRANCH  14  17
ENDBRANCH   8  11
ENDBRANCH   7   8
ENDBRANCH   2   7
BRANCH   1  20
ATOM     20  C   UNL d   1       1.734   0.541   0.000  0.00  0.00     0.281 C 
ATOM     21  N   UNL d   1       2.451   0.131   0.000  0.00  0.00    -0.204 NA
ATOM     22  O   UNL d   1       1.729   1.366   0.000  0.00  0.00    -0.265 OA
BRANCH  21  23
ATOM     23  C   UNL d   1       3.162   0.551   0.000  0.00  0.00     0.127 C 
BRANCH  23  24
ATOM     24  C   UNL d   1       3.880   0.145   0.000  0.00  0.00     0.119 A 
ATOM     25  O   UNL d   1       3.971  -0.671   0.000  0.00  0.00    -0.304 OA
ATOM     26  C   UNL d   1       4.779  -0.838   0.000  0.00  0.00     0.123 A 
ATOM     27  C   UNL d   1       5.185  -0.119   0.000  0.00  0.00     0.029 A 
ATOM     28  C   UNL d   1       4.628   0.489   0.000  0.00  0.00     0.028 A 
ENDBRANCH  23  24
ENDBRANCH  21  23
ENDBRANCH   1  20
TORSDOF 8
