REMARK  3 active torsions:
REMARK  status: ('A' for Active; 'I' for Inactive)
REMARK    1  A    between atoms: C_6  and  C_1 
REMARK    2  A    between atoms: C_10  and  C_3 
REMARK    3  A    between atoms: C_8  and  N_4 
REMARK       I    between atoms: N_7  and  C_6 
ROOT
ATOM      1  C   UNL d   1       1.169  -2.283   0.000  0.00  0.00     0.095 A 
ATOM      2  N   UNL d   1      -0.065  -2.999   0.000  0.00  0.00    -0.165 NA
ATOM      3  C   UNL d   1       0.345  -2.289   0.000  0.00  0.00     0.107 A 
ATOM      4  N   UNL d   1       1.169  -3.717   0.000  0.00  0.00    -0.228 N 
ATOM      5  C   UNL d   1       1.574  -2.999   0.000  0.00  0.00     0.107 A 
ENDROOT
BRANCH   1   6
ATOM      6  C   UNL d   1       1.574  -1.565   0.000  0.00  0.00     0.268 C 
ATOM      7  N   UNL d   1       2.432  -1.565   0.000  0.00  0.00    -0.272 N 
ATOM      8  C   UNL d   1       2.860  -0.826   0.000  0.00  0.00     0.083 A 
ATOM      9  C   UNL d   1       2.860  -2.304   0.000  0.00  0.00     0.083 A 
ATOM     10  C   UNL d   1       3.713  -0.826   0.000  0.00  0.00     0.019 A 
ATOM     11  C   UNL d   1       4.134  -1.565   0.000  0.00  0.00     0.003 A 
ATOM     12  C   UNL d   1       3.713  -2.304   0.000  0.00  0.00     0.019 A 
ATOM     13  O   UNL d   1       1.169  -0.860   0.000  0.00  0.00    -0.267 OA
ENDBRANCH   1   6
BRANCH   3  14
ATOM     14  C   UNL d   1      -0.071  -1.574   0.000  0.00  0.00     0.023 A 
ATOM     15  C   UNL d   1      -0.896  -1.584   0.000  0.00  0.00     0.022 A 
ATOM     16  C   UNL d   1      -1.306  -0.869   0.000  0.00  0.00     0.099 A 
ATOM     17  N   UNL d   1      -0.896  -0.152   0.000  0.00  0.00    -0.242 NA
ATOM     18  C   UNL d   1      -0.071  -0.152   0.000  0.00  0.00     0.099 A 
ATOM     19  C   UNL d   1       0.340  -0.864   0.000  0.00  0.00     0.022 A 
ENDBRANCH   3  14
BRANCH   4  20
ATOM     20  C   UNL d   1       1.384  -4.509   0.000  0.00  0.00     0.083 A 
ATOM     21  C   UNL d   1       2.175  -4.718   0.000  0.00  0.00     0.019 A 
ATOM     22  C   UNL d   1       2.389  -5.511   0.000  0.00  0.00     0.002 A 
ATOM     23  C   UNL d   1       1.808  -6.100   0.000  0.00  0.00     0.000 A 
ATOM     24  C   UNL d   1       1.007  -5.886   0.000  0.00  0.00     0.002 A 
ATOM     25  C   UNL d   1       0.793  -5.087   0.000  0.00  0.00     0.019 A 
ENDBRANCH   4  20
TORSDOF 3
