REMARK  4 active torsions:
REMARK  status: ('A' for Active; 'I' for Inactive)
REMARK    1  A    between atoms: N_2  and  S_1 
REMARK    2  A    between atoms: C_3  and  S_1 
REMARK    3  A    between atoms: C_11  and  N_2 
REMARK    4  A    between atoms: C_6  and  C_7 
ROOT
ATOM      1  S   UNL d   1      -2.534   0.300   0.000  0.00  0.00     0.285 S 
ATOM      2  O   UNL d   1      -2.534  -0.525   0.000  0.00  0.00    -0.198 OA
ATOM      3  O   UNL d   1      -2.534   1.125   0.000  0.00  0.00    -0.198 OA
ENDROOT
BRANCH   1   4
ATOM      4  N   UNL d   1      -1.709   0.300   0.000  0.00  0.00    -0.158 NA
BRANCH   4   5
ATOM      5  C   UNL d   1      -1.290   1.011   0.000  0.00  0.00     0.094 A 
ATOM      6  C   UNL d   1      -0.465   1.011   0.000  0.00  0.00     0.020 A 
ATOM      7  C   UNL d   1      -0.051   1.722   0.000  0.00  0.00     0.005 A 
ATOM      8  C   UNL d   1      -0.465   2.445   0.000  0.00  0.00     0.039 A 
ATOM      9  C   UNL d   1      -1.290   2.445   0.000  0.00  0.00     0.005 A 
ATOM     10  C   UNL d   1      -1.709   1.735   0.000  0.00  0.00     0.020 A 
BRANCH   8  11
ATOM     11  C   UNL d   1      -0.051   3.169   0.000  0.00  0.00     0.196 C 
ATOM     12  O   UNL d   1      -0.465   3.880   0.000  0.00  0.00    -0.287 OA
ATOM     13  C   UNL d   1       0.787   3.182   0.000  0.00  0.00     0.045 C 
ENDBRANCH   8  11
ENDBRANCH   4   5
ENDBRANCH   1   4
BRANCH   1  14
ATOM     14  C   UNL d   1      -3.359   0.300   0.000  0.00  0.00     0.105 A 
ATOM     15  C   UNL d   1      -3.765   1.011   0.000  0.00  0.00     0.013 A 
ATOM     16  C   UNL d   1      -4.603   1.011   0.000  0.00  0.00     0.001 A 
ATOM     17  C   UNL d   1      -5.013   0.300   0.000  0.00  0.00     0.000 A 
ATOM     18  C   UNL d   1      -4.603  -0.419   0.000  0.00  0.00     0.001 A 
ATOM     19  C   UNL d   1      -5.838   0.300   0.000  0.00  0.00     0.000 C 
ATOM     20  C   UNL d   1      -3.765  -0.419   0.000  0.00  0.00     0.013 A 
ENDBRANCH   1  14
TORSDOF 4
