REMARK  3 active torsions:
REMARK  status: ('A' for Active; 'I' for Inactive)
REMARK    1  A    between atoms: C_9  and  C_5 
REMARK    2  A    between atoms: C_10  and  C_6 
REMARK    3  A    between atoms: O_16  and  C_13 
ROOT
ATOM      1  N   UNL d   1       7.204  -0.067   0.000  0.00  0.00    -0.205 N 
ATOM      2  C   UNL d   1       7.454  -0.854   0.000  0.00  0.00     0.197 A 
ATOM      3  N   UNL d   1       6.779  -1.337   0.000  0.00  0.00    -0.200 NA
ATOM      4  N   UNL d   1       6.379  -0.062   0.000  0.00  0.00    -0.144 NA
ATOM      5  C   UNL d   1       6.117  -0.842   0.000  0.00  0.00     0.184 A 
ATOM      6  C   UNL d   1       7.875   0.421   0.000  0.00  0.00     0.092 A 
ATOM      7  S   UNL d   1       8.287  -0.854   0.000  0.00  0.00    -0.046 SA
ATOM      8  C   UNL d   1       8.542  -0.062   0.000  0.00  0.00     0.058 A 
ENDROOT
BRANCH   5   9
ATOM      9  C   UNL d   1       5.338  -1.092   0.000  0.00  0.00     0.038 A 
ATOM     10  C   UNL d   1       4.729  -0.542   0.000  0.00  0.00     0.005 A 
ATOM     11  C   UNL d   1       3.942  -0.792   0.000  0.00  0.00     0.024 A 
ATOM     12  C   UNL d   1       3.767  -1.592   0.000  0.00  0.00     0.094 A 
ATOM     13  C   UNL d   1       4.379  -2.154   0.000  0.00  0.00     0.024 A 
ATOM     14  C   UNL d   1       5.162  -1.900   0.000  0.00  0.00     0.005 A 
BRANCH  12  15
ATOM     15  O   UNL d   1       2.979  -1.842   0.000  0.00  0.00    -0.328 OA
ATOM     16  C   UNL d   1       2.804  -2.654   0.000  0.00  0.00     0.181 C 
ENDBRANCH  12  15
ENDBRANCH   5   9
BRANCH   6  17
ATOM     17  C   UNL d   1       7.867   1.250   0.000  0.00  0.00     0.018 A 
ATOM     18  C   UNL d   1       7.154   1.663   0.000  0.00  0.00     0.002 A 
ATOM     19  C   UNL d   1       7.150   2.487   0.000  0.00  0.00     0.000 A 
ATOM     20  C   UNL d   1       7.867   2.908   0.000  0.00  0.00     0.000 A 
ATOM     21  C   UNL d   1       8.579   2.496   0.000  0.00  0.00     0.000 A 
ATOM     22  C   UNL d   1       8.588   1.671   0.000  0.00  0.00     0.002 A 
ENDBRANCH   6  17
TORSDOF 3
