REMARK  7 active torsions:
REMARK  status: ('A' for Active; 'I' for Inactive)
REMARK    1  A    between atoms: C_6  and  C_1 
REMARK    2  A    between atoms: C_9  and  N_3 
REMARK    3  A    between atoms: C_11  and  C_4 
REMARK       I    between atoms: N_7  and  C_6 
REMARK    4  A    between atoms: C_15  and  N_7 
REMARK    5  A    between atoms: C_8  and  C_10 
REMARK    6  A    between atoms: O_18  and  C_8 
REMARK    7  A    between atoms: C_27  and  O_18 
ROOT
ATOM      1  C   UNL d   1      -1.362   0.136   0.000  0.00  0.00     0.096 A 
ATOM      2  N   UNL d   1      -2.600   0.843   0.000  0.00  0.00    -0.165 NA
ATOM      3  N   UNL d   1      -2.596  -0.579   0.000  0.00  0.00    -0.228 N 
ATOM      4  C   UNL d   1      -1.778   0.851   0.000  0.00  0.00     0.108 A 
ATOM      5  C   UNL d   1      -1.778  -0.575   0.000  0.00  0.00     0.107 A 
ENDROOT
BRANCH   1   6
ATOM      6  C   UNL d   1      -0.542   0.140   0.000  0.00  0.00     0.282 C 
ATOM      7  N   UNL d   1      -0.107  -0.596   0.000  0.00  0.00    -0.208 NA
ATOM      8  O   UNL d   1      -0.136   0.853   0.000  0.00  0.00    -0.265 OA
BRANCH   7   9
ATOM      9  C   UNL d   1       0.738  -0.588   0.000  0.00  0.00     0.085 A 
ATOM     10  C   UNL d   1       1.161   0.140   0.000  0.00  0.00     0.019 A 
ATOM     11  C   UNL d   1       2.006   0.146   0.000  0.00  0.00     0.007 A 
ATOM     12  C   UNL d   1       2.433  -0.588   0.000  0.00  0.00     0.064 A 
ATOM     13  C   UNL d   1       2.006  -1.314   0.000  0.00  0.00     0.007 A 
ATOM     14  C   UNL d   1       1.161  -1.314   0.000  0.00  0.00     0.019 A 
BRANCH  12  15
ATOM     15  C   UNL d   1       3.284  -0.588   0.000  0.00  0.00     0.300 C 
ATOM     16  O   UNL d   1       3.710   0.146   0.000  0.00  0.00    -0.259 OA
BRANCH  15  17
ATOM     17  O   UNL d   1       3.710  -1.322   0.000  0.00  0.00    -0.271 OA
BRANCH  17  18
ATOM     18  C   UNL d   1       4.554  -1.322   0.000  0.00  0.00     0.126 C 
ATOM     19  C   UNL d   1       4.972  -2.048   0.000  0.00  0.00     0.029 C 
ENDBRANCH  17  18
ENDBRANCH  15  17
ENDBRANCH  12  15
ENDBRANCH   7   9
ENDBRANCH   1   6
BRANCH   4  20
ATOM     20  C   UNL d   1      -1.378   1.555   0.000  0.00  0.00     0.023 A 
ATOM     21  C   UNL d   1      -1.789   2.266   0.000  0.00  0.00     0.022 A 
ATOM     22  C   UNL d   1      -1.389   2.981   0.000  0.00  0.00     0.099 A 
ATOM     23  N   UNL d   1      -0.562   2.985   0.000  0.00  0.00    -0.242 NA
ATOM     24  C   UNL d   1      -0.146   2.278   0.000  0.00  0.00     0.099 A 
ATOM     25  C   UNL d   1      -0.554   1.563   0.000  0.00  0.00     0.022 A 
ENDBRANCH   4  20
BRANCH   3  26
ATOM     26  C   UNL d   1      -3.174  -1.161   0.000  0.00  0.00     0.083 A 
ATOM     27  C   UNL d   1      -2.952  -1.950   0.000  0.00  0.00     0.019 A 
ATOM     28  C   UNL d   1      -3.532  -2.530   0.000  0.00  0.00     0.002 A 
ATOM     29  C   UNL d   1      -4.331  -2.324   0.000  0.00  0.00     0.000 A 
ATOM     30  C   UNL d   1      -4.549  -1.528   0.000  0.00  0.00     0.002 A 
ATOM     31  C   UNL d   1      -3.970  -0.948   0.000  0.00  0.00     0.019 A 
ENDBRANCH   3  26
TORSDOF 7
