REMARK  3 active torsions:
REMARK  status: ('A' for Active; 'I' for Inactive)
REMARK    1  A    between atoms: C_10  and  N_2 
REMARK    2  A    between atoms: C_15  and  C_3 
REMARK    3  A    between atoms: C_6  and  C_4 
ROOT
ATOM      1  N   UNL d   1       1.773  -3.479   0.000  0.00  0.00    -0.165 NA
ATOM      2  N   UNL d   1       3.199  -3.479   0.000  0.00  0.00    -0.228 N 
ATOM      3  C   UNL d   1       2.488  -2.245   0.000  0.00  0.00     0.081 A 
ATOM      4  C   UNL d   1       1.773  -2.654   0.000  0.00  0.00     0.106 A 
ATOM      5  C   UNL d   1       3.199  -2.654   0.000  0.00  0.00     0.105 A 
ENDROOT
BRANCH   4   6
ATOM      6  C   UNL d   1       1.055  -2.245   0.000  0.00  0.00     0.022 A 
ATOM      7  C   UNL d   1       0.346  -2.663   0.000  0.00  0.00     0.028 A 
ATOM      8  C   UNL d   1      -0.373  -2.255   0.000  0.00  0.00     0.123 A 
ATOM      9  O   UNL d   1      -1.084  -2.675   0.000  0.00  0.00    -0.301 OA
ATOM     10  C   UNL d   1      -0.373  -1.417   0.000  0.00  0.00     0.123 A 
ATOM     11  C   UNL d   1      -1.810  -2.255   0.000  0.00  0.00     0.149 A 
ATOM     12  C   UNL d   1      -1.810  -1.426   0.000  0.00  0.00     0.149 A 
ATOM     13  O   UNL d   1      -1.091  -1.012   0.000  0.00  0.00    -0.301 OA
ATOM     14  C   UNL d   1       0.342  -1.012   0.000  0.00  0.00     0.027 A 
ATOM     15  C   UNL d   1       1.055  -1.417   0.000  0.00  0.00     0.004 A 
ENDBRANCH   4   6
BRANCH   3  16
ATOM     16  C   UNL d   1       2.488  -1.383   0.000  0.00  0.00     0.237 C 
ATOM     17  O   UNL d   1       3.229  -0.965   0.000  0.00  0.00    -0.283 OA
ENDBRANCH   3  16
BRANCH   2  18
ATOM     18  C   UNL d   1       3.778  -4.066   0.000  0.00  0.00     0.083 A 
ATOM     19  C   UNL d   1       3.565  -4.862   0.000  0.00  0.00     0.019 A 
ATOM     20  C   UNL d   1       4.152  -5.443   0.000  0.00  0.00     0.002 A 
ATOM     21  C   UNL d   1       4.947  -5.228   0.000  0.00  0.00     0.000 A 
ATOM     22  C   UNL d   1       5.160  -4.428   0.000  0.00  0.00     0.002 A 
ATOM     23  C   UNL d   1       4.573  -3.850   0.000  0.00  0.00     0.019 A 
ENDBRANCH   2  18
TORSDOF 3
