REMARK  3 active torsions:
REMARK  status: ('A' for Active; 'I' for Inactive)
REMARK       I    between atoms: C_4  and  N_1 
REMARK    1  A    between atoms: C_7  and  C_3 
REMARK    2  A    between atoms: C_9  and  C_4 
REMARK    3  A    between atoms: C_8  and  C_5 
ROOT
ATOM      1  N   UNL d   1       3.435   2.640   0.000  0.00  0.00    -0.191 N 
ATOM      2  N   UNL d   1       2.665   2.913   0.000  0.00  0.00    -0.163 NA
ATOM      3  C   UNL d   1       3.929   3.324   0.000  0.00  0.00     0.110 A 
ATOM      4  C   UNL d   1       3.684   1.870   0.000  0.00  0.00     0.303 C 
ATOM      5  C   UNL d   1       2.665   3.738   0.000  0.00  0.00     0.103 A 
ATOM      6  C   UNL d   1       3.435   3.987   0.000  0.00  0.00     0.042 A 
ATOM      7  O   UNL d   1       4.537   1.705   0.000  0.00  0.00    -0.263 OA
ENDROOT
BRANCH   3   8
ATOM      8  C   UNL d   1       4.754   3.324   0.000  0.00  0.00     0.118 A 
ATOM      9  O   UNL d   1       5.224   3.987   0.000  0.00  0.00    -0.304 OA
ATOM     10  C   UNL d   1       6.023   3.738   0.000  0.00  0.00     0.123 A 
ATOM     11  C   UNL d   1       6.023   2.913   0.000  0.00  0.00     0.029 A 
ATOM     12  C   UNL d   1       5.224   2.665   0.000  0.00  0.00     0.028 A 
ENDBRANCH   3   8
BRANCH   4  13
ATOM     13  C   UNL d   1       3.163   1.241   0.000  0.00  0.00     0.158 A 
ATOM     14  O   UNL d   1       3.355   0.442   0.000  0.00  0.00    -0.300 OA
ATOM     15  C   UNL d   1       2.665   0.000   0.000  0.00  0.00     0.123 A 
ATOM     16  C   UNL d   1       2.033   0.525   0.000  0.00  0.00     0.029 A 
ATOM     17  C   UNL d   1       2.335   1.297   0.000  0.00  0.00     0.032 A 
ENDBRANCH   4  13
BRANCH   5  18
ATOM     18  C   UNL d   1       1.976   4.207   0.000  0.00  0.00     0.019 A 
ATOM     19  C   UNL d   1       2.062   5.003   0.000  0.00  0.00     0.002 A 
ATOM     20  C   UNL d   1       1.402   5.497   0.000  0.00  0.00     0.007 A 
ATOM     21  C   UNL d   1       0.656   5.166   0.000  0.00  0.00     0.035 A 
ATOM     22  C   UNL d   1       0.547   4.340   0.000  0.00  0.00     0.007 A 
ATOM     23 BR   UNL d   1       0.000   5.665   0.000  0.00  0.00    -0.049 Br
ATOM     24  C   UNL d   1       1.238   3.849   0.000  0.00  0.00     0.002 A 
ENDBRANCH   5  18
TORSDOF 3
