REMARK  3 active torsions:
REMARK  status: ('A' for Active; 'I' for Inactive)
REMARK       I    between atoms: C_4  and  N_1 
REMARK    1  A    between atoms: C_7  and  C_3 
REMARK    2  A    between atoms: C_9  and  C_4 
REMARK    3  A    between atoms: C_8  and  C_5 
ROOT
ATOM      1  N   UNL d   1       3.436   2.641   0.000  0.00  0.00    -0.191 N 
ATOM      2  N   UNL d   1       2.666   2.914   0.000  0.00  0.00    -0.163 NA
ATOM      3  C   UNL d   1       3.930   3.325   0.000  0.00  0.00     0.110 A 
ATOM      4  C   UNL d   1       3.686   1.870   0.000  0.00  0.00     0.303 C 
ATOM      5  C   UNL d   1       2.666   3.739   0.000  0.00  0.00     0.103 A 
ATOM      6  C   UNL d   1       3.436   3.989   0.000  0.00  0.00     0.042 A 
ATOM      7  O   UNL d   1       4.539   1.706   0.000  0.00  0.00    -0.263 OA
ENDROOT
BRANCH   3   8
ATOM      8  C   UNL d   1       4.756   3.325   0.000  0.00  0.00     0.118 A 
ATOM      9  O   UNL d   1       5.226   3.989   0.000  0.00  0.00    -0.304 OA
ATOM     10  C   UNL d   1       6.025   3.739   0.000  0.00  0.00     0.123 A 
ATOM     11  C   UNL d   1       6.025   2.914   0.000  0.00  0.00     0.029 A 
ATOM     12  C   UNL d   1       5.226   2.666   0.000  0.00  0.00     0.028 A 
ENDBRANCH   3   8
BRANCH   4  13
ATOM     13  C   UNL d   1       3.165   1.241   0.000  0.00  0.00     0.158 A 
ATOM     14  O   UNL d   1       3.356   0.443   0.000  0.00  0.00    -0.300 OA
ATOM     15  C   UNL d   1       2.666   0.000   0.000  0.00  0.00     0.123 A 
ATOM     16  C   UNL d   1       2.033   0.526   0.000  0.00  0.00     0.029 A 
ATOM     17  C   UNL d   1       2.336   1.298   0.000  0.00  0.00     0.032 A 
ENDBRANCH   4  13
BRANCH   5  18
ATOM     18  C   UNL d   1       1.977   4.208   0.000  0.00  0.00     0.019 A 
ATOM     19  C   UNL d   1       2.063   5.005   0.000  0.00  0.00     0.002 A 
ATOM     20  C   UNL d   1       1.403   5.499   0.000  0.00  0.00     0.000 A 
ATOM     21  C   UNL d   1       0.656   5.168   0.000  0.00  0.00     0.000 A 
ATOM     22  C   UNL d   1       0.548   4.341   0.000  0.00  0.00     0.000 A 
ATOM     23  C   UNL d   1       0.000   5.667   0.000  0.00  0.00     0.000 C 
ATOM     24  C   UNL d   1       1.238   3.850   0.000  0.00  0.00     0.002 A 
ENDBRANCH   5  18
TORSDOF 3
