REMARK  2 active torsions:
REMARK  status: ('A' for Active; 'I' for Inactive)
REMARK    1  A    between atoms: N_5  and  C_1 
REMARK    2  A    between atoms: C_8  and  C_4 
ROOT
ATOM      1  C   UNL d   1       2.831   2.472   0.000  0.00  0.00     0.166 A 
ATOM      2  N   UNL d   1       2.117   2.852   0.000  0.00  0.00    -0.225 NA
ATOM      3  N   UNL d   1       2.117   1.238   0.000  0.00  0.00    -0.241 NA
ATOM      4  C   UNL d   1       2.831   1.650   0.000  0.00  0.00     0.116 A 
ATOM      5  C   UNL d   1       1.401   2.472   0.000  0.00  0.00     0.101 A 
ATOM      6  C   UNL d   1       1.401   1.650   0.000  0.00  0.00     0.099 A 
ATOM      7  C   UNL d   1       0.686   2.852   0.000  0.00  0.00     0.021 A 
ATOM      8  C   UNL d   1       0.686   1.238   0.000  0.00  0.00     0.021 A 
ATOM      9  C   UNL d   1       0.000   1.650   0.000  0.00  0.00     0.002 A 
ATOM     10  C   UNL d   1       0.000   2.472   0.000  0.00  0.00     0.002 A 
ENDROOT
BRANCH   1  11
ATOM     11  N   UNL d   1       3.544   2.852   0.000  0.00  0.00    -0.284 N 
ATOM     12  C   UNL d   1       4.231   2.389   0.000  0.00  0.00     0.108 A 
ATOM     13  C   UNL d   1       4.975   2.777   0.000  0.00  0.00     0.142 A 
ATOM     14  O   UNL d   1       5.005   3.597   0.000  0.00  0.00    -0.300 OA
ATOM     15  C   UNL d   1       4.317   4.039   0.000  0.00  0.00     0.142 A 
ATOM     16  C   UNL d   1       3.571   3.683   0.000  0.00  0.00     0.108 A 
ENDBRANCH   1  11
BRANCH   4  17
ATOM     17  C   UNL d   1       3.544   1.238   0.000  0.00  0.00     0.021 A 
ATOM     18  C   UNL d   1       4.259   1.650   0.000  0.00  0.00     0.002 A 
ATOM     19  C   UNL d   1       4.975   1.238   0.000  0.00  0.00     0.000 A 
ATOM     20  C   UNL d   1       4.975   0.413   0.000  0.00  0.00     0.000 A 
ATOM     21  C   UNL d   1       4.259   0.000   0.000  0.00  0.00     0.000 A 
ATOM     22  C   UNL d   1       3.544   0.413   0.000  0.00  0.00     0.002 A 
ENDBRANCH   4  17
TORSDOF 2
