REMARK  3 active torsions:
REMARK  status: ('A' for Active; 'I' for Inactive)
REMARK    1  A    between atoms: C_8  and  N_1 
REMARK    2  A    between atoms: C_6  and  C_2 
REMARK    3  A    between atoms: C_14  and  C_8 
ROOT
ATOM      1  N   UNL d   1      -2.971   1.096   0.000  0.00  0.00    -0.289 N 
ATOM      2  C   UNL d   1      -2.487   1.771   0.000  0.00  0.00     0.154 A 
ATOM      3  N   UNL d   1      -2.975   2.433   0.000  0.00  0.00    -0.226 NA
ATOM      4  C   UNL d   1      -3.758   1.346   0.000  0.00  0.00     0.083 A 
ATOM      5  C   UNL d   1      -3.763   2.171   0.000  0.00  0.00     0.099 A 
ATOM      6  C   UNL d   1      -4.483   0.933   0.000  0.00  0.00     0.019 A 
ATOM      7  C   UNL d   1      -4.483   2.583   0.000  0.00  0.00     0.021 A 
ATOM      8  C   UNL d   1      -5.196   1.346   0.000  0.00  0.00     0.002 A 
ATOM      9  C   UNL d   1      -5.196   2.171   0.000  0.00  0.00     0.002 A 
ENDROOT
BRANCH   2  10
ATOM     10  C   UNL d   1      -1.663   1.771   0.000  0.00  0.00     0.064 A 
ATOM     11  S   UNL d   1      -1.150   1.262   0.000  0.00  0.00    -0.083 SA
ATOM     12  C   UNL d   1      -0.458   1.458   0.000  0.00  0.00     0.035 A 
ATOM     13  C   UNL d   1      -0.271   2.150   0.000  0.00  0.00     0.008 A 
ATOM     14  C   UNL d   1      -0.783   2.658   0.000  0.00  0.00     0.010 A 
ENDBRANCH   2  10
BRANCH   1  15
ATOM     15  C   UNL d   1      -2.558   0.383   0.000  0.00  0.00     0.082 C 
BRANCH  15  16
ATOM     16  C   UNL d   1      -2.971  -0.329   0.000  0.00  0.00     0.018 C 
ATOM     17  C   UNL d   1      -2.558  -1.042   0.000  0.00  0.00     0.002 C 
ATOM     18  C   UNL d   1      -3.796  -0.329   0.000  0.00  0.00     0.002 C 
ENDBRANCH  15  16
ENDBRANCH   1  15
TORSDOF 3
