REMARK  5 active torsions:
REMARK  status: ('A' for Active; 'I' for Inactive)
REMARK    1  A    between atoms: C_6  and  C_1 
REMARK    2  A    between atoms: C_11  and  N_3 
REMARK    3  A    between atoms: C_20  and  C_11 
REMARK    4  A    between atoms: C_13  and  O_19 
REMARK    5  A    between atoms: O_19  and  C_20 
ROOT
ATOM      1  C   UNL d   1      -1.389   2.337   0.000  0.00  0.00     0.171 A 
ATOM      2  N   UNL d   1      -1.878   3.004   0.000  0.00  0.00    -0.225 NA
ATOM      3  N   UNL d   1      -1.873   1.661   0.000  0.00  0.00    -0.286 N 
ATOM      4  C   UNL d   1      -2.662   1.911   0.000  0.00  0.00     0.083 A 
ATOM      5  C   UNL d   1      -2.666   2.741   0.000  0.00  0.00     0.099 A 
ATOM      6  C   UNL d   1      -3.388   1.498   0.000  0.00  0.00     0.019 A 
ATOM      7  C   UNL d   1      -3.388   3.154   0.000  0.00  0.00     0.021 A 
ATOM      8  C   UNL d   1      -4.101   1.911   0.000  0.00  0.00     0.002 A 
ATOM      9  C   UNL d   1      -4.101   2.741   0.000  0.00  0.00     0.002 A 
ENDROOT
BRANCH   3  10
ATOM     10  C   UNL d   1      -1.460   0.947   0.000  0.00  0.00     0.108 C 
BRANCH  10  11
ATOM     11  C   UNL d   1      -1.873   0.234   0.000  0.00  0.00     0.142 C 
BRANCH  11  12
ATOM     12  O   UNL d   1      -1.460  -0.480   0.000  0.00  0.00    -0.304 OA
BRANCH  12  13
ATOM     13  C   UNL d   1      -1.873  -1.193   0.000  0.00  0.00     0.100 A 
ATOM     14  C   UNL d   1      -1.452  -1.903   0.000  0.00  0.00     0.026 A 
ATOM     15  C   UNL d   1      -1.861  -2.620   0.000  0.00  0.00     0.013 A 
ATOM     16  C   UNL d   1      -2.691  -2.620   0.000  0.00  0.00     0.058 A 
ATOM     17  C   UNL d   1      -3.104  -1.907   0.000  0.00  0.00     0.013 A 
ATOM     18 CL   UNL d   1      -3.100  -3.334   0.000  0.00  0.00    -0.082 Cl
ATOM     19  C   UNL d   1      -2.691  -1.193   0.000  0.00  0.00     0.026 A 
ENDBRANCH  12  13
ENDBRANCH  11  12
ENDBRANCH  10  11
ENDBRANCH   3  10
BRANCH   1  20
ATOM     20  C   UNL d   1      -0.563   2.341   0.000  0.00  0.00     0.134 A 
ATOM     21  O   UNL d   1      -0.050   1.836   0.000  0.00  0.00    -0.302 OA
ATOM     22  C   UNL d   1       0.643   2.024   0.000  0.00  0.00     0.123 A 
ATOM     23  C   UNL d   1       0.830   2.724   0.000  0.00  0.00     0.029 A 
ATOM     24  C   UNL d   1       0.317   3.225   0.000  0.00  0.00     0.030 A 
ENDBRANCH   1  20
TORSDOF 5
