REMARK  5 active torsions:
REMARK  status: ('A' for Active; 'I' for Inactive)
REMARK    1  A    between atoms: C_6  and  C_1 
REMARK    2  A    between atoms: C_11  and  N_3 
REMARK    3  A    between atoms: C_16  and  C_11 
REMARK    4  A    between atoms: C_13  and  O_15 
REMARK    5  A    between atoms: O_15  and  C_16 
ROOT
ATOM      1  C   UNL d   1      -1.390   2.338   0.000  0.00  0.00     0.171 A 
ATOM      2  N   UNL d   1      -1.879   3.006   0.000  0.00  0.00    -0.225 NA
ATOM      3  N   UNL d   1      -1.875   1.662   0.000  0.00  0.00    -0.286 N 
ATOM      4  C   UNL d   1      -2.664   1.912   0.000  0.00  0.00     0.083 A 
ATOM      5  C   UNL d   1      -2.668   2.743   0.000  0.00  0.00     0.099 A 
ATOM      6  C   UNL d   1      -3.390   1.499   0.000  0.00  0.00     0.019 A 
ATOM      7  C   UNL d   1      -3.390   3.156   0.000  0.00  0.00     0.021 A 
ATOM      8  C   UNL d   1      -4.104   1.912   0.000  0.00  0.00     0.002 A 
ATOM      9  C   UNL d   1      -4.104   2.743   0.000  0.00  0.00     0.002 A 
ENDROOT
BRANCH   3  10
ATOM     10  C   UNL d   1      -1.461   0.948   0.000  0.00  0.00     0.108 C 
BRANCH  10  11
ATOM     11  C   UNL d   1      -1.875   0.234   0.000  0.00  0.00     0.142 C 
BRANCH  11  12
ATOM     12  O   UNL d   1      -1.461  -0.480   0.000  0.00  0.00    -0.304 OA
BRANCH  12  13
ATOM     13  C   UNL d   1      -1.875  -1.194   0.000  0.00  0.00     0.100 A 
ATOM     14  C   UNL d   1      -1.453  -1.904   0.000  0.00  0.00     0.025 A 
ATOM     15  C   UNL d   1      -1.862  -2.622   0.000  0.00  0.00     0.002 A 
ATOM     16  C   UNL d   1      -1.449  -3.336   0.000  0.00  0.00     0.000 C 
ATOM     17  C   UNL d   1      -2.693  -2.622   0.000  0.00  0.00     0.000 A 
ATOM     18  C   UNL d   1      -3.106  -1.908   0.000  0.00  0.00     0.002 A 
ATOM     19  C   UNL d   1      -2.693  -1.194   0.000  0.00  0.00     0.025 A 
ENDBRANCH  12  13
ENDBRANCH  11  12
ENDBRANCH  10  11
ENDBRANCH   3  10
BRANCH   1  20
ATOM     20  C   UNL d   1      -0.564   2.342   0.000  0.00  0.00     0.134 A 
ATOM     21  O   UNL d   1      -0.050   1.837   0.000  0.00  0.00    -0.302 OA
ATOM     22  C   UNL d   1       0.643   2.025   0.000  0.00  0.00     0.123 A 
ATOM     23  C   UNL d   1       0.831   2.726   0.000  0.00  0.00     0.029 A 
ATOM     24  C   UNL d   1       0.317   3.228   0.000  0.00  0.00     0.030 A 
ENDBRANCH   1  20
TORSDOF 5
