REMARK  2 active torsions:
REMARK  status: ('A' for Active; 'I' for Inactive)
REMARK    1  A    between atoms: C_2  and  C_1 
REMARK    2  A    between atoms: N_6  and  C_2 
ROOT
ATOM      1  C   UNL d   1       0.225   0.209   0.000  0.00  0.00     0.047 A 
ATOM      2  C   UNL d   1       0.780  -0.405   0.000  0.00  0.00     0.101 A 
ATOM      3  C   UNL d   1      -0.526  -0.133   0.000  0.00  0.00     0.021 A 
ATOM      4  N   UNL d   1       0.371  -1.122   0.000  0.00  0.00    -0.244 NA
ATOM      5  C   UNL d   1      -0.438  -0.951   0.000  0.00  0.00     0.082 A 
ATOM      6  C   UNL d   1      -1.276   0.196   0.000  0.00  0.00     0.002 A 
ATOM      7  C   UNL d   1      -1.097  -1.439   0.000  0.00  0.00     0.019 A 
ATOM      8  C   UNL d   1      -1.939  -0.292   0.000  0.00  0.00     0.000 A 
ATOM      9  C   UNL d   1      -1.848  -1.114   0.000  0.00  0.00     0.002 A 
ENDROOT
BRANCH   1  10
ATOM     10  C   UNL d   1       0.386   1.018   0.000  0.00  0.00     0.122 C 
ATOM     11  S   UNL d   1      -0.231   1.564   0.000  0.00  0.00    -0.059 SA
BRANCH  10  12
ATOM     12  N   UNL d   1       1.172   1.276   0.000  0.00  0.00    -0.292 N 
ATOM     13  C   UNL d   1       1.789   0.722   0.000  0.00  0.00     0.108 A 
ATOM     14  C   UNL d   1       2.574   0.980   0.000  0.00  0.00     0.142 A 
ATOM     15  O   UNL d   1       2.741   1.789   0.000  0.00  0.00    -0.300 OA
ATOM     16  C   UNL d   1       2.123   2.340   0.000  0.00  0.00     0.142 A 
ATOM     17  C   UNL d   1       1.339   2.082   0.000  0.00  0.00     0.108 A 
ENDBRANCH  10  12
ENDBRANCH   1  10
TORSDOF 2
