REMARK  3 active torsions:
REMARK  status: ('A' for Active; 'I' for Inactive)
REMARK    1  A    between atoms: C_5  and  N_1 
REMARK    2  A    between atoms: C_13  and  C_3 
REMARK    3  A    between atoms: C_4  and  C_5 
ROOT
ATOM      1  N   UNL d   1      -2.526   2.046   0.000  0.00  0.00    -0.286 N 
ATOM      2  N   UNL d   1      -2.538   3.398   0.000  0.00  0.00    -0.224 NA
ATOM      3  C   UNL d   1      -2.046   2.720   0.000  0.00  0.00     0.191 A 
ATOM      4  C   UNL d   1      -3.322   2.296   0.000  0.00  0.00     0.083 A 
ATOM      5  C   UNL d   1      -3.327   3.126   0.000  0.00  0.00     0.099 A 
ATOM      6  C   UNL d   1      -4.047   1.883   0.000  0.00  0.00     0.019 A 
ATOM      7  C   UNL d   1      -4.047   3.546   0.000  0.00  0.00     0.021 A 
ATOM      8  C   UNL d   1      -4.761   2.296   0.000  0.00  0.00     0.002 A 
ATOM      9  C   UNL d   1      -4.761   3.126   0.000  0.00  0.00     0.002 A 
ENDROOT
BRANCH   1  10
ATOM     10  C   UNL d   1      -2.111   1.333   0.000  0.00  0.00     0.082 C 
BRANCH  10  11
ATOM     11  C   UNL d   1      -2.520   0.621   0.000  0.00  0.00     0.018 A 
ATOM     12  C   UNL d   1      -3.348   0.621   0.000  0.00  0.00     0.001 A 
ATOM     13  C   UNL d   1      -3.758  -0.090   0.000  0.00  0.00     0.000 A 
ATOM     14  C   UNL d   1      -3.758   1.333   0.000  0.00  0.00     0.000 C 
ATOM     15  C   UNL d   1      -4.584  -0.090   0.000  0.00  0.00     0.000 C 
ATOM     16  C   UNL d   1      -3.348  -0.803   0.000  0.00  0.00     0.000 A 
ATOM     17  C   UNL d   1      -2.520  -0.800   0.000  0.00  0.00     0.000 A 
ATOM     18  C   UNL d   1      -2.111  -0.087   0.000  0.00  0.00     0.001 A 
ATOM     19  C   UNL d   1      -2.096  -1.504   0.000  0.00  0.00     0.000 C 
ATOM     20  C   UNL d   1      -1.290  -0.078   0.000  0.00  0.00     0.000 C 
ENDBRANCH  10  11
ENDBRANCH   1  10
BRANCH   3  21
ATOM     21  C   UNL d   1      -1.223   2.727   0.000  0.00  0.00     0.271 C 
ATOM     22  O   UNL d   1      -0.802   2.021   0.000  0.00  0.00    -0.280 OA
ENDBRANCH   3  21
TORSDOF 3
