REMARK  6 active torsions:
REMARK  status: ('A' for Active; 'I' for Inactive)
REMARK    1  A    between atoms: C_6  and  C_1 
REMARK    2  A    between atoms: C_9  and  N_3 
REMARK    3  A    between atoms: C_17  and  C_9 
REMARK    4  A    between atoms: O_15  and  C_10 
REMARK    5  A    between atoms: O_16  and  C_17 
REMARK    6  A    between atoms: C_18  and  O_16 
ROOT
ATOM      1  C   UNL d   1      -1.538   2.031   0.000  0.00  0.00     0.148 A 
ATOM      2  N   UNL d   1      -2.025   2.708   0.000  0.00  0.00    -0.227 NA
ATOM      3  N   UNL d   1      -2.018   1.358   0.000  0.00  0.00    -0.287 N 
ATOM      4  C   UNL d   1      -2.808   1.607   0.000  0.00  0.00     0.083 A 
ATOM      5  C   UNL d   1      -2.811   2.436   0.000  0.00  0.00     0.099 A 
ATOM      6  C   UNL d   1      -3.533   1.196   0.000  0.00  0.00     0.019 A 
ATOM      7  C   UNL d   1      -3.533   2.850   0.000  0.00  0.00     0.021 A 
ATOM      8  C   UNL d   1      -4.247   1.607   0.000  0.00  0.00     0.002 A 
ATOM      9  C   UNL d   1      -4.247   2.436   0.000  0.00  0.00     0.002 A 
ENDROOT
BRANCH   1  10
ATOM     10  C   UNL d   1      -0.713   2.037   0.000  0.00  0.00     0.035 A 
ATOM     11  C   UNL d   1      -0.297   1.325   0.000  0.00  0.00     0.005 A 
ATOM     12  C   UNL d   1       0.524   1.331   0.000  0.00  0.00     0.024 A 
ATOM     13  C   UNL d   1       0.937   2.045   0.000  0.00  0.00     0.094 A 
ATOM     14  C   UNL d   1       0.515   2.770   0.000  0.00  0.00     0.024 A 
ATOM     15  C   UNL d   1      -0.308   2.758   0.000  0.00  0.00     0.005 A 
BRANCH  13  16
ATOM     16  O   UNL d   1       1.763   2.058   0.000  0.00  0.00    -0.328 OA
ATOM     17  C   UNL d   1       2.178   1.345   0.000  0.00  0.00     0.181 C 
ENDBRANCH  13  16
ENDBRANCH   1  10
BRANCH   3  18
ATOM     18  C   UNL d   1      -1.607   0.647   0.000  0.00  0.00     0.108 C 
BRANCH  18  19
ATOM     19  C   UNL d   1      -2.018  -0.066   0.000  0.00  0.00     0.142 C 
BRANCH  19  20
ATOM     20  O   UNL d   1      -1.607  -0.777   0.000  0.00  0.00    -0.302 OA
BRANCH  20  21
ATOM     21  C   UNL d   1      -0.785  -0.774   0.000  0.00  0.00     0.123 C 
ATOM     22  C   UNL d   1      -0.372  -1.491   0.000  0.00  0.00     0.029 C 
ENDBRANCH  20  21
ENDBRANCH  19  20
ENDBRANCH  18  19
ENDBRANCH   3  18
TORSDOF 6
