REMARK  1 active torsions:
REMARK  status: ('A' for Active; 'I' for Inactive)
REMARK    1  A    between atoms: C_4  and  C_1 
ROOT
ATOM      1  C   UNL d   1      -2.487   1.771   0.000  0.00  0.00     0.168 A 
ATOM      2  N   UNL d   1      -2.975   2.433   0.000  0.00  0.00    -0.225 NA
ATOM      3  N   UNL d   1      -2.971   1.096   0.000  0.00  0.00    -0.225 NA
ATOM      4  C   UNL d   1      -3.763   2.171   0.000  0.00  0.00     0.101 A 
ATOM      5  C   UNL d   1      -3.758   1.346   0.000  0.00  0.00     0.101 A 
ATOM      6  C   UNL d   1      -4.483   2.583   0.000  0.00  0.00     0.021 A 
ATOM      7  C   UNL d   1      -4.483   0.933   0.000  0.00  0.00     0.021 A 
ATOM      8  C   UNL d   1      -5.196   2.171   0.000  0.00  0.00     0.002 A 
ATOM      9  C   UNL d   1      -5.196   1.346   0.000  0.00  0.00     0.002 A 
ENDROOT
BRANCH   1  10
ATOM     10  C   UNL d   1      -1.663   1.771   0.000  0.00  0.00     0.065 A 
ATOM     11  S   UNL d   1      -1.150   1.262   0.000  0.00  0.00    -0.083 SA
ATOM     12  C   UNL d   1      -0.458   1.458   0.000  0.00  0.00     0.035 A 
ATOM     13  C   UNL d   1      -0.271   2.150   0.000  0.00  0.00     0.008 A 
ATOM     14  C   UNL d   1      -0.783   2.658   0.000  0.00  0.00     0.010 A 
ENDBRANCH   1  10
TORSDOF 1
