REMARK  5 active torsions:
REMARK  status: ('A' for Active; 'I' for Inactive)
REMARK    1  A    between atoms: C_6  and  C_1 
REMARK    2  A    between atoms: C_8  and  N_3 
REMARK    3  A    between atoms: C_7  and  C_8 
REMARK    4  A    between atoms: C_9  and  C_7 
REMARK    5  A    between atoms: C_10  and  C_9 
ROOT
ATOM      1  C   UNL d   1      -2.049   2.724   0.000  0.00  0.00     0.187 A 
ATOM      2  N   UNL d   1      -2.541   3.402   0.000  0.00  0.00    -0.224 NA
ATOM      3  N   UNL d   1      -2.537   2.049   0.000  0.00  0.00    -0.287 N 
ATOM      4  C   UNL d   1      -3.325   2.299   0.000  0.00  0.00     0.083 A 
ATOM      5  C   UNL d   1      -3.332   3.130   0.000  0.00  0.00     0.099 A 
ATOM      6  C   UNL d   1      -4.053   1.885   0.000  0.00  0.00     0.019 A 
ATOM      7  C   UNL d   1      -4.053   3.551   0.000  0.00  0.00     0.021 A 
ATOM      8  C   UNL d   1      -4.767   2.299   0.000  0.00  0.00     0.002 A 
ATOM      9  C   UNL d   1      -4.767   3.130   0.000  0.00  0.00     0.002 A 
ENDROOT
BRANCH   3  10
ATOM     10  C   UNL d   1      -2.123   1.335   0.000  0.00  0.00     0.082 C 
BRANCH  10  11
ATOM     11  C   UNL d   1      -2.529   0.623   0.000  0.00  0.00     0.019 C 
BRANCH  11  12
ATOM     12  C   UNL d   1      -3.356   0.623   0.000  0.00  0.00     0.002 C 
BRANCH  12  13
ATOM     13  C   UNL d   1      -3.766  -0.091   0.000  0.00  0.00     0.000 A 
ATOM     14  C   UNL d   1      -4.591  -0.091   0.000  0.00  0.00     0.000 A 
ATOM     15  C   UNL d   1      -4.993  -0.805   0.000  0.00  0.00     0.000 A 
ATOM     16  C   UNL d   1      -4.580  -1.519   0.000  0.00  0.00     0.000 A 
ATOM     17  C   UNL d   1      -3.753  -1.515   0.000  0.00  0.00     0.000 A 
ATOM     18  C   UNL d   1      -3.352  -0.805   0.000  0.00  0.00     0.000 A 
ENDBRANCH  12  13
ENDBRANCH  11  12
ENDBRANCH  10  11
ENDBRANCH   3  10
BRANCH   1  19
ATOM     19  C   UNL d   1      -1.329   2.826   0.000  0.00  0.00     0.230 C 
ATOM     20  O   UNL d   1      -0.765   2.225   0.000  0.00  0.00    -0.283 OA
ATOM     21  C   UNL d   1      -1.053   3.602   0.000  0.00  0.00     0.049 C 
ENDBRANCH   1  19
TORSDOF 5
