REMARK  3 active torsions:
REMARK  status: ('A' for Active; 'I' for Inactive)
REMARK    1  A    between atoms: C_4  and  C_1 
REMARK    2  A    between atoms: C_9  and  N_2 
REMARK    3  A    between atoms: C_8  and  N_3 
ROOT
ATOM      1  C   UNL d   1      -0.248   0.910   0.000  0.00  0.00     0.139 A 
ATOM      2  N   UNL d   1       0.428   1.382   0.000  0.00  0.00    -0.290 N 
ATOM      3  N   UNL d   1      -0.911   1.401   0.000  0.00  0.00    -0.290 N 
ATOM      4  C   UNL d   1       0.189   2.158   0.000  0.00  0.00     0.101 A 
ATOM      5  C   UNL d   1      -0.627   2.174   0.000  0.00  0.00     0.101 A 
ENDROOT
BRANCH   2   6
ATOM      6  C   UNL d   1       1.244   1.193   0.000  0.00  0.00     0.066 A 
ATOM      7  C   UNL d   1       1.811   1.779   0.000  0.00  0.00     0.018 A 
ATOM      8  C   UNL d   1       2.604   1.590   0.000  0.00  0.00     0.002 A 
ATOM      9  C   UNL d   1       2.836   0.798   0.000  0.00  0.00     0.000 A 
ATOM     10  C   UNL d   1       2.268   0.210   0.000  0.00  0.00     0.002 A 
ATOM     11  C   UNL d   1       1.469   0.399   0.000  0.00  0.00     0.018 A 
ENDBRANCH   2   6
BRANCH   1  12
ATOM     12  C   UNL d   1      -0.233   0.080   0.000  0.00  0.00     0.063 A 
ATOM     13  S   UNL d   1       0.582  -0.169   0.000  0.00  0.00    -0.083 SA
ATOM     14  C   UNL d   1       0.582  -0.996   0.000  0.00  0.00     0.035 A 
ATOM     15  C   UNL d   1      -0.190  -1.264   0.000  0.00  0.00     0.008 A 
ATOM     16  C   UNL d   1      -0.705  -0.602   0.000  0.00  0.00     0.010 A 
ENDBRANCH   1  12
BRANCH   3  17
ATOM     17  C   UNL d   1      -1.665   1.083   0.000  0.00  0.00     0.066 A 
ATOM     18  C   UNL d   1      -2.328   1.570   0.000  0.00  0.00     0.018 A 
ATOM     19  C   UNL d   1      -3.083   1.228   0.000  0.00  0.00     0.002 A 
ATOM     20  C   UNL d   1      -3.179   0.422   0.000  0.00  0.00     0.000 A 
ATOM     21  C   UNL d   1      -2.517  -0.085   0.000  0.00  0.00     0.002 A 
ATOM     22  C   UNL d   1      -1.761   0.248   0.000  0.00  0.00     0.018 A 
ENDBRANCH   3  17
TORSDOF 3
