REMARK  4 active torsions:
REMARK  status: ('A' for Active; 'I' for Inactive)
REMARK    1  A    between atoms: C_3  and  N_5 
REMARK    2  A    between atoms: S_13  and  C_4 
REMARK       I    between atoms: N_5  and  C_12 
REMARK    3  A    between atoms: C_12  and  C_18 
REMARK    4  A    between atoms: C_18  and  S_13 
ROOT
ATOM      1  N   UNL d   1       2.442  -1.200   0.000  0.00  0.00    -0.238 NA
ATOM      2  C   UNL d   1       3.188   0.021   0.000  0.00  0.00     0.092 A 
ATOM      3  C   UNL d   1       3.188  -0.804   0.000  0.00  0.00     0.120 A 
ATOM      4  C   UNL d   1       3.913   0.458   0.000  0.00  0.00     0.103 C 
ATOM      5  C   UNL d   1       1.742  -0.804   0.000  0.00  0.00     0.082 A 
ATOM      6  N   UNL d   1       4.629   0.883   0.000  0.00  0.00    -0.191 NA
ATOM      7  C   UNL d   1       2.442   0.458   0.000  0.00  0.00     0.014 A 
ATOM      8  C   UNL d   1       1.742   0.021   0.000  0.00  0.00     0.018 A 
ATOM      9  C   UNL d   1       1.092  -1.304   0.000  0.00  0.00     0.019 A 
ATOM     10  C   UNL d   1       1.092   0.558   0.000  0.00  0.00     0.002 A 
ATOM     11  C   UNL d   1       0.300  -1.125   0.000  0.00  0.00     0.002 A 
ATOM     12  C   UNL d   1       0.300   0.383   0.000  0.00  0.00     0.000 A 
ATOM     13  C   UNL d   1      -0.058  -0.404   0.000  0.00  0.00     0.000 A 
ENDROOT
BRANCH   3  14
ATOM     14  S   UNL d   1       3.913  -1.200   0.000  0.00  0.00    -0.062 SA
BRANCH  14  15
ATOM     15  C   UNL d   1       3.913  -2.025   0.000  0.00  0.00     0.099 C 
BRANCH  15  16
ATOM     16  C   UNL d   1       4.629  -2.417   0.000  0.00  0.00     0.288 C 
ATOM     17  N   UNL d   1       4.604  -3.242   0.000  0.00  0.00    -0.182 NA
ATOM     18  O   UNL d   1       5.354  -2.025   0.000  0.00  0.00    -0.265 OA
BRANCH  17  19
ATOM     19  C   UNL d   1       5.329  -3.642   0.000  0.00  0.00     0.197 A 
ATOM     20  N   UNL d   1       5.500  -4.429   0.000  0.00  0.00    -0.219 NA
ATOM     21  C   UNL d   1       6.292  -4.537   0.000  0.00  0.00     0.108 A 
ATOM     22  C   UNL d   1       6.654  -3.788   0.000  0.00  0.00     0.059 A 
ATOM     23  S   UNL d   1       6.054  -3.242   0.000  0.00  0.00    -0.046 SA
ENDBRANCH  17  19
ENDBRANCH  15  16
ENDBRANCH  14  15
ENDBRANCH   3  14
TORSDOF 4
