REMARK  1 active torsions:
REMARK  status: ('A' for Active; 'I' for Inactive)
REMARK       I    between atoms: C_2  and  N_1 
REMARK    1  A    between atoms: C_4  and  C_2 
ROOT
ATOM      1  N   UNL d   1       0.112  -0.079   0.000  0.00  0.00    -0.272 N 
ATOM      2  C   UNL d   1      -0.606   0.332   0.000  0.00  0.00     0.287 C 
ATOM      3  C   UNL d   1       0.869   0.253   0.000  0.00  0.00     0.067 A 
ATOM      4  C   UNL d   1       0.178  -0.885   0.000  0.00  0.00     0.083 A 
ATOM      5  O   UNL d   1      -0.606   1.158   0.000  0.00  0.00    -0.264 OA
ATOM      6  C   UNL d   1       1.416  -0.355   0.000  0.00  0.00     0.018 A 
ATOM      7  C   UNL d   1       0.995  -1.068   0.000  0.00  0.00     0.021 A 
ATOM      8  C   UNL d   1       1.128   1.026   0.000  0.00  0.00     0.018 A 
ATOM      9  C   UNL d   1       2.226  -0.199   0.000  0.00  0.00     0.002 A 
ATOM     10  C   UNL d   1       1.935   1.198   0.000  0.00  0.00     0.002 A 
ATOM     11  C   UNL d   1       2.482   0.584   0.000  0.00  0.00     0.000 A 
ENDROOT
BRANCH   2  12
ATOM     12  C   UNL d   1      -1.323  -0.083   0.000  0.00  0.00     0.156 A 
ATOM     13  O   UNL d   1      -1.507  -0.891   0.000  0.00  0.00    -0.300 OA
ATOM     14  C   UNL d   1      -2.321  -0.966   0.000  0.00  0.00     0.123 A 
ATOM     15  C   UNL d   1      -2.652  -0.220   0.000  0.00  0.00     0.029 A 
ATOM     16  C   UNL d   1      -2.042   0.332   0.000  0.00  0.00     0.032 A 
ENDBRANCH   2  12
TORSDOF 1
