REMARK  5 active torsions:
REMARK  status: ('A' for Active; 'I' for Inactive)
REMARK    1  A    between atoms: N_2  and  S_1 
REMARK    2  A    between atoms: C_3  and  S_1 
REMARK    3  A    between atoms: C_6  and  C_4 
REMARK    4  A    between atoms: O_15  and  C_6 
REMARK    5  A    between atoms: C_18  and  O_15 
ROOT
ATOM      1  N   UNL d   1       5.258  -2.201   0.000  0.00  0.00    -0.229 N 
ATOM      2  C   UNL d   1       6.490  -2.908   0.000  0.00  0.00     0.082 A 
ATOM      3  C   UNL d   1       5.666  -2.908   0.000  0.00  0.00     0.097 A 
ATOM      4  C   UNL d   1       5.666  -1.484   0.000  0.00  0.00     0.092 A 
ATOM      5  C   UNL d   1       6.906  -2.201   0.000  0.00  0.00     0.008 A 
ATOM      6  C   UNL d   1       6.493  -1.487   0.000  0.00  0.00     0.020 A 
ENDROOT
BRANCH   1   7
ATOM      7  S   UNL d   1       4.434  -2.201   0.000  0.00  0.00     0.277 S 
ATOM      8  O   UNL d   1       4.434  -3.025   0.000  0.00  0.00    -0.199 OA
ATOM      9  O   UNL d   1       4.434  -1.375   0.000  0.00  0.00    -0.199 OA
BRANCH   7  10
ATOM     10  C   UNL d   1       3.608  -2.201   0.000  0.00  0.00     0.133 A 
ATOM     11  S   UNL d   1       2.948  -2.682   0.000  0.00  0.00    -0.074 SA
ATOM     12  C   UNL d   1       2.275  -2.201   0.000  0.00  0.00     0.036 A 
ATOM     13  C   UNL d   1       2.537  -1.414   0.000  0.00  0.00     0.008 A 
ATOM     14  C   UNL d   1       3.361  -1.414   0.000  0.00  0.00     0.020 A 
ENDBRANCH   7  10
ENDBRANCH   1   7
BRANCH   2  15
ATOM     15  C   UNL d   1       6.899  -3.629   0.000  0.00  0.00     0.302 C 
ATOM     16  O   UNL d   1       6.490  -4.343   0.000  0.00  0.00    -0.259 OA
BRANCH  15  17
ATOM     17  O   UNL d   1       7.725  -3.629   0.000  0.00  0.00    -0.271 OA
BRANCH  17  18
ATOM     18  C   UNL d   1       8.136  -2.920   0.000  0.00  0.00     0.126 C 
ATOM     19  C   UNL d   1       8.962  -2.920   0.000  0.00  0.00     0.029 C 
ENDBRANCH  17  18
ENDBRANCH  15  17
ENDBRANCH   2  15
TORSDOF 5
