REMARK  3 active torsions:
REMARK  status: ('A' for Active; 'I' for Inactive)
REMARK    1  A    between atoms: C_2  and  C_1 
REMARK    2  A    between atoms: C_3  and  C_2 
REMARK    3  A    between atoms: C_8  and  C_2 
ROOT
ATOM      1  C   UNL d   1       2.143   0.444   0.000  0.00  0.00     0.018 C 
ENDROOT
BRANCH   1   2
ATOM      2  C   UNL d   1       1.699   1.146   0.000  0.00  0.00     0.078 A 
ATOM      3  C   UNL d   1       0.797   1.097   0.000  0.00  0.00     0.195 A 
ATOM      4  C   UNL d   1       0.440   1.815   0.000  0.00  0.00     0.019 A 
ATOM      5  O   UNL d   1       0.391   0.548   0.000  0.00  0.00    -0.287 OA
ATOM      6  C   UNL d   1       0.827   2.542   0.000  0.00  0.00     0.043 A 
ATOM      7  C   UNL d   1       1.649   2.575   0.000  0.00  0.00     0.019 A 
ATOM      8  C   UNL d   1       0.789   3.373   0.000  0.00  0.00     0.009 C 
ATOM      9  C   UNL d   1       0.017   2.725   0.000  0.00  0.00     0.009 C 
ATOM     10  C   UNL d   1       2.085   1.877   0.000  0.00  0.00     0.195 A 
ATOM     11  O   UNL d   1       2.916   1.915   0.000  0.00  0.00    -0.287 OA
ENDBRANCH   1   2
BRANCH   1  12
ATOM     12  C   UNL d   1       1.757  -0.291   0.000  0.00  0.00     0.078 A 
ATOM     13  C   UNL d   1       2.185  -0.984   0.000  0.00  0.00     0.195 A 
ATOM     14  C   UNL d   1       1.807  -1.711   0.000  0.00  0.00     0.019 A 
ATOM     15  O   UNL d   1       3.020  -0.947   0.000  0.00  0.00    -0.287 OA
ATOM     16  C   UNL d   1       0.989  -1.749   0.000  0.00  0.00     0.043 A 
ATOM     17  C   UNL d   1       0.540  -1.051   0.000  0.00  0.00     0.019 A 
ATOM     18  C   UNL d   1       0.424  -2.355   0.000  0.00  0.00     0.009 C 
ATOM     19  C   UNL d   1       1.159  -2.559   0.000  0.00  0.00     0.009 C 
ATOM     20  C   UNL d   1       0.926  -0.316   0.000  0.00  0.00     0.195 A 
ATOM     21  O   UNL d   1       0.627   0.087   0.000  0.00  0.00    -0.287 OA
ENDBRANCH   1  12
BRANCH   1  22
ATOM     22  C   UNL d   1       2.958   0.473   0.000  0.00  0.00     0.030 A 
ATOM     23  S   UNL d   1       3.493   1.105   0.000  0.00  0.00    -0.086 SA
ATOM     24  C   UNL d   1       4.253   0.797   0.000  0.00  0.00     0.035 A 
ATOM     25  C   UNL d   1       4.204  -0.017   0.000  0.00  0.00     0.007 A 
ATOM     26  C   UNL d   1       3.406  -0.216   0.000  0.00  0.00     0.007 A 
ENDBRANCH   1  22
TORSDOF 3
