REMARK  3 active torsions:
REMARK  status: ('A' for Active; 'I' for Inactive)
REMARK    1  A    between atoms: N_2  and  C_1 
REMARK    2  A    between atoms: N_4  and  C_1 
REMARK       I    between atoms: C_3  and  N_2 
REMARK    3  A    between atoms: C_5  and  C_3 
ROOT
ATOM      1  C   UNL d   1       5.961  -3.454   0.000  0.00  0.00     0.209 C 
ATOM      2  S   UNL d   1       5.322  -2.918   0.000  0.00  0.00    -0.038 SA
ENDROOT
BRANCH   1   3
ATOM      3  N   UNL d   1       5.826  -4.258   0.000  0.00  0.00    -0.179 NA
ATOM      4  C   UNL d   1       5.057  -4.549   0.000  0.00  0.00     0.287 C 
ATOM      5  O   UNL d   1       4.419  -4.022   0.000  0.00  0.00    -0.265 OA
BRANCH   4   6
ATOM      6  C   UNL d   1       4.918  -5.362   0.000  0.00  0.00     0.087 A 
ATOM      7  S   UNL d   1       5.433  -6.015   0.000  0.00  0.00    -0.082 SA
ATOM      8  C   UNL d   1       4.975  -6.703   0.000  0.00  0.00     0.036 A 
ATOM      9  C   UNL d   1       4.185  -6.478   0.000  0.00  0.00     0.008 A 
ATOM     10  C   UNL d   1       4.145  -5.649   0.000  0.00  0.00     0.012 A 
ENDBRANCH   4   6
ENDBRANCH   1   3
BRANCH   1  11
ATOM     11  N   UNL d   1       6.741  -3.166   0.000  0.00  0.00    -0.281 N 
ATOM     12  C   UNL d   1       6.887  -2.350   0.000  0.00  0.00     0.082 A 
ATOM     13  C   UNL d   1       7.654  -2.067   0.000  0.00  0.00     0.019 A 
ATOM     14  C   UNL d   1       8.294  -2.596   0.000  0.00  0.00     0.003 A 
ATOM     15  C   UNL d   1       8.143  -3.407   0.000  0.00  0.00     0.019 A 
ATOM     16  C   UNL d   1       9.079  -2.315   0.000  0.00  0.00     0.000 C 
ATOM     17  C   UNL d   1       7.372  -3.691   0.000  0.00  0.00     0.082 A 
ENDBRANCH   1  11
TORSDOF 3
