REMARK  6 active torsions:
REMARK  status: ('A' for Active; 'I' for Inactive)
REMARK    1  A    between atoms: C_8  and  C_1 
REMARK    2  A    between atoms: C_13  and  N_2 
REMARK    3  A    between atoms: C_7  and  C_4 
REMARK    4  A    between atoms: C_6  and  C_8 
REMARK    5  A    between atoms: C_21  and  C_13 
REMARK    6  A    between atoms: N_22  and  C_21 
ROOT
ATOM      1  C   UNL d   1       0.650  -2.978   0.000  0.00  0.00     0.103 A 
ATOM      2  N   UNL d   1      -0.684  -2.978   0.000  0.00  0.00    -0.267 N 
ATOM      3  C   UNL d   1       0.394  -3.764   0.000  0.00  0.00     0.256 A 
ATOM      4  C   UNL d   1      -0.015  -2.497   0.000  0.00  0.00     0.096 A 
ATOM      5  C   UNL d   1      -0.432  -3.764   0.000  0.00  0.00     0.304 A 
ATOM      6  O   UNL d   1      -0.913  -4.438   0.000  0.00  0.00    -0.263 OA
ATOM      7  O   UNL d   1       0.878  -4.438   0.000  0.00  0.00    -0.281 OA
ENDROOT
BRANCH   1   8
ATOM      8  C   UNL d   1       1.432  -2.727   0.000  0.00  0.00     0.223 C 
ATOM      9  O   UNL d   1       1.608  -1.918   0.000  0.00  0.00    -0.284 OA
BRANCH   8  10
ATOM     10  C   UNL d   1       2.053  -3.273   0.000  0.00  0.00     0.139 A 
ATOM     11  O   UNL d   1       2.861  -3.100   0.000  0.00  0.00    -0.304 OA
ATOM     12  C   UNL d   1       3.273  -3.814   0.000  0.00  0.00     0.100 A 
ATOM     13  C   UNL d   1       4.074  -3.981   0.000  0.00  0.00     0.025 A 
ATOM     14  C   UNL d   1       2.727  -4.425   0.000  0.00  0.00     0.025 A 
ATOM     15  C   UNL d   1       4.330  -4.757   0.000  0.00  0.00     0.002 A 
ATOM     16  C   UNL d   1       3.785  -5.369   0.000  0.00  0.00     0.000 A 
ATOM     17  C   UNL d   1       2.982  -5.207   0.000  0.00  0.00     0.002 A 
ATOM     18  C   UNL d   1       1.971  -4.087   0.000  0.00  0.00     0.030 A 
ENDBRANCH   8  10
ENDBRANCH   1   8
BRANCH   4  19
ATOM     19  C   UNL d   1      -0.011  -1.661   0.000  0.00  0.00     0.116 A 
ATOM     20  O   UNL d   1      -0.629  -1.117   0.000  0.00  0.00    -0.306 OA
ATOM     21  C   UNL d   1      -0.306  -0.366   0.000  0.00  0.00     0.100 A 
ATOM     22  C   UNL d   1      -0.724   0.347   0.000  0.00  0.00     0.027 C 
ATOM     23  C   UNL d   1       0.516  -0.433   0.000  0.00  0.00     0.027 A 
ATOM     24  C   UNL d   1       0.701  -1.243   0.000  0.00  0.00     0.028 A 
ENDBRANCH   4  19
BRANCH   2  25
ATOM     25  C   UNL d   1      -1.471  -2.727   0.000  0.00  0.00     0.102 C 
BRANCH  25  26
ATOM     26  C   UNL d   1      -1.647  -1.918   0.000  0.00  0.00     0.100 C 
BRANCH  26  27
ATOM     27  N   UNL d   1      -2.434  -1.661   0.000  0.00  0.00    -0.299 N 
ATOM     28  C   UNL d   1      -2.601  -0.853   0.000  0.00  0.00     0.100 C 
ATOM     29  C   UNL d   1      -3.041  -2.215   0.000  0.00  0.00     0.100 C 
ENDBRANCH  26  27
ENDBRANCH  25  26
ENDBRANCH   2  25
TORSDOF 6
