REMARK  3 active torsions:
REMARK  status: ('A' for Active; 'I' for Inactive)
REMARK    1  A    between atoms: N_2  and  S_1 
REMARK    2  A    between atoms: C_4  and  S_1 
REMARK    3  A    between atoms: C_3  and  N_2 
ROOT
ATOM      1  N   UNL d   1       7.522  -3.202   0.000  0.00  0.00    -0.157 NA
ENDROOT
BRANCH   1   2
ATOM      2  S   UNL d   1       6.807  -2.790   0.000  0.00  0.00     0.285 S 
ATOM      3  O   UNL d   1       6.395  -3.504   0.000  0.00  0.00    -0.198 OA
ATOM      4  O   UNL d   1       7.215  -2.066   0.000  0.00  0.00    -0.198 OA
BRANCH   2   5
ATOM      5  C   UNL d   1       6.093  -2.377   0.000  0.00  0.00     0.105 A 
ATOM      6  C   UNL d   1       6.093  -1.544   0.000  0.00  0.00     0.013 A 
ATOM      7  C   UNL d   1       5.378  -1.131   0.000  0.00  0.00     0.001 A 
ATOM      8  C   UNL d   1       4.663  -1.539   0.000  0.00  0.00     0.000 A 
ATOM      9  C   UNL d   1       4.659  -2.364   0.000  0.00  0.00     0.001 A 
ATOM     10  C   UNL d   1       3.949  -1.118   0.000  0.00  0.00     0.000 C 
ATOM     11  C   UNL d   1       5.373  -2.781   0.000  0.00  0.00     0.013 A 
ENDBRANCH   2   5
ENDBRANCH   1   2
BRANCH   1  12
ATOM     12  C   UNL d   1       7.522  -4.027   0.000  0.00  0.00     0.111 A 
ATOM     13  C   UNL d   1       8.236  -4.443   0.000  0.00  0.00     0.100 A 
ATOM     14  N   UNL d   1       8.960  -4.027   0.000  0.00  0.00    -0.242 NA
ATOM     15  C   UNL d   1       8.236  -5.268   0.000  0.00  0.00     0.019 A 
ATOM     16  C   UNL d   1       9.679  -4.443   0.000  0.00  0.00     0.099 A 
ATOM     17  C   UNL d   1       9.679  -5.268   0.000  0.00  0.00     0.021 A 
ATOM     18  C   UNL d   1       8.960  -5.680   0.000  0.00  0.00     0.003 A 
ATOM     19  C   UNL d   1       7.522  -5.680   0.000  0.00  0.00     0.002 A 
ATOM     20  C   UNL d   1       6.807  -5.268   0.000  0.00  0.00     0.002 A 
ATOM     21  C   UNL d   1       6.807  -4.443   0.000  0.00  0.00     0.021 A 
ENDBRANCH   1  12
TORSDOF 3
