REMARK  7 active torsions:
REMARK  status: ('A' for Active; 'I' for Inactive)
REMARK    1  A    between atoms: C_7  and  C_1 
REMARK    2  A    between atoms: C_9  and  N_2 
REMARK    3  A    between atoms: C_6  and  C_3 
REMARK    4  A    between atoms: C_8  and  C_7 
REMARK    5  A    between atoms: C_20  and  C_9 
REMARK    6  A    between atoms: O_24  and  C_10 
REMARK    7  A    between atoms: O_26  and  C_22 
ROOT
ATOM      1  C   UNL d   1       7.034  -8.188   0.000  0.00  0.00     0.101 A 
ATOM      2  N   UNL d   1       5.703  -8.188   0.000  0.00  0.00    -0.270 N 
ATOM      3  C   UNL d   1       6.364  -7.711   0.000  0.00  0.00     0.075 A 
ATOM      4  C   UNL d   1       6.780  -8.980   0.000  0.00  0.00     0.256 A 
ATOM      5  C   UNL d   1       5.957  -8.980   0.000  0.00  0.00     0.304 A 
ATOM      6  O   UNL d   1       5.472  -9.649   0.000  0.00  0.00    -0.263 OA
ATOM      7  O   UNL d   1       7.264  -9.649   0.000  0.00  0.00    -0.281 OA
ENDROOT
BRANCH   3   8
ATOM      8  C   UNL d   1       6.377  -6.880   0.000  0.00  0.00     0.041 A 
ATOM      9  C   UNL d   1       5.664  -6.470   0.000  0.00  0.00     0.096 A 
ATOM     10  C   UNL d   1       5.664  -5.639   0.000  0.00  0.00     0.026 A 
ATOM     11  C   UNL d   1       6.388  -5.231   0.000  0.00  0.00     0.026 A 
ATOM     12  C   UNL d   1       7.103  -5.649   0.000  0.00  0.00     0.094 A 
ATOM     13  C   UNL d   1       7.095  -6.472   0.000  0.00  0.00     0.028 A 
BRANCH   9  14
ATOM     14  O   UNL d   1       4.949  -6.872   0.000  0.00  0.00    -0.328 OA
ATOM     15  C   UNL d   1       4.234  -6.462   0.000  0.00  0.00     0.181 C 
ENDBRANCH   9  14
BRANCH  12  16
ATOM     16  O   UNL d   1       7.824  -5.241   0.000  0.00  0.00    -0.328 OA
ATOM     17  C   UNL d   1       7.824  -4.410   0.000  0.00  0.00     0.181 C 
ENDBRANCH  12  16
ENDBRANCH   3   8
BRANCH   2  18
ATOM     18  C   UNL d   1       4.910  -7.934   0.000  0.00  0.00     0.085 C 
BRANCH  18  19
ATOM     19  C   UNL d   1       4.300  -8.493   0.000  0.00  0.00     0.037 A 
ATOM     20  C   UNL d   1       3.508  -8.234   0.000  0.00  0.00     0.100 A 
ATOM     21  N   UNL d   1       2.903  -8.788   0.000  0.00  0.00    -0.242 NA
ATOM     22  C   UNL d   1       3.072  -9.595   0.000  0.00  0.00     0.099 A 
ATOM     23  C   UNL d   1       3.857  -9.847   0.000  0.00  0.00     0.021 A 
ATOM     24  C   UNL d   1       4.472  -9.293   0.000  0.00  0.00     0.005 A 
ENDBRANCH  18  19
ENDBRANCH   2  18
BRANCH   1  25
ATOM     25  C   UNL d   1       7.824  -7.934   0.000  0.00  0.00     0.223 C 
ATOM     26  O   UNL d   1       7.995  -7.131   0.000  0.00  0.00    -0.284 OA
BRANCH  25  27
ATOM     27  C   UNL d   1       8.426  -8.485   0.000  0.00  0.00     0.139 A 
ATOM     28  O   UNL d   1       9.249  -8.441   0.000  0.00  0.00    -0.302 OA
ATOM     29  C   UNL d   1       9.549  -9.208   0.000  0.00  0.00     0.123 A 
ATOM     30  C   UNL d   1       8.916  -9.724   0.000  0.00  0.00     0.029 A 
ATOM     31  C   UNL d   1       8.223  -9.280   0.000  0.00  0.00     0.030 A 
ENDBRANCH  25  27
ENDBRANCH   1  25
TORSDOF 7
