REMARK  3 active torsions:
REMARK  status: ('A' for Active; 'I' for Inactive)
REMARK    1  A    between atoms: C_11  and  C_6 
REMARK       I    between atoms: N_15  and  C_11 
REMARK    2  A    between atoms: C_23  and  N_15 
REMARK    3  A    between atoms: C_22  and  C_23 
ROOT
ATOM      1  C   UNL d   1       4.723  -4.326   0.000  0.00  0.00     0.155 A 
ATOM      2  C   UNL d   1       4.723  -3.499   0.000  0.00  0.00     0.091 A 
ATOM      3  N   UNL d   1       4.008  -4.734   0.000  0.00  0.00    -0.210 NA
ATOM      4  N   UNL d   1       3.298  -3.499   0.000  0.00  0.00    -0.258 N 
ATOM      5  N   UNL d   1       5.436  -4.734   0.000  0.00  0.00    -0.272 N 
ATOM      6  C   UNL d   1       6.159  -3.499   0.000  0.00  0.00     0.094 A 
ATOM      7  C   UNL d   1       3.306  -4.326   0.000  0.00  0.00     0.152 A 
ATOM      8  C   UNL d   1       4.008  -3.083   0.000  0.00  0.00     0.269 A 
ATOM      9  C   UNL d   1       6.159  -4.318   0.000  0.00  0.00     0.175 A 
ATOM     10  C   UNL d   1       5.436  -3.083   0.000  0.00  0.00     0.016 A 
ATOM     11  C   UNL d   1       2.586  -4.734   0.000  0.00  0.00     0.035 A 
ATOM     12  C   UNL d   1       2.586  -3.083   0.000  0.00  0.00     0.084 A 
ATOM     13  N   UNL d   1       6.877  -4.734   0.000  0.00  0.00    -0.128 N 
ATOM     14  O   UNL d   1       4.008  -2.262   0.000  0.00  0.00    -0.266 OA
ATOM     15  C   UNL d   1       1.879  -3.499   0.000  0.00  0.00     0.019 A 
ATOM     16  C   UNL d   1       1.879  -4.326   0.000  0.00  0.00     0.005 A 
ATOM     17  C   UNL d   1       5.436  -5.558   0.000  0.00  0.00     0.102 C 
ATOM     18  C   UNL d   1       2.586  -5.558   0.000  0.00  0.00     0.003 C 
ENDROOT
BRANCH   6  19
ATOM     19  C   UNL d   1       6.877  -3.083   0.000  0.00  0.00     0.282 C 
ATOM     20  N   UNL d   1       7.589  -3.499   0.000  0.00  0.00    -0.206 NA
ATOM     21  O   UNL d   1       6.877  -2.262   0.000  0.00  0.00    -0.265 OA
BRANCH  20  22
ATOM     22  C   UNL d   1       8.299  -3.083   0.000  0.00  0.00     0.104 C 
BRANCH  22  23
ATOM     23  C   UNL d   1       9.014  -3.499   0.000  0.00  0.00     0.038 A 
ATOM     24  C   UNL d   1       9.726  -3.083   0.000  0.00  0.00     0.101 A 
ATOM     25  N   UNL d   1      10.441  -3.494   0.000  0.00  0.00    -0.242 NA
ATOM     26  C   UNL d   1      10.441  -4.318   0.000  0.00  0.00     0.099 A 
ATOM     27  C   UNL d   1       9.726  -4.734   0.000  0.00  0.00     0.021 A 
ATOM     28  C   UNL d   1       9.014  -4.318   0.000  0.00  0.00     0.005 A 
ENDBRANCH  22  23
ENDBRANCH  20  22
ENDBRANCH   6  19
TORSDOF 3
