REMARK  4 active torsions:
REMARK  status: ('A' for Active; 'I' for Inactive)
REMARK    1  A    between atoms: C_7  and  C_1 
REMARK    2  A    between atoms: C_8  and  C_2 
REMARK    3  A    between atoms: C_10  and  C_4 
REMARK    4  A    between atoms: O_13  and  C_7 
ROOT
ATOM      1  C   UNL d   1      -5.367   1.078   0.000  0.00  0.00     0.086 A 
ATOM      2  C   UNL d   1      -3.947   1.078   0.000  0.00  0.00     0.064 A 
ATOM      3  C   UNL d   1      -3.947   0.238   0.000  0.00  0.00     0.205 A 
ATOM      4  C   UNL d   1      -4.662   1.482   0.000  0.00  0.00     0.012 A 
ATOM      5  C   UNL d   1      -5.367   0.238   0.000  0.00  0.00     0.107 A 
ATOM      6  O   UNL d   1      -4.662  -0.173   0.000  0.00  0.00    -0.288 OA
ATOM      7  N   UNL d   1      -3.221  -0.205   0.000  0.00  0.00    -0.121 N 
ATOM      8  C   UNL d   1      -6.109  -0.205   0.000  0.00  0.00     0.027 C 
ENDROOT
BRANCH   4   9
ATOM      9  C   UNL d   1      -4.662   2.292   0.000  0.00  0.00     0.000 A 
ATOM     10  C   UNL d   1      -5.367   2.703   0.000  0.00  0.00     0.000 A 
ATOM     11  C   UNL d   1      -5.367   3.518   0.000  0.00  0.00     0.000 A 
ATOM     12  C   UNL d   1      -4.662   3.936   0.000  0.00  0.00     0.000 A 
ATOM     13  C   UNL d   1      -3.947   3.518   0.000  0.00  0.00     0.000 A 
ATOM     14  C   UNL d   1      -3.947   2.703   0.000  0.00  0.00     0.000 A 
ENDBRANCH   4   9
BRANCH   2  15
ATOM     15  C   UNL d   1      -3.221   1.482   0.000  0.00  0.00     0.126 C 
ATOM     16  N   UNL d   1      -2.509   1.055   0.000  0.00  0.00    -0.146 N 
ENDBRANCH   2  15
BRANCH   1  17
ATOM     17  C   UNL d   1      -6.109   1.482   0.000  0.00  0.00     0.298 C 
ATOM     18  O   UNL d   1      -6.808   1.055   0.000  0.00  0.00    -0.259 OA
BRANCH  17  19
ATOM     19  O   UNL d   1      -6.114   2.308   0.000  0.00  0.00    -0.296 OA
ATOM     20  C   UNL d   1      -6.833   2.730   0.000  0.00  0.00     0.185 C 
ENDBRANCH  17  19
ENDBRANCH   1  17
TORSDOF 4
