REMARK  6 active torsions:
REMARK  status: ('A' for Active; 'I' for Inactive)
REMARK    1  A    between atoms: C_8  and  C_1 
REMARK    2  A    between atoms: C_13  and  N_2 
REMARK    3  A    between atoms: C_7  and  C_4 
REMARK    4  A    between atoms: C_6  and  C_8 
REMARK    5  A    between atoms: C_22  and  C_13 
REMARK    6  A    between atoms: N_18  and  C_22 
ROOT
ATOM      1  C   UNL d   1       6.478  -4.502   0.000  0.00  0.00     0.103 A 
ATOM      2  N   UNL d   1       5.139  -4.502   0.000  0.00  0.00    -0.267 N 
ATOM      3  C   UNL d   1       6.225  -5.289   0.000  0.00  0.00     0.256 A 
ATOM      4  C   UNL d   1       5.810  -4.021   0.000  0.00  0.00     0.096 A 
ATOM      5  C   UNL d   1       5.398  -5.289   0.000  0.00  0.00     0.304 A 
ATOM      6  O   UNL d   1       4.914  -5.960   0.000  0.00  0.00    -0.263 OA
ATOM      7  O   UNL d   1       6.700  -5.960   0.000  0.00  0.00    -0.281 OA
ENDROOT
BRANCH   1   8
ATOM      8  C   UNL d   1       7.263  -4.251   0.000  0.00  0.00     0.223 C 
ATOM      9  O   UNL d   1       7.437  -3.440   0.000  0.00  0.00    -0.284 OA
BRANCH   8  10
ATOM     10  C   UNL d   1       7.879  -4.803   0.000  0.00  0.00     0.139 A 
ATOM     11  O   UNL d   1       8.687  -4.629   0.000  0.00  0.00    -0.304 OA
ATOM     12  C   UNL d   1       9.099  -5.337   0.000  0.00  0.00     0.100 A 
ATOM     13  C   UNL d   1       9.886  -5.517   0.000  0.00  0.00     0.025 A 
ATOM     14  C   UNL d   1       8.547  -5.952   0.000  0.00  0.00     0.025 A 
ATOM     15  C   UNL d   1      10.145  -6.288   0.000  0.00  0.00     0.002 A 
ATOM     16  C   UNL d   1       9.598  -6.904   0.000  0.00  0.00     0.000 A 
ATOM     17  C   UNL d   1       8.798  -6.724   0.000  0.00  0.00     0.002 A 
ATOM     18  C   UNL d   1       7.791  -5.614   0.000  0.00  0.00     0.030 A 
ENDBRANCH   8  10
ENDBRANCH   1   8
BRANCH   4  19
ATOM     19  C   UNL d   1       5.812  -3.189   0.000  0.00  0.00     0.116 A 
ATOM     20  O   UNL d   1       5.202  -2.647   0.000  0.00  0.00    -0.306 OA
ATOM     21  C   UNL d   1       5.527  -1.897   0.000  0.00  0.00     0.100 A 
ATOM     22  C   UNL d   1       5.099  -1.192   0.000  0.00  0.00     0.027 C 
ATOM     23  C   UNL d   1       6.349  -1.974   0.000  0.00  0.00     0.027 A 
ATOM     24  C   UNL d   1       6.526  -2.774   0.000  0.00  0.00     0.028 A 
ENDBRANCH   4  19
BRANCH   2  25
ATOM     25  C   UNL d   1       4.362  -4.251   0.000  0.00  0.00     0.102 C 
BRANCH  25  26
ATOM     26  C   UNL d   1       3.749  -4.803   0.000  0.00  0.00     0.100 C 
BRANCH  26  27
ATOM     27  N   UNL d   1       2.964  -4.550   0.000  0.00  0.00    -0.298 N 
ATOM     28  C   UNL d   1       2.790  -3.749   0.000  0.00  0.00     0.107 A 
ATOM     29  C   UNL d   1       2.008  -3.490   0.000  0.00  0.00     0.142 A 
ATOM     30  O   UNL d   1       1.398  -4.037   0.000  0.00  0.00    -0.300 OA
ATOM     31  C   UNL d   1       1.564  -4.846   0.000  0.00  0.00     0.142 A 
ATOM     32  C   UNL d   1       2.354  -5.099   0.000  0.00  0.00     0.107 A 
ENDBRANCH  26  27
ENDBRANCH  25  26
ENDBRANCH   2  25
TORSDOF 6
