REMARK  4 active torsions:
REMARK  status: ('A' for Active; 'I' for Inactive)
REMARK    1  A    between atoms: C_21  and  N_5 
REMARK    2  A    between atoms: C_11  and  C_6 
REMARK       I    between atoms: N_15  and  C_11 
REMARK    3  A    between atoms: C_23  and  N_15 
REMARK    4  A    between atoms: C_22  and  C_23 
ROOT
ATOM      1  C   UNL d   1       4.303  -3.849   0.000  0.00  0.00     0.155 A 
ATOM      2  C   UNL d   1       4.303  -3.019   0.000  0.00  0.00     0.091 A 
ATOM      3  N   UNL d   1       3.591  -4.256   0.000  0.00  0.00    -0.210 NA
ATOM      4  N   UNL d   1       2.878  -3.027   0.000  0.00  0.00    -0.258 N 
ATOM      5  N   UNL d   1       5.016  -4.256   0.000  0.00  0.00    -0.274 N 
ATOM      6  C   UNL d   1       5.734  -3.019   0.000  0.00  0.00     0.094 A 
ATOM      7  C   UNL d   1       2.878  -3.849   0.000  0.00  0.00     0.152 A 
ATOM      8  C   UNL d   1       3.591  -2.603   0.000  0.00  0.00     0.269 A 
ATOM      9  C   UNL d   1       5.734  -3.841   0.000  0.00  0.00     0.175 A 
ATOM     10  C   UNL d   1       5.016  -2.603   0.000  0.00  0.00     0.016 A 
ATOM     11  C   UNL d   1       2.162  -4.256   0.000  0.00  0.00     0.035 A 
ATOM     12  C   UNL d   1       2.162  -2.603   0.000  0.00  0.00     0.084 A 
ATOM     13  N   UNL d   1       6.447  -4.262   0.000  0.00  0.00    -0.128 N 
ATOM     14  O   UNL d   1       3.583  -1.781   0.000  0.00  0.00    -0.266 OA
ATOM     15  C   UNL d   1       1.452  -3.027   0.000  0.00  0.00     0.019 A 
ATOM     16  C   UNL d   1       1.452  -3.849   0.000  0.00  0.00     0.005 A 
ATOM     17  C   UNL d   1       2.162  -5.084   0.000  0.00  0.00     0.003 C 
ENDROOT
BRANCH   6  18
ATOM     18  C   UNL d   1       6.447  -2.603   0.000  0.00  0.00     0.282 C 
ATOM     19  N   UNL d   1       7.160  -3.019   0.000  0.00  0.00    -0.206 NA
ATOM     20  O   UNL d   1       6.447  -1.781   0.000  0.00  0.00    -0.265 OA
BRANCH  19  21
ATOM     21  C   UNL d   1       7.881  -2.603   0.000  0.00  0.00     0.104 C 
BRANCH  21  22
ATOM     22  C   UNL d   1       8.597  -3.019   0.000  0.00  0.00     0.038 A 
ATOM     23  C   UNL d   1       9.309  -2.603   0.000  0.00  0.00     0.101 A 
ATOM     24  N   UNL d   1      10.022  -3.019   0.000  0.00  0.00    -0.242 NA
ATOM     25  C   UNL d   1      10.028  -3.841   0.000  0.00  0.00     0.099 A 
ATOM     26  C   UNL d   1       9.309  -4.256   0.000  0.00  0.00     0.021 A 
ATOM     27  C   UNL d   1       8.597  -3.841   0.000  0.00  0.00     0.005 A 
ENDBRANCH  21  22
ENDBRANCH  19  21
ENDBRANCH   6  18
BRANCH   5  28
ATOM     28  C   UNL d   1       5.016  -5.084   0.000  0.00  0.00     0.083 C 
ATOM     29  C   UNL d   1       5.734  -5.494   0.000  0.00  0.00     0.021 C 
ENDBRANCH   5  28
TORSDOF 4
