REMARK  1 active torsions:
REMARK  status: ('A' for Active; 'I' for Inactive)
REMARK    1  A    between atoms: C_2  and  N_1 
ROOT
ATOM      1  C   UNL d   1       5.019  -3.820   0.000  0.00  0.00     0.129 A 
ATOM      2  C   UNL d   1       5.735  -4.231   0.000  0.00  0.00     0.043 A 
ATOM      3  C   UNL d   1       5.735  -5.060   0.000  0.00  0.00     0.123 A 
ATOM      4  C   UNL d   1       5.019  -5.470   0.000  0.00  0.00     0.224 A 
ATOM      5  C   UNL d   1       4.312  -4.231   0.000  0.00  0.00     0.038 A 
ATOM      6  C   UNL d   1       4.312  -5.060   0.000  0.00  0.00     0.100 A 
ATOM      7  N   UNL d   1       6.446  -5.470   0.000  0.00  0.00    -0.241 NA
ATOM      8  O   UNL d   1       5.019  -6.291   0.000  0.00  0.00    -0.284 OA
ATOM      9 CL   UNL d   1       3.601  -5.470   0.000  0.00  0.00    -0.079 Cl
ATOM     10  C   UNL d   1       6.446  -3.820   0.000  0.00  0.00     0.005 A 
ATOM     11  C   UNL d   1       7.166  -5.060   0.000  0.00  0.00     0.099 A 
ATOM     12  C   UNL d   1       7.166  -4.231   0.000  0.00  0.00     0.021 A 
ENDROOT
BRANCH   1  13
ATOM     13  N   UNL d   1       5.019  -3.000   0.000  0.00  0.00    -0.114 N 
ATOM     14  O   UNL d   1       5.730  -2.585   0.000  0.00  0.00    -0.532 OA
ATOM     15  O   UNL d   1       4.308  -2.589   0.000  0.00  0.00    -0.532 OA
ENDBRANCH   1  13
TORSDOF 1
