REMARK  8 active torsions:
REMARK  status: ('A' for Active; 'I' for Inactive)
REMARK    1  A    between atoms: N_6  and  C_1 
REMARK    2  A    between atoms: N_7  and  C_2 
REMARK       I    between atoms: C_8  and  N_6 
REMARK       I    between atoms: C_9  and  N_7 
REMARK    3  A    between atoms: C_14  and  C_8 
REMARK    4  A    between atoms: C_15  and  C_9 
REMARK    5  A    between atoms: O_12  and  C_14 
REMARK    6  A    between atoms: C_16  and  O_12 
REMARK    7  A    between atoms: O_13  and  C_15 
REMARK    8  A    between atoms: C_17  and  O_13 
ROOT
ATOM      1  C   UNL d   1      -0.958   1.161   0.000  0.00  0.00     0.232 A 
ATOM      2  C   UNL d   1      -1.179   1.956   0.000  0.00  0.00     0.232 A 
ATOM      3  N   UNL d   1      -1.664   0.717   0.000  0.00  0.00    -0.081 NA
ATOM      4  N   UNL d   1      -1.989   2.002   0.000  0.00  0.00    -0.081 NA
ATOM      5  O   UNL d   1      -2.296   1.261   0.000  0.00  0.00    -0.103 OA
ENDROOT
BRANCH   1   6
ATOM      6  N   UNL d   1      -0.157   0.958   0.000  0.00  0.00    -0.182 NA
ATOM      7  C   UNL d   1       0.064   0.157   0.000  0.00  0.00     0.306 C 
ATOM      8  O   UNL d   1       0.860  -0.064   0.000  0.00  0.00    -0.263 OA
BRANCH   7   9
ATOM      9  C   UNL d   1      -0.527  -0.432   0.000  0.00  0.00     0.185 C 
BRANCH   9  10
ATOM     10  O   UNL d   1      -1.326  -0.211   0.000  0.00  0.00    -0.300 OA
BRANCH  10  11
ATOM     11  C   UNL d   1      -1.916  -0.786   0.000  0.00  0.00     0.100 A 
ATOM     12  C   UNL d   1      -1.697  -1.585   0.000  0.00  0.00     0.025 A 
ATOM     13  C   UNL d   1      -2.285  -2.163   0.000  0.00  0.00     0.002 A 
ATOM     14  C   UNL d   1      -3.078  -1.956   0.000  0.00  0.00     0.000 A 
ATOM     15  C   UNL d   1      -3.299  -1.154   0.000  0.00  0.00     0.002 A 
ATOM     16  C   UNL d   1      -2.709  -0.565   0.000  0.00  0.00     0.025 A 
ENDBRANCH  10  11
ENDBRANCH   9  10
ENDBRANCH   7   9
ENDBRANCH   1   6
BRANCH   2  17
ATOM     17  N   UNL d   1      -0.643   2.608   0.000  0.00  0.00    -0.182 NA
ATOM     18  C   UNL d   1      -0.923   3.386   0.000  0.00  0.00     0.306 C 
ATOM     19  O   UNL d   1      -0.394   4.006   0.000  0.00  0.00    -0.263 OA
BRANCH  18  20
ATOM     20  C   UNL d   1      -1.752   3.527   0.000  0.00  0.00     0.185 C 
BRANCH  20  21
ATOM     21  O   UNL d   1      -2.285   2.903   0.000  0.00  0.00    -0.300 OA
BRANCH  21  22
ATOM     22  C   UNL d   1      -3.096   3.063   0.000  0.00  0.00     0.100 A 
ATOM     23  C   UNL d   1      -3.391   3.829   0.000  0.00  0.00     0.025 A 
ATOM     24  C   UNL d   1      -4.186   4.023   0.000  0.00  0.00     0.002 A 
ATOM     25  C   UNL d   1      -4.716   3.371   0.000  0.00  0.00     0.000 A 
ATOM     26  C   UNL d   1      -4.432   2.599   0.000  0.00  0.00     0.002 A 
ATOM     27  C   UNL d   1      -3.626   2.433   0.000  0.00  0.00     0.025 A 
ENDBRANCH  21  22
ENDBRANCH  20  21
ENDBRANCH  18  20
ENDBRANCH   2  17
TORSDOF 8
