REMARK  7 active torsions:
REMARK  status: ('A' for Active; 'I' for Inactive)
REMARK    1  A    between atoms: N_4  and  C_1 
REMARK    2  A    between atoms: C_9  and  C_2 
REMARK    3  A    between atoms: C_7  and  N_4 
REMARK       I    between atoms: C_10  and  N_8 
REMARK    4  A    between atoms: C_17  and  C_10 
REMARK    5  A    between atoms: C_12  and  C_18 
REMARK    6  A    between atoms: O_20  and  C_12 
REMARK    7  A    between atoms: C_18  and  C_17 
ROOT
ATOM      1  N   UNL d   1      -0.032   1.054   0.000  0.00  0.00    -0.211 NA
ENDROOT
BRANCH   1   2
ATOM      2  C   UNL d   1       0.812   1.054   0.000  0.00  0.00     0.118 A 
ATOM      3  C   UNL d   1       1.307   0.368   0.000  0.00  0.00     0.084 A 
ATOM      4  C   UNL d   1       2.091   0.626   0.000  0.00  0.00     0.013 A 
ATOM      5  C   UNL d   1       2.783   0.121   0.000  0.00  0.00     0.001 C 
ATOM      6  C   UNL d   1       2.103   1.433   0.000  0.00  0.00     0.031 A 
ATOM      7  S   UNL d   1       1.325   1.708   0.000  0.00  0.00    -0.068 SA
ATOM      8  C   UNL d   1       2.814   1.907   0.000  0.00  0.00     0.007 C 
BRANCH   3   9
ATOM      9  C   UNL d   1       1.041  -0.441   0.000  0.00  0.00     0.299 C 
ATOM     10  O   UNL d   1       0.214  -0.613   0.000  0.00  0.00    -0.264 OA
ATOM     11  N   UNL d   1       1.603  -1.087   0.000  0.00  0.00    -0.102 N 
ENDBRANCH   3   9
ENDBRANCH   1   2
BRANCH   1  12
ATOM     12  C   UNL d   1      -0.427   1.752   0.000  0.00  0.00     0.224 C 
ATOM     13  N   UNL d   1      -1.624   1.738   0.000  0.00  0.00    -0.179 NA
ATOM     14  C   UNL d   1      -2.014   1.030   0.000  0.00  0.00     0.281 C 
ATOM     15  O   UNL d   1      -2.820   1.021   0.000  0.00  0.00    -0.265 OA
ATOM     16  S   UNL d   1      -0.032   2.458   0.000  0.00  0.00    -0.037 SA
BRANCH  14  17
ATOM     17  C   UNL d   1      -1.609   0.342   0.000  0.00  0.00     0.068 C 
BRANCH  17  18
ATOM     18  C   UNL d   1      -2.028  -0.353   0.000  0.00  0.00     0.073 C 
BRANCH  18  19
ATOM     19  C   UNL d   1      -1.606  -1.050   0.000  0.00  0.00     0.296 C 
ATOM     20  O   UNL d   1      -0.824  -1.036   0.000  0.00  0.00    -0.259 OA
BRANCH  19  21
ATOM     21  O   UNL d   1      -2.002  -1.758   0.000  0.00  0.00    -0.296 OA
ATOM     22  C   UNL d   1      -1.574  -2.455   0.000  0.00  0.00     0.185 C 
ENDBRANCH  19  21
ENDBRANCH  18  19
ENDBRANCH  17  18
ENDBRANCH  14  17
ENDBRANCH   1  12
TORSDOF 7
