REMARK  7 active torsions:
REMARK  status: ('A' for Active; 'I' for Inactive)
REMARK    1  A    between atoms: N_4  and  C_1 
REMARK    2  A    between atoms: C_9  and  C_2 
REMARK    3  A    between atoms: C_7  and  N_4 
REMARK    4  A    between atoms: N_8  and  C_7 
REMARK       I    between atoms: C_10  and  N_8 
REMARK    5  A    between atoms: C_15  and  C_10 
REMARK    6  A    between atoms: C_18  and  C_15 
REMARK    7  A    between atoms: C_19  and  C_18 
ROOT
ATOM      1  C   UNL d   1       0.882   1.034   0.000  0.00  0.00     0.224 C 
ATOM      2  S   UNL d   1       1.288   1.754   0.000  0.00  0.00    -0.037 SA
ENDROOT
BRANCH   1   3
ATOM      3  N   UNL d   1       1.284   0.335   0.000  0.00  0.00    -0.211 NA
BRANCH   3   4
ATOM      4  C   UNL d   1       2.100   0.335   0.000  0.00  0.00     0.118 A 
ATOM      5  C   UNL d   1       2.588  -0.331   0.000  0.00  0.00     0.084 A 
ATOM      6  C   UNL d   1       3.346  -0.080   0.000  0.00  0.00     0.013 A 
ATOM      7  C   UNL d   1       4.021  -0.572   0.000  0.00  0.00     0.001 C 
ATOM      8  C   UNL d   1       3.362   0.706   0.000  0.00  0.00     0.031 A 
ATOM      9  S   UNL d   1       2.601   0.979   0.000  0.00  0.00    -0.068 SA
ATOM     10  C   UNL d   1       4.058   1.158   0.000  0.00  0.00     0.007 C 
BRANCH   5  11
ATOM     11  C   UNL d   1       2.328  -1.123   0.000  0.00  0.00     0.299 C 
ATOM     12  O   UNL d   1       1.520  -1.295   0.000  0.00  0.00    -0.264 OA
ATOM     13  N   UNL d   1       2.879  -1.751   0.000  0.00  0.00    -0.102 N 
ENDBRANCH   5  11
ENDBRANCH   3   4
ENDBRANCH   1   3
BRANCH   1  14
ATOM     14  N   UNL d   1       0.060   1.022   0.000  0.00  0.00    -0.179 NA
ATOM     15  C   UNL d   1      -0.349   0.329   0.000  0.00  0.00     0.281 C 
ATOM     16  O   UNL d   1       0.048  -0.378   0.000  0.00  0.00    -0.265 OA
BRANCH  15  17
ATOM     17  C   UNL d   1      -1.186   0.316   0.000  0.00  0.00     0.063 C 
BRANCH  17  18
ATOM     18  C   UNL d   1      -1.580  -0.388   0.000  0.00  0.00     0.005 C 
BRANCH  18  19
ATOM     19  C   UNL d   1      -2.404  -0.378   0.000  0.00  0.00     0.000 A 
ATOM     20  C   UNL d   1      -2.826   0.339   0.000  0.00  0.00     0.000 A 
ATOM     21  C   UNL d   1      -3.638   0.335   0.000  0.00  0.00     0.000 A 
ATOM     22  C   UNL d   1      -4.058  -0.388   0.000  0.00  0.00     0.000 A 
ATOM     23  C   UNL d   1      -3.638  -1.092   0.000  0.00  0.00     0.000 A 
ATOM     24  C   UNL d   1      -2.807  -1.075   0.000  0.00  0.00     0.000 A 
ENDBRANCH  18  19
ENDBRANCH  17  18
ENDBRANCH  15  17
ENDBRANCH   1  14
TORSDOF 7
