REMARK  4 active torsions:
REMARK  status: ('A' for Active; 'I' for Inactive)
REMARK    1  A    between atoms: C_12  and  N_1 
REMARK    2  A    between atoms: N_2  and  C_11 
REMARK    3  A    between atoms: C_11  and  C_15 
REMARK    4  A    between atoms: C_15  and  C_12 
ROOT
ATOM      1  N   UNL d   1      -2.163  -5.528   0.000  0.00  0.00    -0.303 N 
ATOM      2  C   UNL d   1      -1.666  -4.852   0.000  0.00  0.00     0.064 A 
ATOM      3  C   UNL d   1      -2.163  -4.175   0.000  0.00  0.00     0.018 A 
ATOM      4  C   UNL d   1      -2.952  -4.438   0.000  0.00  0.00     0.018 A 
ATOM      5  C   UNL d   1      -2.952  -5.265   0.000  0.00  0.00     0.064 A 
ATOM      6  C   UNL d   1      -3.666  -5.678   0.000  0.00  0.00     0.018 A 
ATOM      7  C   UNL d   1      -3.666  -4.025   0.000  0.00  0.00     0.002 A 
ATOM      8  C   UNL d   1      -4.380  -5.265   0.000  0.00  0.00     0.002 A 
ATOM      9  C   UNL d   1      -4.380  -4.438   0.000  0.00  0.00     0.000 A 
ATOM     10  C   UNL d   1      -0.839  -4.852   0.000  0.00  0.00     0.019 C 
ATOM     11  C   UNL d   1      -1.912  -3.394   0.000  0.00  0.00     0.002 C 
ATOM     12  C   UNL d   1      -5.094  -4.025   0.000  0.00  0.00     0.000 C 
ENDROOT
BRANCH   1  13
ATOM     13  C   UNL d   1      -1.900  -6.313   0.000  0.00  0.00     0.124 C 
BRANCH  13  14
ATOM     14  C   UNL d   1      -2.455  -6.927   0.000  0.00  0.00     0.232 C 
ATOM     15  O   UNL d   1      -3.265  -6.756   0.000  0.00  0.00    -0.283 OA
BRANCH  14  16
ATOM     16  C   UNL d   1      -2.200  -7.708   0.000  0.00  0.00     0.144 C 
BRANCH  16  17
ATOM     17  N   UNL d   1      -1.390  -7.883   0.000  0.00  0.00    -0.225 N 
ATOM     18  N   UNL d   1      -0.777  -7.332   0.000  0.00  0.00    -0.165 NA
ATOM     19  C   UNL d   1      -0.058  -7.745   0.000  0.00  0.00     0.109 A 
ATOM     20  C   UNL d   1       0.693  -7.407   0.000  0.00  0.00     0.023 C 
ATOM     21  C   UNL d   1      -0.234  -8.555   0.000  0.00  0.00     0.072 A 
ATOM     22  C   UNL d   1      -1.052  -8.643   0.000  0.00  0.00     0.091 A 
ATOM     23 BR   UNL d   1       0.317  -9.169   0.000  0.00  0.00    -0.046 Br
ATOM     24  C   UNL d   1      -1.466  -9.357   0.000  0.00  0.00     0.021 C 
ENDBRANCH  16  17
ENDBRANCH  14  16
ENDBRANCH  13  14
ENDBRANCH   1  13
TORSDOF 4
