REMARK  5 active torsions:
REMARK  status: ('A' for Active; 'I' for Inactive)
REMARK    1  A    between atoms: N_2  and  S_1 
REMARK    2  A    between atoms: C_4  and  S_1 
REMARK    3  A    between atoms: C_3  and  N_2 
REMARK    4  A    between atoms: N_7  and  C_3 
REMARK    5  A    between atoms: C_15  and  N_7 
ROOT
ATOM      1  S   UNL d   1       5.117  -4.181   0.000  0.00  0.00     0.287 S 
ATOM      2  O   UNL d   1       5.107  -3.348   0.000  0.00  0.00    -0.198 OA
ATOM      3  O   UNL d   1       5.107  -5.006   0.000  0.00  0.00    -0.198 OA
ENDROOT
BRANCH   1   4
ATOM      4  N   UNL d   1       5.943  -4.181   0.000  0.00  0.00    -0.128 NA
BRANCH   4   5
ATOM      5  C   UNL d   1       6.664  -3.757   0.000  0.00  0.00     0.232 C 
ATOM      6  S   UNL d   1       6.656  -2.937   0.000  0.00  0.00    -0.036 SA
BRANCH   5   7
ATOM      7  N   UNL d   1       7.377  -4.173   0.000  0.00  0.00    -0.217 NA
BRANCH   7   8
ATOM      8  C   UNL d   1       8.091  -3.757   0.000  0.00  0.00     0.084 A 
ATOM      9  C   UNL d   1       8.802  -4.166   0.000  0.00  0.00     0.019 A 
ATOM     10  C   UNL d   1       9.511  -3.757   0.000  0.00  0.00     0.002 A 
ATOM     11  C   UNL d   1       9.516  -2.937   0.000  0.00  0.00     0.000 A 
ATOM     12  C   UNL d   1       8.802  -2.523   0.000  0.00  0.00     0.002 A 
ATOM     13  C   UNL d   1       8.089  -2.932   0.000  0.00  0.00     0.019 A 
ENDBRANCH   7   8
ENDBRANCH   5   7
ENDBRANCH   4   5
ENDBRANCH   1   4
BRANCH   1  14
ATOM     14  C   UNL d   1       4.285  -4.181   0.000  0.00  0.00     0.105 A 
ATOM     15  C   UNL d   1       3.868  -3.459   0.000  0.00  0.00     0.014 A 
ATOM     16  C   UNL d   1       3.048  -3.459   0.000  0.00  0.00     0.012 A 
ATOM     17  C   UNL d   1       2.634  -4.173   0.000  0.00  0.00     0.058 A 
ATOM     18  C   UNL d   1       3.043  -4.892   0.000  0.00  0.00     0.012 A 
ATOM     19 CL   UNL d   1       1.814  -4.173   0.000  0.00  0.00    -0.082 Cl
ATOM     20  C   UNL d   1       3.868  -4.892   0.000  0.00  0.00     0.014 A 
ENDBRANCH   1  14
TORSDOF 5
