REMARK  5 active torsions:
REMARK  status: ('A' for Active; 'I' for Inactive)
REMARK    1  A    between atoms: N_7  and  C_1 
REMARK    2  A    between atoms: C_14  and  N_4 
REMARK    3  A    between atoms: C_6  and  N_7 
REMARK    4  A    between atoms: C_13  and  N_8 
REMARK    5  A    between atoms: C_17  and  C_13 
ROOT
ATOM      1  C   UNL d   1       2.732  -0.237   0.000  0.00  0.00     0.159 A 
ATOM      2  C   UNL d   1       2.063  -0.715   0.000  0.00  0.00     0.298 A 
ATOM      3  N   UNL d   1       1.663   0.545   0.000  0.00  0.00    -0.238 N 
ATOM      4  N   UNL d   1       1.401  -0.229   0.000  0.00  0.00    -0.209 N 
ATOM      5  C   UNL d   1       2.483   0.545   0.000  0.00  0.00     0.104 A 
ATOM      6  O   UNL d   1       2.058  -1.539   0.000  0.00  0.00    -0.263 OA
ATOM      7  C   UNL d   1       1.185   1.218   0.000  0.00  0.00     0.120 C 
ATOM      8  C   UNL d   1       2.969   1.206   0.000  0.00  0.00     0.022 C 
ENDROOT
BRANCH   1   9
ATOM      9  N   UNL d   1       3.510  -0.499   0.000  0.00  0.00    -0.216 NA
BRANCH   9  10
ATOM     10  C   UNL d   1       4.129   0.046   0.000  0.00  0.00     0.180 A 
ATOM     11  N   UNL d   1       4.932  -0.129   0.000  0.00  0.00    -0.285 N 
ATOM     12  C   UNL d   1       5.344   0.582   0.000  0.00  0.00     0.072 A 
ATOM     13  C   UNL d   1       6.167   0.661   0.000  0.00  0.00     0.020 C 
ATOM     14  C   UNL d   1       4.803   1.194   0.000  0.00  0.00     0.056 A 
ATOM     15  S   UNL d   1       4.046   0.869   0.000  0.00  0.00    -0.048 SA
BRANCH  11  16
ATOM     16  C   UNL d   1       5.265  -0.877   0.000  0.00  0.00     0.082 C 
BRANCH  16  17
ATOM     17  C   UNL d   1       6.092  -0.973   0.000  0.00  0.00     0.018 A 
ATOM     18  C   UNL d   1       6.512  -1.688   0.000  0.00  0.00     0.002 A 
ATOM     19  C   UNL d   1       7.352  -1.688   0.000  0.00  0.00     0.000 A 
ATOM     20  C   UNL d   1       7.764  -0.961   0.000  0.00  0.00     0.000 A 
ATOM     21  C   UNL d   1       7.340  -0.237   0.000  0.00  0.00     0.000 A 
ATOM     22  C   UNL d   1       6.504  -0.241   0.000  0.00  0.00     0.002 A 
ENDBRANCH  16  17
ENDBRANCH  11  16
ENDBRANCH   9  10
ENDBRANCH   1   9
BRANCH   4  23
ATOM     23  C   UNL d   1       0.616  -0.478   0.000  0.00  0.00     0.085 A 
ATOM     24  C   UNL d   1       0.013   0.075   0.000  0.00  0.00     0.019 A 
ATOM     25  C   UNL d   1      -0.769  -0.175   0.000  0.00  0.00     0.002 A 
ATOM     26  C   UNL d   1      -0.956  -0.977   0.000  0.00  0.00     0.000 A 
ATOM     27  C   UNL d   1      -0.345  -1.534   0.000  0.00  0.00     0.002 A 
ATOM     28  C   UNL d   1       0.441  -1.285   0.000  0.00  0.00     0.019 A 
ENDBRANCH   4  23
TORSDOF 5
