REMARK  5 active torsions:
REMARK  status: ('A' for Active; 'I' for Inactive)
REMARK    1  A    between atoms: N_8  and  C_2 
REMARK    2  A    between atoms: C_6  and  C_5 
REMARK    3  A    between atoms: C_7  and  C_6 
REMARK       I    between atoms: N_9  and  C_7 
REMARK    4  A    between atoms: C_18  and  N_9 
REMARK    5  A    between atoms: C_11  and  C_12 
ROOT
ATOM      1  C   UNL d   1       1.200  -0.969   0.000  0.00  0.00     0.280 C 
ATOM      2  N   UNL d   1       0.480  -0.552   0.000  0.00  0.00    -0.208 NA
ATOM      3  O   UNL d   1       1.200  -1.790   0.000  0.00  0.00    -0.265 OA
ENDROOT
BRANCH   1   4
ATOM      4  C   UNL d   1       1.905  -0.552   0.000  0.00  0.00     0.074 C 
BRANCH   4   5
ATOM      5  C   UNL d   1       2.625  -0.955   0.000  0.00  0.00     0.093 A 
ATOM      6  C   UNL d   1       2.711  -1.775   0.000  0.00  0.00     0.272 A 
ATOM      7  N   UNL d   1       3.517  -1.948   0.000  0.00  0.00    -0.251 N 
ATOM      8  O   UNL d   1       2.106  -2.337   0.000  0.00  0.00    -0.266 OA
ATOM      9  C   UNL d   1       3.934  -1.228   0.000  0.00  0.00     0.182 A 
ATOM     10  C   UNL d   1       3.862  -2.696   0.000  0.00  0.00     0.104 C 
ATOM     11  S   UNL d   1       3.373  -0.624   0.000  0.00  0.00    -0.045 SA
BRANCH   9  12
ATOM     12  N   UNL d   1       4.755  -1.142   0.000  0.00  0.00    -0.219 NA
ATOM     13  C   UNL d   1       5.244  -1.804   0.000  0.00  0.00     0.122 C 
ENDBRANCH   9  12
ENDBRANCH   4   5
ENDBRANCH   1   4
BRANCH   2  14
ATOM     14  C   UNL d   1      -0.230  -0.969   0.000  0.00  0.00     0.085 A 
ATOM     15  C   UNL d   1      -0.230  -1.804   0.000  0.00  0.00     0.019 A 
ATOM     16  C   UNL d   1      -0.945  -2.217   0.000  0.00  0.00     0.005 A 
ATOM     17  C   UNL d   1      -1.665  -1.804   0.000  0.00  0.00     0.039 A 
ATOM     18  C   UNL d   1      -1.665  -0.979   0.000  0.00  0.00     0.005 A 
ATOM     19  C   UNL d   1      -0.945  -0.561   0.000  0.00  0.00     0.019 A 
BRANCH  17  20
ATOM     20  C   UNL d   1      -2.375  -2.217   0.000  0.00  0.00     0.196 C 
ATOM     21  O   UNL d   1      -2.375  -3.042   0.000  0.00  0.00    -0.287 OA
ATOM     22  C   UNL d   1      -3.090  -1.804   0.000  0.00  0.00     0.045 C 
ENDBRANCH  17  20
ENDBRANCH   2  14
TORSDOF 5
