REMARK  5 active torsions:
REMARK  status: ('A' for Active; 'I' for Inactive)
REMARK    1  A    between atoms: N_2  and  S_1 
REMARK    2  A    between atoms: C_6  and  S_1 
REMARK    3  A    between atoms: C_3  and  N_2 
REMARK    4  A    between atoms: N_7  and  C_3 
REMARK    5  A    between atoms: C_9  and  N_7 
ROOT
ATOM      1  N   UNL d   1       2.744  -0.763   0.000  0.00  0.00    -0.128 NA
ENDROOT
BRANCH   1   2
ATOM      2  S   UNL d   1       1.914  -0.763   0.000  0.00  0.00     0.287 S 
ATOM      3  O   UNL d   1       1.904   0.072   0.000  0.00  0.00    -0.198 OA
ATOM      4  O   UNL d   1       1.904  -1.593   0.000  0.00  0.00    -0.198 OA
BRANCH   2   5
ATOM      5  C   UNL d   1       1.079  -0.763   0.000  0.00  0.00     0.105 A 
ATOM      6  C   UNL d   1       0.662  -0.041   0.000  0.00  0.00     0.013 A 
ATOM      7  C   UNL d   1      -0.161  -0.041   0.000  0.00  0.00     0.001 A 
ATOM      8  C   UNL d   1      -0.573  -0.753   0.000  0.00  0.00     0.000 A 
ATOM      9  C   UNL d   1      -0.163  -1.474   0.000  0.00  0.00     0.001 A 
ATOM     10  C   UNL d   1       0.662  -1.474   0.000  0.00  0.00     0.013 A 
ENDBRANCH   2   5
ENDBRANCH   1   2
BRANCH   1  11
ATOM     11  C   UNL d   1       3.466  -0.341   0.000  0.00  0.00     0.232 C 
ATOM     12  S   UNL d   1       3.456   0.484   0.000  0.00  0.00    -0.036 SA
BRANCH  11  13
ATOM     13  N   UNL d   1       4.182  -0.753   0.000  0.00  0.00    -0.217 NA
BRANCH  13  14
ATOM     14  C   UNL d   1       4.897  -0.338   0.000  0.00  0.00     0.084 A 
ATOM     15  C   UNL d   1       5.610  -0.748   0.000  0.00  0.00     0.019 A 
ATOM     16  C   UNL d   1       6.320  -0.338   0.000  0.00  0.00     0.002 A 
ATOM     17  C   UNL d   1       6.325   0.484   0.000  0.00  0.00     0.000 A 
ATOM     18  C   UNL d   1       5.610   0.898   0.000  0.00  0.00     0.002 A 
ATOM     19  C   UNL d   1       4.894   0.489   0.000  0.00  0.00     0.019 A 
ENDBRANCH  13  14
ENDBRANCH  11  13
ENDBRANCH   1  11
TORSDOF 5
