REMARK  5 active torsions:
REMARK  status: ('A' for Active; 'I' for Inactive)
REMARK    1  A    between atoms: N_2  and  S_1 
REMARK    2  A    between atoms: C_4  and  S_1 
REMARK    3  A    between atoms: C_3  and  N_2 
REMARK    4  A    between atoms: N_7  and  C_3 
REMARK    5  A    between atoms: C_14  and  N_7 
ROOT
ATOM      1  S   UNL d   1       4.713  -4.185   0.000  0.00  0.00     0.287 S 
ATOM      2  O   UNL d   1       4.706  -3.352   0.000  0.00  0.00    -0.198 OA
ATOM      3  O   UNL d   1       4.706  -5.019   0.000  0.00  0.00    -0.198 OA
ENDROOT
BRANCH   1   4
ATOM      4  N   UNL d   1       5.544  -4.185   0.000  0.00  0.00    -0.128 NA
BRANCH   4   5
ATOM      5  C   UNL d   1       6.264  -3.765   0.000  0.00  0.00     0.232 C 
ATOM      6  S   UNL d   1       6.257  -2.943   0.000  0.00  0.00    -0.036 SA
BRANCH   5   7
ATOM      7  N   UNL d   1       6.979  -4.178   0.000  0.00  0.00    -0.217 NA
BRANCH   7   8
ATOM      8  C   UNL d   1       7.691  -3.763   0.000  0.00  0.00     0.084 A 
ATOM      9  C   UNL d   1       8.404  -4.176   0.000  0.00  0.00     0.019 A 
ATOM     10  C   UNL d   1       9.117  -3.763   0.000  0.00  0.00     0.002 A 
ATOM     11  C   UNL d   1       9.121  -2.943   0.000  0.00  0.00     0.000 A 
ATOM     12  C   UNL d   1       8.404  -2.530   0.000  0.00  0.00     0.002 A 
ATOM     13  C   UNL d   1       7.689  -2.938   0.000  0.00  0.00     0.019 A 
ENDBRANCH   7   8
ENDBRANCH   5   7
ENDBRANCH   4   5
ENDBRANCH   1   4
BRANCH   1  14
ATOM     14  C   UNL d   1       3.879  -4.185   0.000  0.00  0.00     0.105 A 
ATOM     15  C   UNL d   1       3.463  -3.466   0.000  0.00  0.00     0.013 A 
ATOM     16  C   UNL d   1       2.639  -3.466   0.000  0.00  0.00     0.001 A 
ATOM     17  C   UNL d   1       2.231  -4.178   0.000  0.00  0.00     0.000 A 
ATOM     18  C   UNL d   1       2.637  -4.898   0.000  0.00  0.00     0.001 A 
ATOM     19  C   UNL d   1       1.404  -4.178   0.000  0.00  0.00     0.000 C 
ATOM     20  C   UNL d   1       3.463  -4.898   0.000  0.00  0.00     0.013 A 
ENDBRANCH   1  14
TORSDOF 5
