REMARK  5 active torsions:
REMARK  status: ('A' for Active; 'I' for Inactive)
REMARK    1  A    between atoms: C_5  and  N_1 
REMARK    2  A    between atoms: C_2  and  N_3 
REMARK    3  A    between atoms: C_7  and  C_2 
REMARK    4  A    between atoms: N_4  and  C_8 
REMARK    5  A    between atoms: N_16  and  C_11 
ROOT
ATOM      1  N   UNL d   1       4.550  -5.789   0.000  0.00  0.00    -0.293 N 
ATOM      2  N   UNL d   1       6.129  -5.333   0.000  0.00  0.00    -0.301 N 
ATOM      3  C   UNL d   1       5.147  -6.368   0.000  0.00  0.00     0.100 A 
ATOM      4  C   UNL d   1       4.738  -4.998   0.000  0.00  0.00     0.100 A 
ATOM      5  C   UNL d   1       5.534  -4.761   0.000  0.00  0.00     0.100 A 
ATOM      6  C   UNL d   1       5.928  -6.141   0.000  0.00  0.00     0.100 A 
ENDROOT
BRANCH   1   7
ATOM      7  C   UNL d   1       3.757  -6.026   0.000  0.00  0.00     0.120 C 
ATOM      8  S   UNL d   1       3.561  -6.829   0.000  0.00  0.00    -0.059 SA
BRANCH   7   9
ATOM      9  C   UNL d   1       3.162  -5.457   0.000  0.00  0.00     0.027 A 
ATOM     10  C   UNL d   1       3.353  -4.658   0.000  0.00  0.00     0.004 A 
ATOM     11  C   UNL d   1       2.758  -4.087   0.000  0.00  0.00     0.018 A 
ATOM     12  C   UNL d   1       1.962  -4.329   0.000  0.00  0.00     0.064 A 
ATOM     13  C   UNL d   1       1.777  -5.132   0.000  0.00  0.00     0.018 A 
ATOM     14  C   UNL d   1       2.372  -5.696   0.000  0.00  0.00     0.004 A 
BRANCH  12  15
ATOM     15  N   UNL d   1       1.367  -3.757   0.000  0.00  0.00    -0.301 N 
ATOM     16  C   UNL d   1       0.574  -3.994   0.000  0.00  0.00     0.100 C 
ATOM     17  C   UNL d   1       1.563  -2.954   0.000  0.00  0.00     0.100 C 
ENDBRANCH  12  15
ENDBRANCH   7   9
ENDBRANCH   1   7
BRANCH   2  18
ATOM     18  C   UNL d   1       6.922  -5.101   0.000  0.00  0.00     0.064 A 
ATOM     19  C   UNL d   1       7.110  -4.306   0.000  0.00  0.00     0.019 A 
ATOM     20  C   UNL d   1       7.903  -4.074   0.000  0.00  0.00     0.025 A 
ATOM     21  C   UNL d   1       8.498  -4.645   0.000  0.00  0.00     0.127 A 
ATOM     22  C   UNL d   1       8.307  -5.449   0.000  0.00  0.00     0.025 A 
ATOM     23  C   UNL d   1       7.519  -5.673   0.000  0.00  0.00     0.019 A 
BRANCH  21  24
ATOM     24  N   UNL d   1       9.288  -4.414   0.000  0.00  0.00    -0.114 N 
ATOM     25  O   UNL d   1       9.888  -4.985   0.000  0.00  0.00    -0.532 OA
ATOM     26  O   UNL d   1       9.489  -3.615   0.000  0.00  0.00    -0.532 OA
ENDBRANCH  21  24
ENDBRANCH   2  18
TORSDOF 5
