REMARK  4 active torsions:
REMARK  status: ('A' for Active; 'I' for Inactive)
REMARK    1  A    between atoms: N_2  and  S_1 
REMARK    2  A    between atoms: C_4  and  S_1 
REMARK    3  A    between atoms: C_3  and  C_9 
REMARK       I    between atoms: N_5  and  C_3 
REMARK    4  A    between atoms: C_6  and  N_5 
ROOT
ATOM      1  C   UNL d   1       1.575  -0.314   0.000  0.00  0.00     0.104 A 
ATOM      2  C   UNL d   1       3.003  -0.343   0.000  0.00  0.00     0.059 A 
ATOM      3  C   UNL d   1       2.285  -0.743   0.000  0.00  0.00     0.018 A 
ATOM      4  C   UNL d   1       1.590   0.509   0.000  0.00  0.00     0.013 A 
ATOM      5  C   UNL d   1       3.018   0.481   0.000  0.00  0.00     0.005 A 
ATOM      6  C   UNL d   1       2.304   0.909   0.000  0.00  0.00     0.001 A 
ENDROOT
BRANCH   1   7
ATOM      7  S   UNL d   1       0.862  -0.714   0.000  0.00  0.00     0.271 S 
ATOM      8  O   UNL d   1       1.399  -1.314   0.000  0.00  0.00    -0.200 OA
ATOM      9  O   UNL d   1       0.276  -0.129   0.000  0.00  0.00    -0.200 OA
BRANCH   7  10
ATOM     10  N   UNL d   1       0.200  -1.199   0.000  0.00  0.00    -0.229 N 
ATOM     11  C   UNL d   1       0.333  -2.028   0.000  0.00  0.00     0.092 A 
ATOM     12  C   UNL d   1      -0.181  -2.542   0.000  0.00  0.00     0.020 A 
ATOM     13  C   UNL d   1      -1.042  -2.542   0.000  0.00  0.00     0.002 A 
ATOM     14  C   UNL d   1      -1.552  -1.999   0.000  0.00  0.00     0.002 A 
ATOM     15  C   UNL d   1      -1.395  -1.171   0.000  0.00  0.00     0.020 A 
ATOM     16  C   UNL d   1      -0.585  -0.800   0.000  0.00  0.00     0.092 A 
ENDBRANCH   7  10
ENDBRANCH   1   7
BRANCH   2  17
ATOM     17  C   UNL d   1       3.713  -0.771   0.000  0.00  0.00     0.281 C 
ATOM     18  N   UNL d   1       4.431  -0.362   0.000  0.00  0.00    -0.187 NA
ATOM     19  O   UNL d   1       3.689  -1.590   0.000  0.00  0.00    -0.265 OA
BRANCH  18  20
ATOM     20  C   UNL d   1       5.131  -0.790   0.000  0.00  0.00     0.194 A 
ATOM     21  N   UNL d   1       5.202  -1.613   0.000  0.00  0.00    -0.106 NA
ATOM     22  O   UNL d   1       6.002  -1.799   0.000  0.00  0.00    -0.207 OA
ATOM     23  C   UNL d   1       6.430  -1.090   0.000  0.00  0.00     0.153 A 
ATOM     24  C   UNL d   1       5.897  -0.471   0.000  0.00  0.00     0.070 A 
ENDBRANCH  18  20
ENDBRANCH   2  17
TORSDOF 4
