REMARK  6 active torsions:
REMARK  status: ('A' for Active; 'I' for Inactive)
REMARK    1  A    between atoms: N_2  and  S_1 
REMARK    2  A    between atoms: C_3  and  S_1 
REMARK    3  A    between atoms: C_4  and  C_9 
REMARK    4  A    between atoms: O_12  and  C_4 
REMARK    5  A    between atoms: C_19  and  O_12 
REMARK    6  A    between atoms: C_18  and  C_19 
ROOT
ATOM      1  C   UNL d   1       1.326   1.216   0.000  0.00  0.00     0.104 A 
ATOM      2  C   UNL d   1       1.929   0.641   0.000  0.00  0.00     0.018 A 
ATOM      3  C   UNL d   1       2.719   0.885   0.000  0.00  0.00     0.064 A 
ATOM      4  C   UNL d   1       1.508   2.020   0.000  0.00  0.00     0.013 A 
ATOM      5  C   UNL d   1       2.905   1.694   0.000  0.00  0.00     0.005 A 
ATOM      6  C   UNL d   1       2.298   2.264   0.000  0.00  0.00     0.001 A 
ENDROOT
BRANCH   3   7
ATOM      7  C   UNL d   1       3.332   0.326   0.000  0.00  0.00     0.300 C 
ATOM      8  O   UNL d   1       4.121   0.570   0.000  0.00  0.00    -0.259 OA
BRANCH   7   9
ATOM      9  O   UNL d   1       3.145  -0.479   0.000  0.00  0.00    -0.271 OA
BRANCH   9  10
ATOM     10  C   UNL d   1       3.748  -1.039   0.000  0.00  0.00     0.126 C 
BRANCH  10  11
ATOM     11  C   UNL d   1       4.528  -0.795   0.000  0.00  0.00     0.027 A 
ATOM     12  C   UNL d   1       4.700   0.000   0.000  0.00  0.00     0.028 A 
ATOM     13  C   UNL d   1       5.485   0.244   0.000  0.00  0.00     0.119 A 
ATOM     14  O   UNL d   1       5.830   1.000   0.000  0.00  0.00    -0.300 OA
ATOM     15  C   UNL d   1       6.093  -0.306   0.000  0.00  0.00     0.119 A 
ATOM     16  C   UNL d   1       6.649   0.900   0.000  0.00  0.00     0.304 A 
ATOM     17  O   UNL d   1       6.811   0.096   0.000  0.00  0.00    -0.300 OA
ATOM     18  C   UNL d   1       5.916  -1.111   0.000  0.00  0.00     0.026 A 
ATOM     19  C   UNL d   1       5.131  -1.355   0.000  0.00  0.00     0.004 A 
ENDBRANCH  10  11
ENDBRANCH   9  10
ENDBRANCH   7   9
ENDBRANCH   3   7
BRANCH   1  20
ATOM     20  S   UNL d   1       0.536   0.972   0.000  0.00  0.00     0.271 S 
ATOM     21  O   UNL d   1       0.747   0.168   0.000  0.00  0.00    -0.200 OA
ATOM     22  O   UNL d   1       0.321   1.776   0.000  0.00  0.00    -0.200 OA
BRANCH  20  23
ATOM     23  N   UNL d   1      -0.254   0.713   0.000  0.00  0.00    -0.229 N 
ATOM     24  C   UNL d   1      -0.871   1.273   0.000  0.00  0.00     0.092 A 
ATOM     25  C   UNL d   1      -1.651   1.005   0.000  0.00  0.00     0.020 A 
ATOM     26  C   UNL d   1      -1.833   0.196   0.000  0.00  0.00     0.003 A 
ATOM     27  C   UNL d   1      -1.216  -0.349   0.000  0.00  0.00     0.020 A 
ATOM     28  C   UNL d   1      -0.426  -0.091   0.000  0.00  0.00     0.092 A 
ENDBRANCH  20  23
ENDBRANCH   1  20
TORSDOF 6
