REMARK  3 active torsions:
REMARK  status: ('A' for Active; 'I' for Inactive)
REMARK    1  A    between atoms: C_2  and  C_1 
REMARK    2  A    between atoms: N_5  and  C_2 
REMARK    3  A    between atoms: C_9  and  N_5 
ROOT
ATOM      1  C   UNL d   1       1.482   3.350   0.000  0.00  0.00     0.139 C 
ATOM      2  S   UNL d   1       1.147   4.110   0.000  0.00  0.00    -0.057 SA
ENDROOT
BRANCH   1   3
ATOM      3  C   UNL d   1       0.994   2.681   0.000  0.00  0.00     0.074 A 
ATOM      4  C   UNL d   1       1.262   1.864   0.000  0.00  0.00     0.129 A 
ATOM      5  O   UNL d   1       0.564   1.362   0.000  0.00  0.00    -0.211 OA
ATOM      6  C   UNL d   1       2.041   1.615   0.000  0.00  0.00     0.029 C 
ATOM      7  N   UNL d   1      -0.129   1.864   0.000  0.00  0.00    -0.125 NA
ATOM      8  C   UNL d   1       0.134   2.681   0.000  0.00  0.00     0.132 A 
ENDBRANCH   1   3
BRANCH   1   9
ATOM      9  N   UNL d   1       2.299   3.264   0.000  0.00  0.00    -0.235 NA
BRANCH   9  10
ATOM     10  C   UNL d   1       2.782   3.929   0.000  0.00  0.00     0.082 A 
ATOM     11  C   UNL d   1       3.599   3.838   0.000  0.00  0.00     0.019 A 
ATOM     12  C   UNL d   1       4.077   4.502   0.000  0.00  0.00     0.002 A 
ATOM     13  C   UNL d   1       3.747   5.248   0.000  0.00  0.00     0.000 A 
ATOM     14  C   UNL d   1       2.925   5.334   0.000  0.00  0.00     0.002 A 
ATOM     15  C   UNL d   1       2.442   4.665   0.000  0.00  0.00     0.019 A 
ENDBRANCH   9  10
ENDBRANCH   1   9
TORSDOF 3
