REMARK  5 active torsions:
REMARK  status: ('A' for Active; 'I' for Inactive)
REMARK    1  A    between atoms: C_5  and  C_1 
REMARK    2  A    between atoms: C_9  and  N_2 
REMARK    3  A    between atoms: N_8  and  C_5 
REMARK    4  A    between atoms: N_6  and  C_10 
REMARK    5  A    between atoms: C_18  and  N_8 
ROOT
ATOM      1  C   UNL d   1       0.221   0.499   0.000  0.00  0.00     0.067 A 
ATOM      2  N   UNL d   1      -0.202  -0.807   0.000  0.00  0.00    -0.230 N 
ATOM      3  C   UNL d   1       0.490  -0.307   0.000  0.00  0.00     0.087 A 
ATOM      4  N   UNL d   1      -0.893  -0.307   0.000  0.00  0.00    -0.164 NA
ATOM      5  C   UNL d   1      -0.629   0.499   0.000  0.00  0.00     0.124 A 
ATOM      6  C   UNL d   1       1.267  -0.562   0.000  0.00  0.00     0.021 C 
ENDROOT
BRANCH   1   7
ATOM      7  C   UNL d   1       0.706   1.167   0.000  0.00  0.00     0.139 C 
ATOM      8  S   UNL d   1       0.374   1.911   0.000  0.00  0.00    -0.057 SA
BRANCH   7   9
ATOM      9  N   UNL d   1       1.517   1.080   0.000  0.00  0.00    -0.235 NA
BRANCH   9  10
ATOM     10  C   UNL d   1       1.992   1.738   0.000  0.00  0.00     0.082 A 
ATOM     11  C   UNL d   1       1.661   2.487   0.000  0.00  0.00     0.019 A 
ATOM     12  C   UNL d   1       2.136   3.135   0.000  0.00  0.00     0.002 A 
ATOM     13  C   UNL d   1       2.957   3.053   0.000  0.00  0.00     0.000 A 
ATOM     14  C   UNL d   1       3.289   2.314   0.000  0.00  0.00     0.002 A 
ATOM     15  C   UNL d   1       2.808   1.651   0.000  0.00  0.00     0.019 A 
ENDBRANCH   9  10
ENDBRANCH   7   9
ENDBRANCH   1   7
BRANCH   2  16
ATOM     16  C   UNL d   1      -0.211  -1.632   0.000  0.00  0.00     0.083 A 
ATOM     17  C   UNL d   1       0.509  -2.045   0.000  0.00  0.00     0.021 A 
ATOM     18  C   UNL d   1       0.509  -2.871   0.000  0.00  0.00     0.025 A 
ATOM     19  C   UNL d   1      -0.211  -3.284   0.000  0.00  0.00     0.127 A 
ATOM     20  C   UNL d   1      -0.931  -2.871   0.000  0.00  0.00     0.025 A 
ATOM     21  C   UNL d   1      -0.922  -2.045   0.000  0.00  0.00     0.021 A 
BRANCH  19  22
ATOM     22  N   UNL d   1      -0.211  -4.110   0.000  0.00  0.00    -0.114 N 
ATOM     23  O   UNL d   1      -0.922  -4.527   0.000  0.00  0.00    -0.532 OA
ATOM     24  O   UNL d   1       0.504  -4.527   0.000  0.00  0.00    -0.532 OA
ENDBRANCH  19  22
ENDBRANCH   2  16
TORSDOF 5
