REMARK  1 active torsions:
REMARK  status: ('A' for Active; 'I' for Inactive)
REMARK    1  A    between atoms: C_6  and  N_1 
ROOT
ATOM      1  N   UNL d   1       2.788  -0.947   0.000  0.00  0.00    -0.204 N 
ATOM      2  C   UNL d   1       2.303  -1.618   0.000  0.00  0.00     0.271 A 
ATOM      3  C   UNL d   1       2.303  -0.276   0.000  0.00  0.00     0.270 A 
ATOM      4  C   UNL d   1       1.518  -1.361   0.000  0.00  0.00     0.080 A 
ATOM      5  C   UNL d   1       1.518  -0.542   0.000  0.00  0.00     0.064 A 
ATOM      6  O   UNL d   1       2.640  -2.341   0.000  0.00  0.00    -0.266 OA
ATOM      7  O   UNL d   1       2.555   0.509   0.000  0.00  0.00    -0.266 OA
ATOM      8  N   UNL d   1       0.100  -1.370   0.000  0.00  0.00    -0.242 NA
ATOM      9  C   UNL d   1       0.814  -1.784   0.000  0.00  0.00     0.104 A 
ATOM     10  C   UNL d   1       0.804  -0.133   0.000  0.00  0.00     0.026 A 
ATOM     11  C   UNL d   1       0.090  -0.547   0.000  0.00  0.00     0.099 A 
ENDROOT
BRANCH   1  12
ATOM     12  C   UNL d   1       3.616  -0.942   0.000  0.00  0.00     0.326 C 
ATOM     13  O   UNL d   1       4.030  -1.656   0.000  0.00  0.00    -0.261 OA
ENDBRANCH   1  12
TORSDOF 1
