REMARK  5 active torsions:
REMARK  status: ('A' for Active; 'I' for Inactive)
REMARK    1  A    between atoms: C_7  and  N_1 
REMARK    2  A    between atoms: C_10  and  C_2 
REMARK    3  A    between atoms: C_11  and  C_5 
REMARK    4  A    between atoms: C_9  and  C_7 
REMARK    5  A    between atoms: O_16  and  C_9 
ROOT
ATOM      1  N   UNL d   1       4.168   0.143   0.000  0.00  0.00    -0.286 N 
ATOM      2  C   UNL d   1       4.168   0.968   0.000  0.00  0.00     0.148 A 
ATOM      3  N   UNL d   1       3.453   1.373   0.000  0.00  0.00    -0.228 NA
ATOM      4  C   UNL d   1       2.752   0.143   0.000  0.00  0.00     0.035 A 
ATOM      5  C   UNL d   1       3.453  -0.262   0.000  0.00  0.00     0.067 A 
ATOM      6  C   UNL d   1       2.752   0.968   0.000  0.00  0.00     0.084 A 
ATOM      7  C   UNL d   1       2.046  -0.262   0.000  0.00  0.00     0.014 A 
ATOM      8  C   UNL d   1       2.046   1.373   0.000  0.00  0.00     0.020 A 
ATOM      9  C   UNL d   1       1.331   0.143   0.000  0.00  0.00     0.058 A 
ATOM     10  C   UNL d   1       1.331   0.968   0.000  0.00  0.00     0.013 A 
ATOM     11 CL   UNL d   1       0.606  -0.272   0.000  0.00  0.00    -0.082 Cl
ENDROOT
BRANCH   2  12
ATOM     12  C   UNL d   1       4.607   1.717   0.000  0.00  0.00     0.035 A 
ATOM     13  C   UNL d   1       5.480   1.717   0.000  0.00  0.00     0.003 A 
ATOM     14  C   UNL d   1       5.914   2.470   0.000  0.00  0.00     0.000 A 
ATOM     15  C   UNL d   1       5.470   3.229   0.000  0.00  0.00     0.000 A 
ATOM     16  C   UNL d   1       4.597   3.219   0.000  0.00  0.00     0.000 A 
ATOM     17  C   UNL d   1       4.168   2.470   0.000  0.00  0.00     0.003 A 
ENDBRANCH   2  12
BRANCH   1  18
ATOM     18  C   UNL d   1       4.883  -0.262   0.000  0.00  0.00     0.150 C 
BRANCH  18  19
ATOM     19  C   UNL d   1       5.594   0.143   0.000  0.00  0.00     0.314 C 
ATOM     20  O   UNL d   1       5.594   0.968   0.000  0.00  0.00    -0.257 OA
BRANCH  19  21
ATOM     21  O   UNL d   1       6.300  -0.262   0.000  0.00  0.00    -0.295 OA
ATOM     22  C   UNL d   1       7.010   0.153   0.000  0.00  0.00     0.185 C 
ENDBRANCH  19  21
ENDBRANCH  18  19
ENDBRANCH   1  18
BRANCH   5  23
ATOM     23  C   UNL d   1       3.453  -1.087   0.000  0.00  0.00     0.016 A 
ATOM     24  C   UNL d   1       4.154  -1.493   0.000  0.00  0.00     0.001 A 
ATOM     25  C   UNL d   1       4.154  -2.318   0.000  0.00  0.00     0.000 A 
ATOM     26  C   UNL d   1       3.453  -2.723   0.000  0.00  0.00     0.000 A 
ATOM     27  C   UNL d   1       2.723  -2.318   0.000  0.00  0.00     0.000 A 
ATOM     28  C   UNL d   1       2.737  -1.493   0.000  0.00  0.00     0.001 A 
ENDBRANCH   5  23
TORSDOF 5
