REMARK  5 active torsions:
REMARK  status: ('A' for Active; 'I' for Inactive)
REMARK    1  A    between atoms: C_6  and  N_1 
REMARK    2  A    between atoms: C_7  and  C_2 
REMARK    3  A    between atoms: C_12  and  C_6 
REMARK    4  A    between atoms: C_11  and  C_7 
REMARK       I    between atoms: C_8  and  N_10 
REMARK    5  A    between atoms: N_10  and  C_11 
ROOT
ATOM      1  N   UNL d   1       0.462  -1.454   0.000  0.00  0.00    -0.289 N 
ATOM      2  C   UNL d   1       0.950  -0.779   0.000  0.00  0.00     0.149 A 
ATOM      3  N   UNL d   1       0.462  -0.111   0.000  0.00  0.00    -0.227 NA
ATOM      4  C   UNL d   1      -0.327  -1.200   0.000  0.00  0.00     0.083 A 
ATOM      5  C   UNL d   1      -0.327  -0.367   0.000  0.00  0.00     0.099 A 
ATOM      6  C   UNL d   1      -1.046  -1.612   0.000  0.00  0.00     0.019 A 
ATOM      7  C   UNL d   1      -1.046   0.046   0.000  0.00  0.00     0.021 A 
ATOM      8  C   UNL d   1      -1.757  -1.200   0.000  0.00  0.00     0.002 A 
ATOM      9  C   UNL d   1      -1.757  -0.375   0.000  0.00  0.00     0.002 A 
ENDROOT
BRANCH   1  10
ATOM     10  C   UNL d   1       0.716  -2.240   0.000  0.00  0.00     0.082 C 
BRANCH  10  11
ATOM     11  C   UNL d   1       0.166  -2.853   0.000  0.00  0.00     0.018 A 
ATOM     12  C   UNL d   1      -0.638  -2.677   0.000  0.00  0.00     0.002 A 
ATOM     13  C   UNL d   1      -1.198  -3.291   0.000  0.00  0.00     0.000 A 
ATOM     14  C   UNL d   1      -0.934  -4.066   0.000  0.00  0.00     0.000 A 
ATOM     15  C   UNL d   1      -0.126  -4.241   0.000  0.00  0.00     0.000 A 
ATOM     16  C   UNL d   1       0.424  -3.629   0.000  0.00  0.00     0.002 A 
ENDBRANCH  10  11
ENDBRANCH   1  10
BRANCH   2  17
ATOM     17  C   UNL d   1       1.662  -0.367   0.000  0.00  0.00     0.058 C 
BRANCH  17  18
ATOM     18  C   UNL d   1       2.374  -0.779   0.000  0.00  0.00     0.105 C 
BRANCH  18  19
ATOM     19  N   UNL d   1       3.086  -0.367   0.000  0.00  0.00    -0.206 NA
ATOM     20  C   UNL d   1       3.798  -0.773   0.000  0.00  0.00     0.280 C 
ATOM     21  O   UNL d   1       3.798  -1.598   0.000  0.00  0.00    -0.265 OA
ATOM     22  C   UNL d   1       4.513  -0.361   0.000  0.00  0.00     0.068 C 
ENDBRANCH  18  19
ENDBRANCH  17  18
ENDBRANCH   2  17
TORSDOF 5
