REMARK  2 active torsions:
REMARK  status: ('A' for Active; 'I' for Inactive)
REMARK    1  A    between atoms: C_9  and  N_1 
REMARK    2  A    between atoms: C_11  and  C_9 
ROOT
ATOM      1  N   UNL d   1       4.061  -0.363   0.000  0.00  0.00    -0.287 N 
ATOM      2  N   UNL d   1       4.057   0.991   0.000  0.00  0.00    -0.224 NA
ATOM      3  C   UNL d   1       3.260  -0.104   0.000  0.00  0.00     0.083 A 
ATOM      4  C   UNL d   1       4.550   0.315   0.000  0.00  0.00     0.183 A 
ATOM      5  C   UNL d   1       3.260   0.728   0.000  0.00  0.00     0.099 A 
ATOM      6  C   UNL d   1       2.545  -0.517   0.000  0.00  0.00     0.019 A 
ATOM      7  C   UNL d   1       2.545   1.139   0.000  0.00  0.00     0.021 A 
ATOM      8  C   UNL d   1       1.832  -0.104   0.000  0.00  0.00     0.002 A 
ATOM      9  C   UNL d   1       1.832   0.728   0.000  0.00  0.00     0.002 A 
ATOM     10  C   UNL d   1       1.114  -0.517   0.000  0.00  0.00     0.000 C 
ATOM     11  C   UNL d   1       1.117   1.136   0.000  0.00  0.00     0.000 C 
ENDROOT
BRANCH   1  12
ATOM     12  C   UNL d   1       4.473  -1.075   0.000  0.00  0.00     0.082 C 
BRANCH  12  13
ATOM     13  C   UNL d   1       4.061  -1.789   0.000  0.00  0.00     0.018 C 
ATOM     14  C   UNL d   1       3.235  -1.789   0.000  0.00  0.00     0.002 C 
ATOM     15  C   UNL d   1       4.473  -2.504   0.000  0.00  0.00     0.002 C 
ENDBRANCH  12  13
ENDBRANCH   1  12
TORSDOF 2
