REMARK  3 active torsions:
REMARK  status: ('A' for Active; 'I' for Inactive)
REMARK    1  A    between atoms: C_5  and  N_1 
REMARK    2  A    between atoms: C_8  and  C_2 
REMARK    3  A    between atoms: C_7  and  C_5 
ROOT
ATOM      1  N   UNL d   1      -2.676   2.172   0.000  0.00  0.00    -0.287 N 
ATOM      2  C   UNL d   1      -2.196   2.847   0.000  0.00  0.00     0.187 A 
ATOM      3  N   UNL d   1      -2.687   3.523   0.000  0.00  0.00    -0.224 NA
ATOM      4  C   UNL d   1      -3.473   2.421   0.000  0.00  0.00     0.083 A 
ATOM      5  C   UNL d   1      -3.474   3.251   0.000  0.00  0.00     0.099 A 
ATOM      6  C   UNL d   1      -4.198   2.008   0.000  0.00  0.00     0.019 A 
ATOM      7  C   UNL d   1      -4.198   3.672   0.000  0.00  0.00     0.021 A 
ATOM      8  C   UNL d   1      -4.912   2.421   0.000  0.00  0.00     0.002 A 
ATOM      9  C   UNL d   1      -4.912   3.251   0.000  0.00  0.00     0.002 A 
ENDROOT
BRANCH   1  10
ATOM     10  C   UNL d   1      -2.264   1.458   0.000  0.00  0.00     0.082 C 
BRANCH  10  11
ATOM     11  C   UNL d   1      -2.672   0.747   0.000  0.00  0.00     0.018 A 
ATOM     12  C   UNL d   1      -2.264   0.038   0.000  0.00  0.00     0.001 A 
ATOM     13  C   UNL d   1      -2.672  -0.675   0.000  0.00  0.00     0.000 A 
ATOM     14  C   UNL d   1      -1.439   0.046   0.000  0.00  0.00     0.000 C 
ATOM     15  C   UNL d   1      -3.497  -0.679   0.000  0.00  0.00     0.000 A 
ATOM     16  C   UNL d   1      -3.910   0.035   0.000  0.00  0.00     0.000 A 
ATOM     17  C   UNL d   1      -3.497   0.747   0.000  0.00  0.00     0.002 A 
ATOM     18  C   UNL d   1      -4.736   0.035   0.000  0.00  0.00     0.000 C 
ENDBRANCH  10  11
ENDBRANCH   1  10
BRANCH   2  19
ATOM     19  C   UNL d   1      -1.488   3.259   0.000  0.00  0.00     0.230 C 
ATOM     20  O   UNL d   1      -0.771   2.851   0.000  0.00  0.00    -0.283 OA
ATOM     21  C   UNL d   1      -1.488   4.080   0.000  0.00  0.00     0.049 C 
ENDBRANCH   2  19
TORSDOF 3
