REMARK  1 active torsions:
REMARK  status: ('A' for Active; 'I' for Inactive)
REMARK    1  A    between atoms: C_4  and  C_1 
ROOT
ATOM      1  C   UNL d   1       0.949  -0.778   0.000  0.00  0.00     0.163 A 
ATOM      2  N   UNL d   1       0.462  -0.112   0.000  0.00  0.00    -0.225 NA
ATOM      3  N   UNL d   1       0.462  -1.453   0.000  0.00  0.00    -0.225 NA
ATOM      4  C   UNL d   1      -0.325  -0.366   0.000  0.00  0.00     0.101 A 
ATOM      5  C   UNL d   1      -0.325  -1.199   0.000  0.00  0.00     0.101 A 
ATOM      6  C   UNL d   1      -1.046   0.047   0.000  0.00  0.00     0.021 A 
ATOM      7  C   UNL d   1      -1.046  -1.610   0.000  0.00  0.00     0.021 A 
ATOM      8  C   UNL d   1      -1.757  -1.199   0.000  0.00  0.00     0.002 A 
ATOM      9  C   UNL d   1      -1.757  -0.374   0.000  0.00  0.00     0.002 A 
ENDROOT
BRANCH   1  10
ATOM     10  C   UNL d   1       1.773  -0.778   0.000  0.00  0.00     0.046 A 
ATOM     11  C   UNL d   1       2.178  -0.067   0.000  0.00  0.00     0.061 A 
ATOM     12 CL   UNL d   1       1.753   0.647   0.000  0.00  0.00    -0.082 Cl
ATOM     13  C   UNL d   1       2.990  -0.067   0.000  0.00  0.00     0.011 A 
ATOM     14  C   UNL d   1       3.411  -0.778   0.000  0.00  0.00     0.001 A 
ATOM     15  C   UNL d   1       3.001  -1.490   0.000  0.00  0.00     0.000 A 
ATOM     16  C   UNL d   1       2.178  -1.490   0.000  0.00  0.00     0.004 A 
ENDBRANCH   1  10
TORSDOF 1
