REMARK  8 active torsions:
REMARK  status: ('A' for Active; 'I' for Inactive)
REMARK    1  A    between atoms: C_5  and  C_1 
REMARK       I    between atoms: C_2  and  N_4 
REMARK    2  A    between atoms: C_7  and  C_2 
REMARK    3  A    between atoms: N_4  and  C_3 
REMARK    4  A    between atoms: N_6  and  C_5 
REMARK    5  A    between atoms: C_13  and  C_5 
REMARK    6  A    between atoms: C_15  and  N_6 
REMARK    7  A    between atoms: C_9  and  C_15 
REMARK    8  A    between atoms: O_19  and  C_9 
ROOT
ATOM      1  C   UNL d   1      -0.818  -2.544   0.000  0.00  0.00     0.035 A 
ATOM      2  C   UNL d   1      -0.096  -2.963   0.000  0.00  0.00     0.086 A 
ATOM      3  C   UNL d   1      -1.529  -2.963   0.000  0.00  0.00     0.003 A 
ATOM      4  C   UNL d   1      -0.096  -3.795   0.000  0.00  0.00     0.019 A 
ATOM      5  C   UNL d   1      -1.529  -3.795   0.000  0.00  0.00     0.000 A 
ATOM      6  C   UNL d   1      -0.818  -4.204   0.000  0.00  0.00     0.002 A 
ATOM      7  C   UNL d   1      -2.246  -4.204   0.000  0.00  0.00     0.000 C 
ENDROOT
BRANCH   1   8
ATOM      8  C   UNL d   1      -0.818  -1.722   0.000  0.00  0.00     0.083 C 
BRANCH   8   9
ATOM      9  N   UNL d   1      -0.101  -1.303   0.000  0.00  0.00    -0.238 NA
BRANCH   9  10
ATOM     10  C   UNL d   1      -0.111  -0.481   0.000  0.00  0.00     0.167 C 
BRANCH  10  11
ATOM     11  C   UNL d   1       0.596  -0.058   0.000  0.00  0.00     0.315 C 
ATOM     12  O   UNL d   1       0.596   0.774   0.000  0.00  0.00    -0.257 OA
BRANCH  11  13
ATOM     13  O   UNL d   1       1.327  -0.462   0.000  0.00  0.00    -0.295 OA
ATOM     14  C   UNL d   1       2.049   0.029   0.000  0.00  0.00     0.185 C 
ENDBRANCH  11  13
ENDBRANCH  10  11
ENDBRANCH   9  10
ENDBRANCH   8   9
BRANCH   8  15
ATOM     15  C   UNL d   1      -1.529  -1.313   0.000  0.00  0.00     0.018 A 
ATOM     16  C   UNL d   1      -2.246  -1.722   0.000  0.00  0.00     0.002 A 
ATOM     17  C   UNL d   1      -2.953  -1.318   0.000  0.00  0.00     0.000 A 
ATOM     18  C   UNL d   1      -2.958  -0.481   0.000  0.00  0.00     0.000 A 
ATOM     19  C   UNL d   1      -2.246  -0.072   0.000  0.00  0.00     0.000 A 
ATOM     20  C   UNL d   1      -1.529  -0.481   0.000  0.00  0.00     0.002 A 
ENDBRANCH   8  15
ENDBRANCH   1   8
BRANCH   2  21
ATOM     21  N   UNL d   1       0.611  -2.544   0.000  0.00  0.00    -0.208 NA
ATOM     22  C   UNL d   1       1.342  -2.958   0.000  0.00  0.00     0.279 C 
ATOM     23  O   UNL d   1       1.342  -3.785   0.000  0.00  0.00    -0.265 OA
BRANCH  22  24
ATOM     24  C   UNL d   1       2.054  -2.539   0.000  0.00  0.00     0.059 A 
ATOM     25  C   UNL d   1       2.770  -2.948   0.000  0.00  0.00     0.016 A 
ATOM     26  C   UNL d   1       3.482  -2.530   0.000  0.00  0.00     0.058 A 
ATOM     27 CL   UNL d   1       4.189  -2.948   0.000  0.00  0.00    -0.082 Cl
ATOM     28  C   UNL d   1       3.477  -1.707   0.000  0.00  0.00     0.011 A 
ATOM     29  C   UNL d   1       2.761  -1.299   0.000  0.00  0.00     0.001 A 
ATOM     30  C   UNL d   1       2.049  -1.717   0.000  0.00  0.00     0.005 A 
ENDBRANCH  22  24
ENDBRANCH   2  21
TORSDOF 8
