REMARK  5 active torsions:
REMARK  status: ('A' for Active; 'I' for Inactive)
REMARK    1  A    between atoms: C_9  and  C_1 
REMARK    2  A    between atoms: S_2  and  N_8 
REMARK    3  A    between atoms: C_10  and  S_2 
REMARK    4  A    between atoms: C_14  and  C_3 
REMARK    5  A    between atoms: N_8  and  C_9 
ROOT
ATOM      1  C   UNL d   1       0.437   0.327   0.000  0.00  0.00     0.078 A 
ATOM      2  C   UNL d   1      -0.283  -0.091   0.000  0.00  0.00     0.008 A 
ATOM      3  C   UNL d   1       0.437   1.148   0.000  0.00  0.00     0.281 A 
ATOM      4  C   UNL d   1      -0.990   0.327   0.000  0.00  0.00     0.019 A 
ATOM      5  N   UNL d   1      -0.283   1.567   0.000  0.00  0.00    -0.208 NA
ATOM      6  C   UNL d   1      -0.990   1.148   0.000  0.00  0.00     0.085 A 
ATOM      7  C   UNL d   1      -1.701  -0.091   0.000  0.00  0.00     0.013 A 
ATOM      8  O   UNL d   1       1.168   1.567   0.000  0.00  0.00    -0.265 OA
ATOM      9  C   UNL d   1      -1.701   1.567   0.000  0.00  0.00     0.020 A 
ATOM     10  C   UNL d   1      -2.422   0.327   0.000  0.00  0.00     0.058 A 
ATOM     11  C   UNL d   1      -2.422   1.148   0.000  0.00  0.00     0.013 A 
ATOM     12 CL   UNL d   1      -3.152  -0.091   0.000  0.00  0.00    -0.082 Cl
ENDROOT
BRANCH   1  13
ATOM     13  C   UNL d   1       1.158  -0.091   0.000  0.00  0.00     0.117 C 
BRANCH  13  14
ATOM     14  N   UNL d   1       1.874   0.327   0.000  0.00  0.00    -0.157 NA
BRANCH  14  15
ATOM     15  S   UNL d   1       2.484  -0.245   0.000  0.00  0.00     0.285 S 
ATOM     16  O   UNL d   1       1.917  -0.851   0.000  0.00  0.00    -0.198 OA
ATOM     17  O   UNL d   1       3.047   0.370   0.000  0.00  0.00    -0.198 OA
BRANCH  15  18
ATOM     18  C   UNL d   1       3.090  -0.812   0.000  0.00  0.00     0.105 A 
ATOM     19  C   UNL d   1       3.883  -0.577   0.000  0.00  0.00     0.013 A 
ATOM     20  C   UNL d   1       4.488  -1.129   0.000  0.00  0.00     0.001 A 
ATOM     21  C   UNL d   1       4.301  -1.946   0.000  0.00  0.00     0.000 A 
ATOM     22  C   UNL d   1       3.508  -2.182   0.000  0.00  0.00     0.001 A 
ATOM     23  C   UNL d   1       4.901  -2.508   0.000  0.00  0.00     0.000 C 
ATOM     24  C   UNL d   1       2.902  -1.615   0.000  0.00  0.00     0.013 A 
ENDBRANCH  15  18
ENDBRANCH  14  15
ENDBRANCH  13  14
ENDBRANCH   1  13
BRANCH   2  25
ATOM     25  C   UNL d   1      -0.283  -0.913   0.000  0.00  0.00     0.000 A 
ATOM     26  C   UNL d   1       0.423  -1.331   0.000  0.00  0.00     0.000 A 
ATOM     27  C   UNL d   1       0.423  -2.153   0.000  0.00  0.00     0.000 A 
ATOM     28  C   UNL d   1      -0.283  -2.571   0.000  0.00  0.00     0.000 A 
ATOM     29  C   UNL d   1      -1.009  -2.153   0.000  0.00  0.00     0.000 A 
ATOM     30  C   UNL d   1      -1.004  -1.331   0.000  0.00  0.00     0.000 A 
ENDBRANCH   2  25
TORSDOF 5
