REMARK  3 active torsions:
REMARK  status: ('A' for Active; 'I' for Inactive)
REMARK    1  A    between atoms: N_6  and  S_1 
REMARK    2  A    between atoms: C_7  and  S_1 
REMARK    3  A    between atoms: C_10  and  N_6 
ROOT
ATOM      1  S   UNL d   1      -1.280  -1.858   0.000  0.00  0.00     0.327 S 
ATOM      2  O   UNL d   1      -1.991  -1.447   0.000  0.00  0.00    -0.186 OA
ATOM      3  O   UNL d   1      -1.280  -2.681   0.000  0.00  0.00    -0.186 OA
ENDROOT
BRANCH   1   4
ATOM      4  N   UNL d   1      -1.995  -2.261   0.000  0.00  0.00    -0.317 NA
BRANCH   4   5
ATOM      5  C   UNL d   1      -2.727  -2.673   0.000  0.00  0.00     0.145 A 
ATOM      6  C   UNL d   1      -2.727  -3.504   0.000  0.00  0.00     0.033 A 
ATOM      7  C   UNL d   1      -3.450  -3.908   0.000  0.00  0.00     0.003 A 
ATOM      8  C   UNL d   1      -3.463  -4.731   0.000  0.00  0.00     0.000 C 
ATOM      9  C   UNL d   1      -4.161  -3.483   0.000  0.00  0.00     0.000 A 
ATOM     10  C   UNL d   1      -4.149  -2.660   0.000  0.00  0.00     0.003 A 
ATOM     11  C   UNL d   1      -3.429  -2.257   0.000  0.00  0.00     0.033 A 
ATOM     12  C   UNL d   1      -4.851  -2.236   0.000  0.00  0.00     0.000 C 
ENDBRANCH   4   5
ENDBRANCH   1   4
BRANCH   1  13
ATOM     13  C   UNL d   1      -0.570  -1.447   0.000  0.00  0.00     0.118 A 
ATOM     14  C   UNL d   1       0.141  -1.858   0.000  0.00  0.00     0.035 A 
ATOM     15  C   UNL d   1       0.861  -1.447   0.000  0.00  0.00     0.105 A 
ATOM     16  N   UNL d   1       1.646  -1.700   0.000  0.00  0.00    -0.189 NA
ATOM     17  C   UNL d   1       0.861  -0.615   0.000  0.00  0.00     0.104 A 
ATOM     18  C   UNL d   1       2.137  -1.027   0.000  0.00  0.00     0.369 A 
ATOM     19  O   UNL d   1       2.960  -1.027   0.000  0.00  0.00    -0.242 OA
ATOM     20  N   UNL d   1       1.646  -0.362   0.000  0.00  0.00    -0.189 NA
ATOM     21  C   UNL d   1       0.141  -0.204   0.000  0.00  0.00     0.022 A 
ATOM     22  C   UNL d   1      -0.570  -0.624   0.000  0.00  0.00     0.016 A 
ENDBRANCH   1  13
TORSDOF 3
