REMARK  4 active torsions:
REMARK  status: ('A' for Active; 'I' for Inactive)
REMARK    1  A    between atoms: N_2  and  S_1 
REMARK    2  A    between atoms: C_5  and  S_1 
REMARK    3  A    between atoms: C_4  and  N_2 
REMARK    4  A    between atoms: C_7  and  C_3 
ROOT
ATOM      1  S   UNL d   1      -1.195  -2.618   0.000  0.00  0.00     0.285 S 
ATOM      2  O   UNL d   1      -1.643  -3.333   0.000  0.00  0.00    -0.198 OA
ATOM      3  O   UNL d   1      -0.747  -1.894   0.000  0.00  0.00    -0.198 OA
ENDROOT
BRANCH   1   4
ATOM      4  N   UNL d   1      -1.910  -2.170   0.000  0.00  0.00    -0.158 NA
BRANCH   4   5
ATOM      5  C   UNL d   1      -2.665  -2.547   0.000  0.00  0.00     0.094 A 
ATOM      6  C   UNL d   1      -2.704  -3.333   0.000  0.00  0.00     0.018 A 
ATOM      7  C   UNL d   1      -3.419  -3.749   0.000  0.00  0.00     0.002 A 
ATOM      8  C   UNL d   1      -2.004  -3.710   0.000  0.00  0.00     0.002 C 
ATOM      9  C   UNL d   1      -4.142  -3.301   0.000  0.00  0.00     0.000 A 
ATOM     10  C   UNL d   1      -4.056  -2.507   0.000  0.00  0.00     0.002 A 
ATOM     11  C   UNL d   1      -4.897  -3.616   0.000  0.00  0.00     0.000 C 
ATOM     12  C   UNL d   1      -3.341  -2.083   0.000  0.00  0.00     0.018 A 
ATOM     13  C   UNL d   1      -3.325  -1.281   0.000  0.00  0.00     0.002 C 
ENDBRANCH   4   5
ENDBRANCH   1   4
BRANCH   1  14
ATOM     14  C   UNL d   1      -0.472  -3.074   0.000  0.00  0.00     0.106 A 
ATOM     15  C   UNL d   1       0.244  -2.649   0.000  0.00  0.00     0.020 A 
ATOM     16  C   UNL d   1       0.951  -3.074   0.000  0.00  0.00     0.076 A 
ATOM     17  C   UNL d   1       0.951  -3.899   0.000  0.00  0.00     0.064 A 
ATOM     18  C   UNL d   1       0.244  -4.315   0.000  0.00  0.00     0.012 A 
ATOM     19 CL   UNL d   1       1.674  -4.315   0.000  0.00  0.00    -0.082 Cl
ATOM     20  C   UNL d   1      -0.472  -3.938   0.000  0.00  0.00     0.014 A 
BRANCH  16  21
ATOM     21  C   UNL d   1       1.674  -2.649   0.000  0.00  0.00     0.212 C 
ATOM     22  O   UNL d   1       2.334  -3.121   0.000  0.00  0.00    -0.644 OA
ATOM     23  O   UNL d   1       1.674  -1.792   0.000  0.00  0.00    -0.644 OA
ENDBRANCH  16  21
ENDBRANCH   1  14
TORSDOF 4
