REMARK  6 active torsions:
REMARK  status: ('A' for Active; 'I' for Inactive)
REMARK    1  A    between atoms: C_2  and  S_1 
REMARK    2  A    between atoms: N_3  and  S_1 
REMARK    3  A    between atoms: C_10  and  N_3 
REMARK    4  A    between atoms: C_16  and  C_11 
REMARK    5  A    between atoms: C_17  and  C_16 
REMARK    6  A    between atoms: C_18  and  C_17 
ROOT
ATOM      1  C   UNL d   1      -5.105   1.159   0.000  0.00  0.00     0.094 A 
ATOM      2  C   UNL d   1      -5.105  -0.475   0.000  0.00  0.00     0.000 A 
ATOM      3  C   UNL d   1      -4.389   0.747   0.000  0.00  0.00     0.020 A 
ATOM      4  C   UNL d   1      -5.814   0.747   0.000  0.00  0.00     0.020 A 
ATOM      5  C   UNL d   1      -5.814  -0.054   0.000  0.00  0.00     0.002 A 
ATOM      6  C   UNL d   1      -4.389  -0.054   0.000  0.00  0.00     0.002 A 
ENDROOT
BRANCH   1   7
ATOM      7  N   UNL d   1      -5.105   2.023   0.000  0.00  0.00    -0.158 NA
BRANCH   7   8
ATOM      8  S   UNL d   1      -4.389   2.428   0.000  0.00  0.00     0.291 S 
ATOM      9  O   UNL d   1      -4.848   3.144   0.000  0.00  0.00    -0.198 OA
ATOM     10  O   UNL d   1      -3.985   1.681   0.000  0.00  0.00    -0.198 OA
BRANCH   8  11
ATOM     11  C   UNL d   1      -3.681   2.841   0.000  0.00  0.00     0.135 A 
ATOM     12  S   UNL d   1      -2.895   2.615   0.000  0.00  0.00    -0.073 SA
ATOM     13  C   UNL d   1      -2.420   3.292   0.000  0.00  0.00     0.036 A 
ATOM     14  C   UNL d   1      -2.895   3.922   0.000  0.00  0.00     0.008 A 
ATOM     15  C   UNL d   1      -3.681   3.666   0.000  0.00  0.00     0.020 A 
ENDBRANCH   8  11
ENDBRANCH   7   8
ENDBRANCH   1   7
BRANCH   2  16
ATOM     16  C   UNL d   1      -5.105  -1.339   0.000  0.00  0.00     0.000 C 
BRANCH  16  17
ATOM     17  C   UNL d   1      -4.389  -1.751   0.000  0.00  0.00     0.000 C 
BRANCH  17  18
ATOM     18  C   UNL d   1      -4.389  -2.576   0.000  0.00  0.00     0.000 C 
ATOM     19  C   UNL d   1      -3.681  -2.989   0.000  0.00  0.00     0.000 C 
ENDBRANCH  17  18
ENDBRANCH  16  17
ENDBRANCH   2  16
TORSDOF 6
