REMARK  5 active torsions:
REMARK  status: ('A' for Active; 'I' for Inactive)
REMARK    1  A    between atoms: S_2  and  C_10 
REMARK    2  A    between atoms: N_7  and  S_2 
REMARK    3  A    between atoms: C_9  and  N_7 
REMARK    4  A    between atoms: O_23  and  C_16 
REMARK    5  A    between atoms: O_24  and  C_19 
ROOT
ATOM      1  S   UNL d   1       2.473  -0.752   0.000  0.00  0.00     0.285 S 
ATOM      2  O   UNL d   1       3.296  -0.752   0.000  0.00  0.00    -0.198 OA
ATOM      3  O   UNL d   1       1.650  -0.752   0.000  0.00  0.00    -0.198 OA
ENDROOT
BRANCH   1   4
ATOM      4  C   UNL d   1       2.473   0.071   0.000  0.00  0.00     0.107 A 
ATOM      5  C   UNL d   1       3.184   0.482   0.000  0.00  0.00     0.032 A 
ATOM      6  C   UNL d   1       3.184   1.309   0.000  0.00  0.00     0.085 A 
ATOM      7  N   UNL d   1       3.795   1.866   0.000  0.00  0.00    -0.256 N 
ATOM      8  C   UNL d   1       2.473   1.721   0.000  0.00  0.00     0.085 A 
ATOM      9  C   UNL d   1       3.467   2.606   0.000  0.00  0.00     0.339 A 
ATOM     10  C   UNL d   1       4.606   1.704   0.000  0.00  0.00     0.104 C 
ATOM     11  N   UNL d   1       2.648   2.527   0.000  0.00  0.00    -0.256 N 
ATOM     12  O   UNL d   1       3.891   3.325   0.000  0.00  0.00    -0.245 OA
ATOM     13  C   UNL d   1       2.099   3.151   0.000  0.00  0.00     0.104 C 
ATOM     14  C   UNL d   1       1.758   1.309   0.000  0.00  0.00     0.020 A 
ATOM     15  C   UNL d   1       1.758   0.482   0.000  0.00  0.00     0.015 A 
ENDBRANCH   1   4
BRANCH   1  16
ATOM     16  N   UNL d   1       2.473  -1.575   0.000  0.00  0.00    -0.156 NA
BRANCH  16  17
ATOM     17  C   UNL d   1       1.763  -1.987   0.000  0.00  0.00     0.118 A 
ATOM     18  C   UNL d   1       1.763  -2.810   0.000  0.00  0.00     0.046 A 
ATOM     19  C   UNL d   1       1.052  -3.222   0.000  0.00  0.00     0.096 A 
ATOM     20  C   UNL d   1       0.328  -2.810   0.000  0.00  0.00     0.026 A 
ATOM     21  C   UNL d   1       0.328  -1.987   0.000  0.00  0.00     0.028 A 
ATOM     22  C   UNL d   1       1.048  -1.575   0.000  0.00  0.00     0.113 A 
BRANCH  19  23
ATOM     23  O   UNL d   1       1.060  -4.045   0.000  0.00  0.00    -0.328 OA
ATOM     24  C   UNL d   1       0.353  -4.465   0.000  0.00  0.00     0.181 C 
ENDBRANCH  19  23
BRANCH  22  25
ATOM     25  O   UNL d   1       1.048  -0.752   0.000  0.00  0.00    -0.327 OA
ATOM     26  C   UNL d   1       0.337  -0.341   0.000  0.00  0.00     0.181 C 
ENDBRANCH  22  25
ENDBRANCH  16  17
ENDBRANCH   1  16
TORSDOF 5
