REMARK  5 active torsions:
REMARK  status: ('A' for Active; 'I' for Inactive)
REMARK    1  A    between atoms: S_2  and  C_12 
REMARK    2  A    between atoms: N_7  and  S_2 
REMARK    3  A    between atoms: C_5  and  N_7 
REMARK    4  A    between atoms: O_26  and  C_22 
REMARK    5  A    between atoms: C_27  and  O_26 
ROOT
ATOM      1  S   UNL d   1       4.335 -13.521   0.000  0.00  0.00     0.287 S 
ATOM      2  O   UNL d   1       5.055 -13.105   0.000  0.00  0.00    -0.198 OA
ATOM      3  O   UNL d   1       3.611 -13.945   0.000  0.00  0.00    -0.198 OA
ENDROOT
BRANCH   1   4
ATOM      4  C   UNL d   1       4.755 -14.245   0.000  0.00  0.00     0.107 A 
ATOM      5  C   UNL d   1       5.583 -14.245   0.000  0.00  0.00     0.032 A 
ATOM      6  C   UNL d   1       5.995 -14.956   0.000  0.00  0.00     0.085 A 
ATOM      7  N   UNL d   1       6.802 -15.131   0.000  0.00  0.00    -0.256 N 
ATOM      8  C   UNL d   1       5.583 -15.676   0.000  0.00  0.00     0.085 A 
ATOM      9  C   UNL d   1       6.881 -15.955   0.000  0.00  0.00     0.339 A 
ATOM     10  C   UNL d   1       7.418 -14.590   0.000  0.00  0.00     0.104 C 
ATOM     11  N   UNL d   1       6.141 -16.287   0.000  0.00  0.00    -0.256 N 
ATOM     12  O   UNL d   1       7.593 -16.379   0.000  0.00  0.00    -0.245 OA
ATOM     13  C   UNL d   1       5.970 -17.090   0.000  0.00  0.00     0.104 C 
ATOM     14  C   UNL d   1       4.755 -15.668   0.000  0.00  0.00     0.020 A 
ATOM     15  C   UNL d   1       4.343 -14.956   0.000  0.00  0.00     0.015 A 
ENDBRANCH   1   4
BRANCH   1  16
ATOM     16  N   UNL d   1       3.911 -12.805   0.000  0.00  0.00    -0.132 NA
BRANCH  16  17
ATOM     17  C   UNL d   1       3.087 -12.809   0.000  0.00  0.00     0.206 A 
ATOM     18  N   UNL d   1       2.675 -13.521   0.000  0.00  0.00    -0.220 NA
ATOM     19  C   UNL d   1       1.864 -13.346   0.000  0.00  0.00     0.090 A 
ATOM     20  C   UNL d   1       1.190 -13.820   0.000  0.00  0.00     0.022 A 
ATOM     21  C   UNL d   1       1.789 -12.522   0.000  0.00  0.00     0.052 A 
ATOM     22  C   UNL d   1       0.449 -13.479   0.000  0.00  0.00     0.026 A 
ATOM     23  C   UNL d   1       0.366 -12.660   0.000  0.00  0.00     0.101 A 
ATOM     24  C   UNL d   1       1.040 -12.181   0.000  0.00  0.00     0.033 A 
ATOM     25  S   UNL d   1       2.525 -12.185   0.000  0.00  0.00    -0.046 SA
BRANCH  23  26
ATOM     26  O   UNL d   1      -0.383 -12.310   0.000  0.00  0.00    -0.305 OA
BRANCH  26  27
ATOM     27  C   UNL d   1      -1.057 -12.797   0.000  0.00  0.00     0.123 C 
ATOM     28  C   UNL d   1      -1.810 -12.460   0.000  0.00  0.00     0.029 C 
ENDBRANCH  26  27
ENDBRANCH  23  26
ENDBRANCH  16  17
ENDBRANCH   1  16
TORSDOF 5
