REMARK  4 active torsions:
REMARK  status: ('A' for Active; 'I' for Inactive)
REMARK    1  A    between atoms: N_3  and  S_1 
REMARK    2  A    between atoms: C_4  and  S_1 
REMARK    3  A    between atoms: C_13  and  N_3 
REMARK    4  A    between atoms: C_16  and  N_3 
ROOT
ATOM      1  S   UNL d   1      -1.282  -1.860   0.000  0.00  0.00     0.271 S 
ATOM      2  O   UNL d   1      -1.282  -2.684   0.000  0.00  0.00    -0.200 OA
ATOM      3  O   UNL d   1      -1.993  -1.448   0.000  0.00  0.00    -0.200 OA
ENDROOT
BRANCH   1   4
ATOM      4  N   UNL d   1      -1.998  -2.264   0.000  0.00  0.00    -0.231 N 
BRANCH   4   5
ATOM      5  C   UNL d   1      -2.006  -3.100   0.000  0.00  0.00     0.075 A 
ATOM      6  C   UNL d   1      -2.722  -3.500   0.000  0.00  0.00     0.018 A 
ATOM      7  C   UNL d   1      -2.730  -4.324   0.000  0.00  0.00     0.002 A 
ATOM      8  C   UNL d   1      -2.022  -4.748   0.000  0.00  0.00     0.000 A 
ATOM      9  C   UNL d   1      -1.307  -4.349   0.000  0.00  0.00     0.002 A 
ATOM     10  C   UNL d   1      -1.294  -3.521   0.000  0.00  0.00     0.018 A 
ENDBRANCH   4   5
BRANCH   4  11
ATOM     11  C   UNL d   1      -2.705  -1.848   0.000  0.00  0.00     0.092 C 
ATOM     12  C   UNL d   1      -2.705  -1.024   0.000  0.00  0.00     0.021 C 
ENDBRANCH   4  11
ENDBRANCH   1   4
BRANCH   1  13
ATOM     13  C   UNL d   1      -0.570  -1.448   0.000  0.00  0.00     0.106 A 
ATOM     14  C   UNL d   1       0.141  -1.860   0.000  0.00  0.00     0.034 A 
ATOM     15  C   UNL d   1       0.861  -1.448   0.000  0.00  0.00     0.105 A 
ATOM     16  N   UNL d   1       1.648  -1.702   0.000  0.00  0.00    -0.189 NA
ATOM     17  C   UNL d   1       0.861  -0.616   0.000  0.00  0.00     0.104 A 
ATOM     18  C   UNL d   1       2.139  -1.028   0.000  0.00  0.00     0.369 A 
ATOM     19  O   UNL d   1       2.963  -1.028   0.000  0.00  0.00    -0.242 OA
ATOM     20  N   UNL d   1       1.648  -0.362   0.000  0.00  0.00    -0.189 NA
ATOM     21  C   UNL d   1       0.141  -0.204   0.000  0.00  0.00     0.021 A 
ATOM     22  C   UNL d   1      -0.570  -0.624   0.000  0.00  0.00     0.015 A 
ENDBRANCH   1  13
TORSDOF 4
