REMARK  5 active torsions:
REMARK  status: ('A' for Active; 'I' for Inactive)
REMARK    1  A    between atoms: C_6  and  S_1 
REMARK    2  A    between atoms: N_7  and  S_1 
REMARK    3  A    between atoms: C_15  and  N_7 
REMARK    4  A    between atoms: O_21  and  C_16 
REMARK    5  A    between atoms: C_22  and  O_21 
ROOT
ATOM      1  S   UNL d   1      -1.279  -1.857   0.000  0.00  0.00     0.327 S 
ATOM      2  O   UNL d   1      -1.279  -2.679   0.000  0.00  0.00    -0.186 OA
ATOM      3  O   UNL d   1      -1.990  -1.446   0.000  0.00  0.00    -0.186 OA
ENDROOT
BRANCH   1   4
ATOM      4  C   UNL d   1      -0.569  -1.446   0.000  0.00  0.00     0.118 A 
ATOM      5  C   UNL d   1       0.141  -1.857   0.000  0.00  0.00     0.035 A 
ATOM      6  C   UNL d   1       0.860  -1.446   0.000  0.00  0.00     0.105 A 
ATOM      7  N   UNL d   1       1.645  -1.699   0.000  0.00  0.00    -0.189 NA
ATOM      8  C   UNL d   1       0.860  -0.615   0.000  0.00  0.00     0.104 A 
ATOM      9  C   UNL d   1       2.135  -1.026   0.000  0.00  0.00     0.369 A 
ATOM     10  O   UNL d   1       2.958  -1.026   0.000  0.00  0.00    -0.242 OA
ATOM     11  N   UNL d   1       1.645  -0.361   0.000  0.00  0.00    -0.189 NA
ATOM     12  C   UNL d   1       0.141  -0.204   0.000  0.00  0.00     0.022 A 
ATOM     13  C   UNL d   1      -0.569  -0.623   0.000  0.00  0.00     0.016 A 
ENDBRANCH   1   4
BRANCH   1  14
ATOM     14  N   UNL d   1      -1.994  -2.260   0.000  0.00  0.00    -0.317 NA
BRANCH  14  15
ATOM     15  C   UNL d   1      -2.725  -2.671   0.000  0.00  0.00     0.146 A 
ATOM     16  C   UNL d   1      -2.725  -3.502   0.000  0.00  0.00     0.035 A 
ATOM     17  C   UNL d   1      -3.448  -3.905   0.000  0.00  0.00     0.027 A 
ATOM     18  C   UNL d   1      -4.158  -3.481   0.000  0.00  0.00     0.100 A 
ATOM     19  C   UNL d   1      -4.146  -2.659   0.000  0.00  0.00     0.027 A 
ATOM     20  C   UNL d   1      -3.427  -2.256   0.000  0.00  0.00     0.035 A 
BRANCH  18  21
ATOM     21  O   UNL d   1      -4.881  -3.880   0.000  0.00  0.00    -0.305 OA
BRANCH  21  22
ATOM     22  C   UNL d   1      -5.579  -3.465   0.000  0.00  0.00     0.123 C 
ATOM     23  C   UNL d   1      -6.298  -3.868   0.000  0.00  0.00     0.029 C 
ENDBRANCH  21  22
ENDBRANCH  18  21
ENDBRANCH  14  15
ENDBRANCH   1  14
TORSDOF 5
