REMARK  1 active torsions:
REMARK  status: ('A' for Active; 'I' for Inactive)
REMARK    1  A    between atoms: C_2  and  S_1 
ROOT
ATOM      1  C   UNL d   1      -0.046   1.087   0.000  0.00  0.00     0.107 A 
ATOM      2  C   UNL d   1      -0.446   1.808   0.000  0.00  0.00     0.014 A 
ATOM      3  C   UNL d   1      -0.458   0.383   0.000  0.00  0.00     0.014 A 
ATOM      4  C   UNL d   1      -1.683   1.096   0.000  0.00  0.00     0.058 A 
ATOM      5  C   UNL d   1      -1.288   0.388   0.000  0.00  0.00     0.012 A 
ATOM      6  C   UNL d   1      -1.271   1.821   0.000  0.00  0.00     0.012 A 
ATOM      7 CL   UNL d   1      -2.508   1.083   0.000  0.00  0.00    -0.082 Cl
ENDROOT
BRANCH   1   8
ATOM      8  S   UNL d   1       0.779   1.083   0.000  0.00  0.00     0.302 S 
ATOM      9  O   UNL d   1       0.767   0.258   0.000  0.00  0.00    -0.197 OA
ATOM     10  O   UNL d   1       0.792   1.896   0.000  0.00  0.00    -0.197 OA
ATOM     11  N   UNL d   1       1.600   1.071   0.000  0.00  0.00    -0.043 N 
ENDBRANCH   1   8
TORSDOF 1
