REMARK  3 active torsions:
REMARK  status: ('A' for Active; 'I' for Inactive)
REMARK    1  A    between atoms: N_3  and  S_1 
REMARK    2  A    between atoms: C_7  and  S_1 
REMARK    3  A    between atoms: C_10  and  N_3 
ROOT
ATOM      1  S   UNL d   1      -1.279  -1.857   0.000  0.00  0.00     0.327 S 
ATOM      2  O   UNL d   1      -1.990  -1.446   0.000  0.00  0.00    -0.186 OA
ATOM      3  O   UNL d   1      -1.279  -2.679   0.000  0.00  0.00    -0.186 OA
ENDROOT
BRANCH   1   4
ATOM      4  N   UNL d   1      -1.994  -2.260   0.000  0.00  0.00    -0.314 NA
BRANCH   4   5
ATOM      5  C   UNL d   1      -2.725  -2.671   0.000  0.00  0.00     0.184 A 
ATOM      6  C   UNL d   1      -2.725  -3.502   0.000  0.00  0.00     0.226 A 
ATOM      7  O   UNL d   1      -2.019  -3.917   0.000  0.00  0.00    -0.284 OA
ATOM      8  C   UNL d   1      -3.448  -3.905   0.000  0.00  0.00     0.045 A 
ATOM      9  C   UNL d   1      -4.158  -3.481   0.000  0.00  0.00     0.004 A 
ATOM     10  C   UNL d   1      -4.146  -2.659   0.000  0.00  0.00     0.003 A 
ATOM     11  C   UNL d   1      -3.427  -2.256   0.000  0.00  0.00     0.036 A 
ENDBRANCH   4   5
ENDBRANCH   1   4
BRANCH   1  12
ATOM     12  C   UNL d   1      -0.569  -1.446   0.000  0.00  0.00     0.118 A 
ATOM     13  C   UNL d   1       0.141  -1.857   0.000  0.00  0.00     0.035 A 
ATOM     14  C   UNL d   1       0.860  -1.446   0.000  0.00  0.00     0.105 A 
ATOM     15  N   UNL d   1       1.645  -1.699   0.000  0.00  0.00    -0.189 NA
ATOM     16  C   UNL d   1       0.860  -0.615   0.000  0.00  0.00     0.104 A 
ATOM     17  C   UNL d   1       2.135  -1.026   0.000  0.00  0.00     0.369 A 
ATOM     18  O   UNL d   1       2.958  -1.026   0.000  0.00  0.00    -0.242 OA
ATOM     19  N   UNL d   1       1.645  -0.361   0.000  0.00  0.00    -0.189 NA
ATOM     20  C   UNL d   1       0.141  -0.204   0.000  0.00  0.00     0.022 A 
ATOM     21  C   UNL d   1      -0.569  -0.623   0.000  0.00  0.00     0.016 A 
ENDBRANCH   1  12
TORSDOF 3
