REMARK  4 active torsions:
REMARK  status: ('A' for Active; 'I' for Inactive)
REMARK    1  A    between atoms: C_14  and  N_1 
REMARK    2  A    between atoms: S_12  and  C_2 
REMARK    3  A    between atoms: C_9  and  C_17 
REMARK    4  A    between atoms: C_17  and  S_12 
ROOT
ATOM      1  S   UNL d   1       3.800  -1.457   0.000  0.00  0.00    -0.045 SA
ENDROOT
BRANCH   1   2
ATOM      2  C   UNL d   1       4.620  -1.457   0.000  0.00  0.00     0.219 A 
ATOM      3  N   UNL d   1       5.094  -0.795   0.000  0.00  0.00    -0.186 N 
ATOM      4  N   UNL d   1       5.870  -1.040   0.000  0.00  0.00    -0.038 NA
ATOM      5  N   UNL d   1       5.880  -1.859   0.000  0.00  0.00    -0.022 NA
ATOM      6  N   UNL d   1       5.094  -2.118   0.000  0.00  0.00    -0.101 NA
BRANCH   3   7
ATOM      7  C   UNL d   1       4.835  -0.014   0.000  0.00  0.00     0.087 A 
ATOM      8  C   UNL d   1       4.030   0.153   0.000  0.00  0.00     0.019 A 
ATOM      9  C   UNL d   1       3.772   0.930   0.000  0.00  0.00     0.002 A 
ATOM     10  C   UNL d   1       4.318   1.548   0.000  0.00  0.00     0.000 A 
ATOM     11  C   UNL d   1       5.123   1.380   0.000  0.00  0.00     0.002 A 
ATOM     12  C   UNL d   1       5.382   0.599   0.000  0.00  0.00     0.019 A 
ENDBRANCH   3   7
ENDBRANCH   1   2
BRANCH   1  13
ATOM     13  C   UNL d   1       3.407  -2.156   0.000  0.00  0.00     0.059 C 
BRANCH  13  14
ATOM     14  C   UNL d   1       2.593  -2.156   0.000  0.00  0.00     0.107 A 
ATOM     15  N   UNL d   1       2.113  -1.471   0.000  0.00  0.00    -0.226 NA
ATOM     16  C   UNL d   1       1.299  -1.740   0.000  0.00  0.00     0.148 A 
ATOM     17  C   UNL d   1       0.575  -1.313   0.000  0.00  0.00     0.037 A 
ATOM     18  N   UNL d   1       1.299  -2.578   0.000  0.00  0.00    -0.289 N 
ATOM     19  C   UNL d   1      -0.144  -1.740   0.000  0.00  0.00     0.005 A 
ATOM     20  C   UNL d   1      -0.144  -2.578   0.000  0.00  0.00     0.018 A 
ATOM     21  C   UNL d   1       0.575  -2.995   0.000  0.00  0.00     0.066 A 
ATOM     22  C   UNL d   1       0.575  -3.824   0.000  0.00  0.00     0.019 C 
ATOM     23  C   UNL d   1       2.113  -2.837   0.000  0.00  0.00     0.101 A 
ENDBRANCH  13  14
ENDBRANCH   1  13
TORSDOF 4
