REMARK  2 active torsions:
REMARK  status: ('A' for Active; 'I' for Inactive)
REMARK    1  A    between atoms: N_2  and  S_1 
REMARK    2  A    between atoms: C_3  and  S_1 
ROOT
ATOM      1  S   UNL d   1       2.739 -22.501   0.000  0.00  0.00     0.272 S 
ATOM      2  O   UNL d   1       3.564 -22.501   0.000  0.00  0.00    -0.200 OA
ATOM      3  O   UNL d   1       1.915 -22.496   0.000  0.00  0.00    -0.200 OA
ENDROOT
BRANCH   1   4
ATOM      4  N   UNL d   1       2.739 -21.676   0.000  0.00  0.00    -0.225 N 
ATOM      5  C   UNL d   1       1.956 -21.223   0.000  0.00  0.00     0.118 A 
ATOM      6  C   UNL d   1       1.956 -20.316   0.000  0.00  0.00     0.142 A 
ATOM      7  O   UNL d   1       2.739 -19.862   0.000  0.00  0.00    -0.300 OA
ATOM      8  C   UNL d   1       3.523 -20.316   0.000  0.00  0.00     0.142 A 
ATOM      9  C   UNL d   1       3.523 -21.223   0.000  0.00  0.00     0.118 A 
ENDBRANCH   1   4
BRANCH   1  10
ATOM     10  C   UNL d   1       2.735 -23.325   0.000  0.00  0.00     0.104 A 
ATOM     11  C   UNL d   1       2.020 -23.733   0.000  0.00  0.00     0.015 A 
ATOM     12  C   UNL d   1       2.011 -24.562   0.000  0.00  0.00     0.028 A 
ATOM     13  C   UNL d   1       1.296 -24.974   0.000  0.00  0.00     0.002 C 
ATOM     14  C   UNL d   1       2.726 -24.974   0.000  0.00  0.00     0.140 A 
ATOM     15  C   UNL d   1       3.440 -24.562   0.000  0.00  0.00     0.030 A 
ATOM     16  F   UNL d   1       2.726 -25.799   0.000  0.00  0.00    -0.204 F 
ATOM     17  C   UNL d   1       3.449 -23.738   0.000  0.00  0.00     0.015 A 
ENDBRANCH   1  10
TORSDOF 2
