REMARK  5 active torsions:
REMARK  status: ('A' for Active; 'I' for Inactive)
REMARK    1  A    between atoms: C_2  and  S_1 
REMARK    2  A    between atoms: N_3  and  S_1 
REMARK    3  A    between atoms: C_4  and  N_3 
REMARK    4  A    between atoms: O_16  and  C_9 
REMARK    5  A    between atoms: O_17  and  C_14 
ROOT
ATOM      1  C   UNL d   1       1.404 -11.504   0.000  0.00  0.00     0.118 A 
ATOM      2  C   UNL d   1       1.404 -12.329   0.000  0.00  0.00     0.046 A 
ATOM      3  C   UNL d   1       0.692 -11.092   0.000  0.00  0.00     0.113 A 
ATOM      4  C   UNL d   1      -0.025 -11.504   0.000  0.00  0.00     0.028 A 
ATOM      5  C   UNL d   1       0.692 -12.742   0.000  0.00  0.00     0.096 A 
ATOM      6  C   UNL d   1      -0.025 -12.329   0.000  0.00  0.00     0.026 A 
ENDROOT
BRANCH   1   7
ATOM      7  N   UNL d   1       2.125 -11.079   0.000  0.00  0.00    -0.156 NA
BRANCH   7   8
ATOM      8  S   UNL d   1       2.117 -10.242   0.000  0.00  0.00     0.291 S 
ATOM      9  O   UNL d   1       2.942 -10.242   0.000  0.00  0.00    -0.198 OA
ATOM     10  O   UNL d   1       1.292 -10.250   0.000  0.00  0.00    -0.198 OA
BRANCH   8  11
ATOM     11  C   UNL d   1       2.112  -9.417   0.000  0.00  0.00     0.135 A 
ATOM     12  S   UNL d   1       1.479  -9.067   0.000  0.00  0.00    -0.073 SA
ATOM     13  C   UNL d   1       1.488  -8.342   0.000  0.00  0.00     0.036 A 
ATOM     14  C   UNL d   1       2.112  -7.979   0.000  0.00  0.00     0.008 A 
ATOM     15  C   UNL d   1       2.729  -9.054   0.000  0.00  0.00     0.020 A 
ENDBRANCH   8  11
ENDBRANCH   7   8
ENDBRANCH   1   7
BRANCH   3  16
ATOM     16  O   UNL d   1       0.692 -10.267   0.000  0.00  0.00    -0.327 OA
ATOM     17  C   UNL d   1       1.404  -9.854   0.000  0.00  0.00     0.181 C 
ENDBRANCH   3  16
BRANCH   5  18
ATOM     18  O   UNL d   1       0.692 -13.567   0.000  0.00  0.00    -0.328 OA
ATOM     19  C   UNL d   1       1.404 -13.979   0.000  0.00  0.00     0.181 C 
ENDBRANCH   5  18
TORSDOF 5
