REMARK  6 active torsions:
REMARK  status: ('A' for Active; 'I' for Inactive)
REMARK    1  A    between atoms: S_12  and  C_1 
REMARK    2  A    between atoms: C_2  and  S_11 
REMARK    3  A    between atoms: S_11  and  C_15 
REMARK    4  A    between atoms: C_16  and  S_12 
REMARK    5  A    between atoms: C_13  and  C_16 
REMARK    6  A    between atoms: C_15  and  C_13 
ROOT
ATOM      1  C   UNL d   1       3.015  -1.336   0.000  0.00  0.00     0.209 C 
ATOM      2  O   UNL d   1       3.015  -2.171   0.000  0.00  0.00    -0.285 OA
ENDROOT
BRANCH   1   3
ATOM      3  C   UNL d   1       3.738  -0.926   0.000  0.00  0.00     0.080 C 
BRANCH   3   4
ATOM      4  S   UNL d   1       4.457  -1.336   0.000  0.00  0.00    -0.058 SA
BRANCH   4   5
ATOM      5  C   UNL d   1       5.171  -0.926   0.000  0.00  0.00     0.141 A 
ATOM      6  N   UNL d   1       5.933  -1.259   0.000  0.00  0.00    -0.232 NA
ATOM      7  C   UNL d   1       6.483  -0.642   0.000  0.00  0.00     0.088 A 
ATOM      8  C   UNL d   1       7.308  -0.642   0.000  0.00  0.00     0.020 A 
ATOM      9  C   UNL d   1       6.068   0.082   0.000  0.00  0.00     0.049 A 
ATOM     10  C   UNL d   1       7.727   0.068   0.000  0.00  0.00     0.002 A 
ATOM     11  C   UNL d   1       7.312   0.791   0.000  0.00  0.00     0.001 A 
ATOM     12  C   UNL d   1       6.483   0.791   0.000  0.00  0.00     0.008 A 
ATOM     13  S   UNL d   1       5.258  -0.092   0.000  0.00  0.00    -0.060 SA
ENDBRANCH   4   5
ENDBRANCH   3   4
ENDBRANCH   1   3
BRANCH   1  14
ATOM     14  C   UNL d   1       2.301  -0.926   0.000  0.00  0.00     0.080 C 
BRANCH  14  15
ATOM     15  S   UNL d   1       1.582  -1.336   0.000  0.00  0.00    -0.058 SA
BRANCH  15  16
ATOM     16  C   UNL d   1       0.868  -0.926   0.000  0.00  0.00     0.141 A 
ATOM     17  N   UNL d   1       0.106  -1.264   0.000  0.00  0.00    -0.232 NA
ATOM     18  C   UNL d   1      -0.449  -0.642   0.000  0.00  0.00     0.088 A 
ATOM     19  C   UNL d   1      -1.268  -0.642   0.000  0.00  0.00     0.020 A 
ATOM     20  C   UNL d   1      -0.038   0.072   0.000  0.00  0.00     0.049 A 
ATOM     21  C   UNL d   1      -1.688   0.068   0.000  0.00  0.00     0.002 A 
ATOM     22  C   UNL d   1      -1.268   0.791   0.000  0.00  0.00     0.001 A 
ATOM     23  C   UNL d   1      -0.444   0.791   0.000  0.00  0.00     0.008 A 
ATOM     24  S   UNL d   1       0.781  -0.101   0.000  0.00  0.00    -0.060 SA
ENDBRANCH  15  16
ENDBRANCH  14  15
ENDBRANCH   1  14
TORSDOF 6
