REMARK  3 active torsions:
REMARK  status: ('A' for Active; 'I' for Inactive)
REMARK    1  A    between atoms: C_10  and  C_4 
REMARK    2  A    between atoms: S_9  and  C_10 
REMARK    3  A    between atoms: C_11  and  S_9 
ROOT
ATOM      1  C   UNL d   1       2.422  -0.178   0.000  0.00  0.00     0.056 C 
ENDROOT
BRANCH   1   2
ATOM      2  S   UNL d   1       2.822   0.521   0.000  0.00  0.00    -0.085 SA
BRANCH   2   3
ATOM      3  C   UNL d   1       3.647   0.521   0.000  0.00  0.00     0.030 A 
ATOM      4  C   UNL d   1       4.057  -0.193   0.000  0.00  0.00     0.007 A 
ATOM      5  C   UNL d   1       4.882  -0.178   0.000  0.00  0.00     0.012 A 
ATOM      6  C   UNL d   1       5.297   0.531   0.000  0.00  0.00     0.058 A 
ATOM      7  C   UNL d   1       4.877   1.240   0.000  0.00  0.00     0.012 A 
ATOM      8 CL   UNL d   1       6.126   0.531   0.000  0.00  0.00    -0.082 Cl
ATOM      9  C   UNL d   1       4.057   1.240   0.000  0.00  0.00     0.007 A 
ENDBRANCH   2   3
ENDBRANCH   1   2
BRANCH   1  10
ATOM     10  C   UNL d   1       1.611  -0.178   0.000  0.00  0.00     0.107 A 
ATOM     11  N   UNL d   1       1.119   0.506   0.000  0.00  0.00    -0.220 NA
ATOM     12  C   UNL d   1       0.309   0.246   0.000  0.00  0.00     0.180 A 
ATOM     13  N   UNL d   1       0.309  -0.608   0.000  0.00  0.00    -0.282 N 
ATOM     14  S   UNL d   1      -0.502   0.506   0.000  0.00  0.00    -0.048 SA
ATOM     15  C   UNL d   1       1.119  -0.859   0.000  0.00  0.00     0.102 A 
ATOM     16  C   UNL d   1      -0.502  -0.868   0.000  0.00  0.00     0.089 A 
ATOM     17  C   UNL d   1      -0.999  -0.178   0.000  0.00  0.00     0.057 A 
ENDBRANCH   1  10
TORSDOF 3
