REMARK  5 active torsions:
REMARK  status: ('A' for Active; 'I' for Inactive)
REMARK    1  A    between atoms: N_2  and  S_1 
REMARK    2  A    between atoms: C_14  and  S_1 
REMARK    3  A    between atoms: C_4  and  N_2 
REMARK    4  A    between atoms: S_6  and  C_3 
REMARK    5  A    between atoms: C_10  and  S_6 
ROOT
ATOM      1  C   UNL d   1       2.792   0.333   0.000  0.00  0.00     0.070 A 
ATOM      2  C   UNL d   1       1.367   0.333   0.000  0.00  0.00     0.095 A 
ATOM      3  C   UNL d   1       2.792  -0.492   0.000  0.00  0.00     0.202 A 
ATOM      4  C   UNL d   1       2.079   0.746   0.000  0.00  0.00     0.030 A 
ATOM      5  C   UNL d   1       2.079  -0.904   0.000  0.00  0.00     0.041 A 
ATOM      6  C   UNL d   1       1.367  -0.492   0.000  0.00  0.00     0.022 A 
ATOM      7  O   UNL d   1       3.517  -0.917   0.000  0.00  0.00    -0.286 OA
ATOM      8  C   UNL d   1       2.079  -1.738   0.000  0.00  0.00     0.003 A 
ATOM      9  C   UNL d   1       0.650  -0.904   0.000  0.00  0.00     0.002 A 
ATOM     10  C   UNL d   1       1.367  -2.150   0.000  0.00  0.00     0.000 A 
ATOM     11  C   UNL d   1       0.650  -1.738   0.000  0.00  0.00     0.000 A 
ENDROOT
BRANCH   1  12
ATOM     12  S   UNL d   1       3.504   0.746   0.000  0.00  0.00    -0.082 SA
BRANCH  12  13
ATOM     13  C   UNL d   1       4.217   1.163   0.000  0.00  0.00     0.047 A 
ATOM     14  C   UNL d   1       4.217   1.988   0.000  0.00  0.00     0.087 A 
ATOM     15  N   UNL d   1       3.500   2.396   0.000  0.00  0.00    -0.244 NA
ATOM     16  C   UNL d   1       4.929   2.400   0.000  0.00  0.00     0.018 A 
ATOM     17  C   UNL d   1       3.500   3.221   0.000  0.00  0.00     0.099 A 
ATOM     18  C   UNL d   1       4.217   3.633   0.000  0.00  0.00     0.021 A 
ATOM     19  C   UNL d   1       4.929   3.233   0.000  0.00  0.00     0.003 A 
ATOM     20  C   UNL d   1       5.642   1.996   0.000  0.00  0.00     0.002 A 
ATOM     21  C   UNL d   1       5.654   1.171   0.000  0.00  0.00     0.001 A 
ATOM     22  C   UNL d   1       4.938   0.750   0.000  0.00  0.00     0.008 A 
ENDBRANCH  12  13
ENDBRANCH   1  12
BRANCH   2  23
ATOM     23  N   UNL d   1       0.642   0.758   0.000  0.00  0.00    -0.158 NA
BRANCH  23  24
ATOM     24  S   UNL d   1      -0.075   0.346   0.000  0.00  0.00     0.285 S 
ATOM     25  O   UNL d   1       0.338  -0.379   0.000  0.00  0.00    -0.198 OA
ATOM     26  O   UNL d   1      -0.487   1.062   0.000  0.00  0.00    -0.198 OA
BRANCH  24  27
ATOM     27  C   UNL d   1      -0.796  -0.067   0.000  0.00  0.00     0.105 A 
ATOM     28  C   UNL d   1      -1.508   0.346   0.000  0.00  0.00     0.013 A 
ATOM     29  C   UNL d   1      -2.233  -0.062   0.000  0.00  0.00     0.001 A 
ATOM     30  C   UNL d   1      -2.237  -0.892   0.000  0.00  0.00     0.000 A 
ATOM     31  C   UNL d   1      -1.512  -1.304   0.000  0.00  0.00     0.001 A 
ATOM     32  C   UNL d   1      -0.800  -0.892   0.000  0.00  0.00     0.013 A 
ENDBRANCH  24  27
ENDBRANCH  23  24
ENDBRANCH   2  23
TORSDOF 5
