REMARK  3 active torsions:
REMARK  status: ('A' for Active; 'I' for Inactive)
REMARK    1  A    between atoms: C_13  and  N_2 
REMARK    2  A    between atoms: N_5  and  C_14 
REMARK    3  A    between atoms: C_14  and  C_13 
ROOT
ATOM      1  C   UNL d   1       4.786  -1.531   0.000  0.00  0.00     0.166 A 
ATOM      2  N   UNL d   1       4.091  -1.997   0.000  0.00  0.00    -0.288 N 
ATOM      3  C   UNL d   1       4.564  -0.732   0.000  0.00  0.00     0.117 A 
ATOM      4  N   UNL d   1       5.589  -1.754   0.000  0.00  0.00    -0.225 NA
ATOM      5  N   UNL d   1       5.144  -0.152   0.000  0.00  0.00    -0.241 NA
ATOM      6  C   UNL d   1       3.727  -0.702   0.000  0.00  0.00     0.037 A 
ATOM      7  C   UNL d   1       3.451  -1.477   0.000  0.00  0.00     0.067 A 
ATOM      8  C   UNL d   1       6.176  -1.174   0.000  0.00  0.00     0.101 A 
ATOM      9  C   UNL d   1       5.953  -0.374   0.000  0.00  0.00     0.099 A 
ATOM     10  C   UNL d   1       3.198  -0.044   0.000  0.00  0.00     0.003 A 
ATOM     11  C   UNL d   1       2.614  -1.612   0.000  0.00  0.00     0.018 A 
ATOM     12  C   UNL d   1       6.986  -1.390   0.000  0.00  0.00     0.021 A 
ATOM     13  C   UNL d   1       6.540   0.179   0.000  0.00  0.00     0.021 A 
ATOM     14  C   UNL d   1       2.392  -0.175   0.000  0.00  0.00     0.000 A 
ATOM     15  C   UNL d   1       2.108  -0.951   0.000  0.00  0.00     0.002 A 
ATOM     16  C   UNL d   1       7.346  -0.013   0.000  0.00  0.00     0.002 A 
ATOM     17  C   UNL d   1       7.569  -0.813   0.000  0.00  0.00     0.002 A 
ENDROOT
BRANCH   2  18
ATOM     18  C   UNL d   1       3.677  -2.715   0.000  0.00  0.00     0.101 C 
BRANCH  18  19
ATOM     19  C   UNL d   1       4.088  -3.430   0.000  0.00  0.00     0.104 C 
BRANCH  19  20
ATOM     20  N   UNL d   1       3.667  -4.139   0.000  0.00  0.00    -0.250 N 
ATOM     21  C   UNL d   1       3.828  -4.790   0.000  0.00  0.00     0.378 A 
ATOM     22  O   UNL d   1       3.258  -5.144   0.000  0.00  0.00    -0.258 OA
ATOM     23  O   UNL d   1       4.446  -5.043   0.000  0.00  0.00    -0.237 OA
ATOM     24  C   UNL d   1       2.746  -4.709   0.000  0.00  0.00     0.121 A 
ATOM     25  C   UNL d   1       2.999  -4.088   0.000  0.00  0.00     0.092 A 
ATOM     26  C   UNL d   1       2.078  -4.796   0.000  0.00  0.00     0.026 A 
ATOM     27  C   UNL d   1       2.594  -3.555   0.000  0.00  0.00     0.020 A 
ATOM     28  C   UNL d   1       1.926  -3.646   0.000  0.00  0.00     0.002 A 
ATOM     29  C   UNL d   1       1.673  -4.263   0.000  0.00  0.00     0.002 A 
ENDBRANCH  19  20
ENDBRANCH  18  19
ENDBRANCH   2  18
TORSDOF 3
