REMARK  4 active torsions:
REMARK  status: ('A' for Active; 'I' for Inactive)
REMARK    1  A    between atoms: C_5  and  C_1 
REMARK    2  A    between atoms: C_4  and  C_2 
REMARK    3  A    between atoms: C_12  and  C_4 
REMARK    4  A    between atoms: C_13  and  C_5 
ROOT
ATOM      1  C   UNL d   1       2.332   1.764   0.000  0.00  0.00     0.039 A 
ATOM      2  C   UNL d   1       3.828   1.764   0.000  0.00  0.00     0.039 A 
ATOM      3  C   UNL d   1       3.076   2.197   0.000  0.00  0.00     0.196 A 
ATOM      4  C   UNL d   1       2.332   0.897   0.000  0.00  0.00     0.003 A 
ATOM      5  C   UNL d   1       3.828   0.897   0.000  0.00  0.00     0.003 A 
ATOM      6  O   UNL d   1       3.076   3.023   0.000  0.00  0.00    -0.287 OA
ATOM      7  C   UNL d   1       3.076   0.464   0.000  0.00  0.00     0.000 A 
ATOM      8  C   UNL d   1       3.076  -0.362   0.000  0.00  0.00     0.000 C 
ENDROOT
BRANCH   1   9
ATOM      9  C   UNL d   1       1.612   2.171   0.000  0.00  0.00     0.005 C 
BRANCH   9  10
ATOM     10  C   UNL d   1       0.901   1.762   0.000  0.00  0.00     0.019 A 
ATOM     11  C   UNL d   1       0.906   0.939   0.000  0.00  0.00     0.099 A 
ATOM     12  N   UNL d   1       0.195   0.526   0.000  0.00  0.00    -0.242 NA
ATOM     13  C   UNL d   1      -0.526   0.934   0.000  0.00  0.00     0.099 A 
ATOM     14  C   UNL d   1      -0.528   1.762   0.000  0.00  0.00     0.021 A 
ATOM     15  C   UNL d   1       0.185   2.171   0.000  0.00  0.00     0.003 A 
ENDBRANCH   9  10
ENDBRANCH   1   9
BRANCH   2  16
ATOM     16  C   UNL d   1       4.545   2.171   0.000  0.00  0.00     0.005 C 
BRANCH  16  17
ATOM     17  C   UNL d   1       5.261   1.762   0.000  0.00  0.00     0.019 A 
ATOM     18  C   UNL d   1       5.261   0.939   0.000  0.00  0.00     0.099 A 
ATOM     19  N   UNL d   1       5.970   0.526   0.000  0.00  0.00    -0.242 NA
ATOM     20  C   UNL d   1       6.691   0.939   0.000  0.00  0.00     0.099 A 
ATOM     21  C   UNL d   1       6.686   1.764   0.000  0.00  0.00     0.021 A 
ATOM     22  C   UNL d   1       5.970   2.171   0.000  0.00  0.00     0.003 A 
ENDBRANCH  16  17
ENDBRANCH   2  16
TORSDOF 4
