REMARK  5 active torsions:
REMARK  status: ('A' for Active; 'I' for Inactive)
REMARK    1  A    between atoms: N_4  and  C_2 
REMARK    2  A    between atoms: C_11  and  C_3 
REMARK       I    between atoms: C_8  and  N_4 
REMARK    3  A    between atoms: C_14  and  C_5 
REMARK    4  A    between atoms: C_7  and  C_8 
REMARK    5  A    between atoms: C_17  and  C_14 
ROOT
ATOM      1  C   UNL d   1       1.986  -3.368   0.000  0.00  0.00     0.101 A 
ATOM      2  O   UNL d   1       2.069  -2.542   0.000  0.00  0.00    -0.302 OA
ATOM      3  C   UNL d   1       2.872  -2.369   0.000  0.00  0.00     0.158 A 
ATOM      4  C   UNL d   1       2.739  -3.697   0.000  0.00  0.00     0.027 A 
ATOM      5  C   UNL d   1       3.291  -3.085   0.000  0.00  0.00     0.032 A 
ENDROOT
BRANCH   3   6
ATOM      6  C   UNL d   1       3.206  -1.613   0.000  0.00  0.00     0.304 C 
ATOM      7  N   UNL d   1       4.026  -1.526   0.000  0.00  0.00    -0.180 NA
ATOM      8  O   UNL d   1       2.719  -0.953   0.000  0.00  0.00    -0.263 OA
BRANCH   7   9
ATOM      9  C   UNL d   1       4.361  -0.774   0.000  0.00  0.00     0.216 A 
ATOM     10  N   UNL d   1       5.164  -0.602   0.000  0.00  0.00    -0.200 NA
ATOM     11  C   UNL d   1       5.248   0.217   0.000  0.00  0.00     0.175 A 
ATOM     12  N   UNL d   1       4.494   0.552   0.000  0.00  0.00    -0.187 NA
ATOM     13  S   UNL d   1       3.943  -0.066   0.000  0.00  0.00     0.054 SA
BRANCH  11  14
ATOM     14  C   UNL d   1       5.960   0.635   0.000  0.00  0.00     0.082 C 
BRANCH  14  15
ATOM     15  C   UNL d   1       6.676   0.225   0.000  0.00  0.00     0.199 C 
ATOM     16  O   UNL d   1       6.680  -0.597   0.000  0.00  0.00    -0.286 OA
ATOM     17  C   UNL d   1       7.390   0.639   0.000  0.00  0.00     0.045 C 
ENDBRANCH  14  15
ENDBRANCH  11  14
ENDBRANCH   7   9
ENDBRANCH   3   6
BRANCH   1  18
ATOM     18  C   UNL d   1       1.272  -3.784   0.000  0.00  0.00     0.033 A 
ATOM     19  C   UNL d   1       0.556  -3.374   0.000  0.00  0.00     0.060 A 
ATOM     20 CL   UNL d   1       0.550  -2.548   0.000  0.00  0.00    -0.082 Cl
ATOM     21  C   UNL d   1      -0.156  -3.784   0.000  0.00  0.00     0.011 A 
ATOM     22  C   UNL d   1      -0.156  -4.615   0.000  0.00  0.00     0.001 A 
ATOM     23  C   UNL d   1       0.556  -5.025   0.000  0.00  0.00     0.000 A 
ATOM     24  C   UNL d   1       1.272  -4.615   0.000  0.00  0.00     0.003 A 
ENDBRANCH   1  18
TORSDOF 5
