REMARK  7 active torsions:
REMARK  status: ('A' for Active; 'I' for Inactive)
REMARK    1  A    between atoms: C_7  and  C_1 
REMARK    2  A    between atoms: N_5  and  C_2 
REMARK       I    between atoms: C_8  and  N_5 
REMARK    3  A    between atoms: N_9  and  C_7 
REMARK    4  A    between atoms: C_11  and  C_7 
REMARK    5  A    between atoms: C_15  and  C_8 
REMARK    6  A    between atoms: O_25  and  C_20 
REMARK    7  A    between atoms: C_29  and  O_25 
ROOT
ATOM      1  C   UNL d   1      -0.658  -0.673   0.000  0.00  0.00     0.066 C 
ENDROOT
BRANCH   1   2
ATOM      2  C   UNL d   1      -1.375  -1.074   0.000  0.00  0.00     0.041 A 
ATOM      3  C   UNL d   1      -1.546  -1.879   0.000  0.00  0.00     0.115 A 
ATOM      4  S   UNL d   1      -2.369  -1.958   0.000  0.00  0.00    -0.068 SA
ATOM      5  C   UNL d   1      -2.689  -1.201   0.000  0.00  0.00     0.031 A 
ATOM      6  C   UNL d   1      -2.077  -0.650   0.000  0.00  0.00     0.009 A 
ATOM      7  C   UNL d   1      -3.534  -1.054   0.000  0.00  0.00     0.007 C 
ATOM      8  C   UNL d   1      -2.132   0.194   0.000  0.00  0.00     0.001 C 
BRANCH   3   9
ATOM      9  N   UNL d   1      -1.018  -2.512   0.000  0.00  0.00    -0.201 NA
ATOM     10  C   UNL d   1      -1.290  -3.292   0.000  0.00  0.00     0.280 C 
ATOM     11  O   UNL d   1      -0.740  -3.926   0.000  0.00  0.00    -0.265 OA
BRANCH  10  12
ATOM     12  C   UNL d   1      -2.094  -3.436   0.000  0.00  0.00     0.058 A 
ATOM     13  C   UNL d   1      -2.369  -4.203   0.000  0.00  0.00     0.005 A 
ATOM     14  C   UNL d   1      -3.168  -4.349   0.000  0.00  0.00     0.000 A 
ATOM     15  C   UNL d   1      -3.697  -3.735   0.000  0.00  0.00     0.000 A 
ATOM     16  C   UNL d   1      -3.428  -2.957   0.000  0.00  0.00     0.000 A 
ATOM     17  C   UNL d   1      -2.623  -2.803   0.000  0.00  0.00     0.005 A 
ENDBRANCH  10  12
ENDBRANCH   3   9
ENDBRANCH   1   2
BRANCH   1  18
ATOM     18  N   UNL d   1       0.056  -1.095   0.000  0.00  0.00    -0.301 N 
ATOM     19  C   UNL d   1       0.056  -1.940   0.000  0.00  0.00     0.100 A 
ATOM     20  C   UNL d   1       0.796  -2.341   0.000  0.00  0.00     0.100 A 
ATOM     21  N   UNL d   1       1.517  -1.940   0.000  0.00  0.00    -0.299 N 
ATOM     22  C   UNL d   1       1.517  -1.095   0.000  0.00  0.00     0.100 A 
ATOM     23  C   UNL d   1       2.236  -2.363   0.000  0.00  0.00     0.100 C 
ATOM     24  C   UNL d   1       0.796  -0.691   0.000  0.00  0.00     0.100 A 
ENDBRANCH   1  18
BRANCH   1  25
ATOM     25  C   UNL d   1      -0.634   0.155   0.000  0.00  0.00     0.016 A 
ATOM     26  C   UNL d   1      -1.334   0.578   0.000  0.00  0.00     0.004 A 
ATOM     27  C   UNL d   1      -1.334   1.394   0.000  0.00  0.00     0.025 A 
ATOM     28  C   UNL d   1      -0.617   1.818   0.000  0.00  0.00     0.100 A 
ATOM     29  C   UNL d   1       0.122   1.394   0.000  0.00  0.00     0.025 A 
ATOM     30  C   UNL d   1       0.105   0.550   0.000  0.00  0.00     0.004 A 
BRANCH  28  31
ATOM     31  O   UNL d   1      -0.617   2.640   0.000  0.00  0.00    -0.305 OA
BRANCH  31  32
ATOM     32  C   UNL d   1      -1.334   3.063   0.000  0.00  0.00     0.123 C 
ATOM     33  C   UNL d   1      -1.334   3.890   0.000  0.00  0.00     0.029 C 
ENDBRANCH  31  32
ENDBRANCH  28  31
ENDBRANCH   1  25
TORSDOF 7
