REMARK  9 active torsions:
REMARK  status: ('A' for Active; 'I' for Inactive)
REMARK       I    between atoms: C_9  and  N_1 
REMARK       I    between atoms: N_2  and  C_10 
REMARK    1  A    between atoms: C_17  and  C_9 
REMARK    2  A    between atoms: C_10  and  C_18 
REMARK    3  A    between atoms: C_21  and  C_17 
REMARK    4  A    between atoms: C_18  and  C_22 
REMARK    5  A    between atoms: C_24  and  C_21 
REMARK    6  A    between atoms: C_22  and  C_23 
REMARK    7  A    between atoms: C_23  and  C_26 
REMARK    8  A    between atoms: C_25  and  C_24 
REMARK    9  A    between atoms: C_26  and  C_25 
ROOT
ATOM      1  C   UNL d   1       1.841  -1.658   0.000  0.00  0.00     0.000 C 
ENDROOT
BRANCH   1   2
ATOM      2  C   UNL d   1       2.559  -2.079   0.000  0.00  0.00     0.000 C 
BRANCH   2   3
ATOM      3  C   UNL d   1       3.273  -1.670   0.000  0.00  0.00     0.005 C 
BRANCH   3   4
ATOM      4  C   UNL d   1       3.987  -2.083   0.000  0.00  0.00     0.063 C 
BRANCH   4   5
ATOM      5  C   UNL d   1       4.701  -1.670   0.000  0.00  0.00     0.280 C 
ATOM      6  N   UNL d   1       5.415  -2.079   0.000  0.00  0.00    -0.195 N 
ATOM      7  N   UNL d   1       6.129  -1.670   0.000  0.00  0.00    -0.163 NA
ATOM      8  C   UNL d   1       5.591  -2.885   0.000  0.00  0.00     0.088 A 
ATOM      9  C   UNL d   1       6.743  -2.217   0.000  0.00  0.00     0.103 A 
ATOM     10  C   UNL d   1       7.553  -2.042   0.000  0.00  0.00     0.022 C 
ATOM     11  C   UNL d   1       6.405  -2.969   0.000  0.00  0.00     0.040 A 
ATOM     12  C   UNL d   1       5.040  -3.499   0.000  0.00  0.00     0.021 C 
ATOM     13  O   UNL d   1       4.710  -0.843   0.000  0.00  0.00    -0.265 OA
ENDBRANCH   4   5
ENDBRANCH   3   4
ENDBRANCH   2   3
ENDBRANCH   1   2
BRANCH   1  14
ATOM     14  C   UNL d   1       1.127  -2.071   0.000  0.00  0.00     0.000 C 
BRANCH  14  15
ATOM     15  C   UNL d   1       0.405  -1.658   0.000  0.00  0.00     0.000 C 
BRANCH  15  16
ATOM     16  C   UNL d   1      -0.309  -2.067   0.000  0.00  0.00     0.005 C 
BRANCH  16  17
ATOM     17  C   UNL d   1      -1.023  -1.653   0.000  0.00  0.00     0.063 C 
BRANCH  17  18
ATOM     18  C   UNL d   1      -1.737  -2.058   0.000  0.00  0.00     0.280 C 
ATOM     19  N   UNL d   1      -2.451  -1.645   0.000  0.00  0.00    -0.195 N 
ATOM     20  N   UNL d   1      -3.207  -1.971   0.000  0.00  0.00    -0.163 NA
ATOM     21  C   UNL d   1      -2.539  -0.818   0.000  0.00  0.00     0.088 A 
ATOM     22  C   UNL d   1      -3.758  -1.357   0.000  0.00  0.00     0.103 A 
ATOM     23  C   UNL d   1      -4.580  -1.445   0.000  0.00  0.00     0.022 C 
ATOM     24  C   UNL d   1      -3.340  -0.643   0.000  0.00  0.00     0.040 A 
ATOM     25  C   UNL d   1      -1.917  -0.267   0.000  0.00  0.00     0.021 C 
ATOM     26  O   UNL d   1      -1.741  -2.885   0.000  0.00  0.00    -0.265 OA
ENDBRANCH  17  18
ENDBRANCH  16  17
ENDBRANCH  15  16
ENDBRANCH  14  15
ENDBRANCH   1  14
TORSDOF 9
