REMARK  3 active torsions:
REMARK  status: ('A' for Active; 'I' for Inactive)
REMARK    1  A    between atoms: N_5  and  C_1 
REMARK    2  A    between atoms: N_8  and  N_5 
REMARK    3  A    between atoms: C_7  and  N_8 
ROOT
ATOM      1  C   UNL d   1       3.291  -2.597   0.000  0.00  0.00     0.162 A 
ATOM      2  C   UNL d   1       3.776  -3.262   0.000  0.00  0.00     0.299 A 
ATOM      3  N   UNL d   1       3.291  -3.931   0.000  0.00  0.00    -0.207 NA
ATOM      4  C   UNL d   1       2.501  -2.852   0.000  0.00  0.00     0.042 A 
ATOM      5  C   UNL d   1       2.501  -3.676   0.000  0.00  0.00     0.086 A 
ATOM      6  O   UNL d   1       4.604  -3.262   0.000  0.00  0.00    -0.263 OA
ATOM      7  C   UNL d   1       1.786  -2.434   0.000  0.00  0.00     0.003 A 
ATOM      8  C   UNL d   1       1.786  -4.082   0.000  0.00  0.00     0.019 A 
ATOM      9  C   UNL d   1       1.079  -2.852   0.000  0.00  0.00     0.000 A 
ATOM     10  C   UNL d   1       1.079  -3.680   0.000  0.00  0.00     0.002 A 
ENDROOT
BRANCH   1  11
ATOM     11  N   UNL d   1       3.542  -1.807   0.000  0.00  0.00    -0.141 NA
BRANCH  11  12
ATOM     12  N   UNL d   1       4.357  -1.635   0.000  0.00  0.00    -0.115 NA
BRANCH  12  13
ATOM     13  C   UNL d   1       4.609  -0.845   0.000  0.00  0.00     0.260 C 
ATOM     14  S   UNL d   1       4.056  -0.230   0.000  0.00  0.00    -0.034 SA
ATOM     15  N   UNL d   1       5.424  -0.677   0.000  0.00  0.00    -0.113 N 
ENDBRANCH  12  13
ENDBRANCH  11  12
ENDBRANCH   1  11
TORSDOF 3
