REMARK  7 active torsions:
REMARK  status: ('A' for Active; 'I' for Inactive)
REMARK    1  A    between atoms: C_6  and  N_1 
REMARK    2  A    between atoms: C_7  and  C_6 
REMARK    3  A    between atoms: O_10  and  C_7 
REMARK    4  A    between atoms: C_13  and  O_10 
REMARK    5  A    between atoms: C_14  and  C_13 
REMARK    6  A    between atoms: C_16  and  C_14 
REMARK    7  A    between atoms: C_15  and  C_16 
ROOT
ATOM      1  N   UNL d   1       5.745  -4.952   0.000  0.00  0.00    -0.246 N 
ATOM      2  C   UNL d   1       6.235  -5.625   0.000  0.00  0.00     0.378 A 
ATOM      3  O   UNL d   1       5.749  -6.298   0.000  0.00  0.00    -0.258 OA
ATOM      4  C   UNL d   1       4.960  -5.213   0.000  0.00  0.00     0.092 A 
ATOM      5  C   UNL d   1       4.964  -6.044   0.000  0.00  0.00     0.121 A 
ATOM      6  O   UNL d   1       7.058  -5.612   0.000  0.00  0.00    -0.237 OA
ATOM      7  C   UNL d   1       4.241  -4.802   0.000  0.00  0.00     0.020 A 
ATOM      8  C   UNL d   1       4.241  -6.456   0.000  0.00  0.00     0.026 A 
ATOM      9  C   UNL d   1       3.531  -5.222   0.000  0.00  0.00     0.002 A 
ATOM     10  C   UNL d   1       3.531  -6.044   0.000  0.00  0.00     0.002 A 
ENDROOT
BRANCH   1  11
ATOM     11  C   UNL d   1       5.957  -4.154   0.000  0.00  0.00     0.154 C 
BRANCH  11  12
ATOM     12  C   UNL d   1       6.746  -3.942   0.000  0.00  0.00     0.318 C 
ATOM     13  O   UNL d   1       7.332  -4.524   0.000  0.00  0.00    -0.257 OA
BRANCH  12  14
ATOM     14  O   UNL d   1       6.958  -3.145   0.000  0.00  0.00    -0.270 OA
BRANCH  14  15
ATOM     15  C   UNL d   1       7.669  -2.729   0.000  0.00  0.00     0.126 C 
BRANCH  15  16
ATOM     16  C   UNL d   1       7.669  -1.907   0.000  0.00  0.00     0.027 C 
BRANCH  16  17
ATOM     17  C   UNL d   1       8.379  -1.487   0.000  0.00  0.00     0.002 C 
BRANCH  17  18
ATOM     18  C   UNL d   1       8.375  -0.665   0.000  0.00  0.00     0.000 C 
ATOM     19  C   UNL d   1       9.085  -0.253   0.000  0.00  0.00     0.000 C 
ENDBRANCH  17  18
ENDBRANCH  16  17
ENDBRANCH  15  16
ENDBRANCH  14  15
ENDBRANCH  12  14
ENDBRANCH  11  12
ENDBRANCH   1  11
TORSDOF 7
