REMARK  6 active torsions:
REMARK  status: ('A' for Active; 'I' for Inactive)
REMARK    1  A    between atoms: C_4  and  C_1 
REMARK    2  A    between atoms: C_3  and  N_8 
REMARK       I    between atoms: N_8  and  C_4 
REMARK    3  A    between atoms: C_14  and  C_6 
REMARK    4  A    between atoms: C_15  and  C_10 
REMARK    5  A    between atoms: C_12  and  C_16 
REMARK    6  A    between atoms: C_19  and  C_15 
ROOT
ATOM      1  C   UNL d   1       4.149  -2.213   0.000  0.00  0.00     0.083 A 
ATOM      2  C   UNL d   1       3.601  -2.826   0.000  0.00  0.00     0.032 A 
ATOM      3  C   UNL d   1       2.846  -2.494   0.000  0.00  0.00     0.100 A 
ATOM      4  C   UNL d   1       3.734  -1.499   0.000  0.00  0.00     0.105 A 
ATOM      5  O   UNL d   1       2.928  -1.672   0.000  0.00  0.00    -0.307 OA
ATOM      6  C   UNL d   1       4.064  -0.744   0.000  0.00  0.00     0.027 C 
ENDROOT
BRANCH   1   7
ATOM      7  C   UNL d   1       4.970  -2.298   0.000  0.00  0.00     0.283 C 
ATOM      8  N   UNL d   1       5.453  -1.626   0.000  0.00  0.00    -0.181 NA
ATOM      9  O   UNL d   1       5.306  -3.046   0.000  0.00  0.00    -0.265 OA
BRANCH   8  10
ATOM     10  C   UNL d   1       6.273  -1.710   0.000  0.00  0.00     0.216 A 
ATOM     11  N   UNL d   1       6.683  -2.421   0.000  0.00  0.00    -0.200 NA
ATOM     12  C   UNL d   1       7.489  -2.247   0.000  0.00  0.00     0.175 A 
ATOM     13  N   UNL d   1       7.571  -1.425   0.000  0.00  0.00    -0.187 NA
ATOM     14  S   UNL d   1       6.816  -1.098   0.000  0.00  0.00     0.054 SA
BRANCH  12  15
ATOM     15  C   UNL d   1       8.103  -2.795   0.000  0.00  0.00     0.082 C 
BRANCH  15  16
ATOM     16  C   UNL d   1       7.932  -3.603   0.000  0.00  0.00     0.199 C 
ATOM     17  O   UNL d   1       8.551  -4.151   0.000  0.00  0.00    -0.286 OA
ATOM     18  C   UNL d   1       7.150  -3.861   0.000  0.00  0.00     0.045 C 
ENDBRANCH  15  16
ENDBRANCH  12  15
ENDBRANCH   8  10
ENDBRANCH   1   7
BRANCH   3  19
ATOM     19  C   UNL d   1       2.133  -2.913   0.000  0.00  0.00     0.023 A 
ATOM     20  C   UNL d   1       2.133  -3.741   0.000  0.00  0.00     0.006 A 
ATOM     21  C   UNL d   1       1.419  -4.151   0.000  0.00  0.00     0.071 A 
ATOM     22  C   UNL d   1       0.704  -3.741   0.000  0.00  0.00     0.004 A 
ATOM     23  C   UNL d   1       0.704  -2.913   0.000  0.00  0.00     0.000 A 
ATOM     24  C   UNL d   1       1.419  -2.501   0.000  0.00  0.00     0.002 A 
BRANCH  21  25
ATOM     25  C   UNL d   1       1.419  -4.977   0.000  0.00  0.00     0.419 C 
ATOM     26  F   UNL d   1       0.704  -5.391   0.000  0.00  0.00    -0.166 F 
ATOM     27  F   UNL d   1       2.133  -5.391   0.000  0.00  0.00    -0.166 F 
ATOM     28  F   UNL d   1       0.624  -4.765   0.000  0.00  0.00    -0.166 F 
ENDBRANCH  21  25
ENDBRANCH   3  19
TORSDOF 6
