REMARK  8 active torsions:
REMARK  status: ('A' for Active; 'I' for Inactive)
REMARK    1  A    between atoms: N_5  and  S_1 
REMARK    2  A    between atoms: C_8  and  S_1 
REMARK    3  A    between atoms: C_2  and  N_10 
REMARK    4  A    between atoms: C_9  and  N_5 
REMARK    5  A    between atoms: C_13  and  C_9 
REMARK    6  A    between atoms: N_10  and  O_14 
REMARK    7  A    between atoms: C_17  and  C_13 
REMARK    8  A    between atoms: O_14  and  C_17 
ROOT
ATOM      1  C   UNL d   1       2.458  -2.696   0.000  0.00  0.00     0.193 C 
ENDROOT
BRANCH   1   2
ATOM      2  O   UNL d   1       1.632  -2.683   0.000  0.00  0.00    -0.206 OA
BRANCH   2   3
ATOM      3  N   UNL d   1       1.206  -3.397   0.000  0.00  0.00    -0.126 NA
BRANCH   3   4
ATOM      4  C   UNL d   1       0.380  -3.385   0.000  0.00  0.00     0.108 A 
ATOM      5  C   UNL d   1      -0.121  -4.048   0.000  0.00  0.00     0.020 A 
ATOM      6  C   UNL d   1      -0.897  -3.773   0.000  0.00  0.00     0.002 A 
ATOM      7  C   UNL d   1       0.042  -4.849   0.000  0.00  0.00     0.002 A 
ATOM      8  C   UNL d   1      -1.523  -4.319   0.000  0.00  0.00     0.000 A 
ATOM      9  C   UNL d   1      -0.889  -2.955   0.000  0.00  0.00     0.002 A 
ATOM     10  C   UNL d   1      -1.361  -5.125   0.000  0.00  0.00     0.000 A 
ATOM     11  C   UNL d   1      -0.576  -5.396   0.000  0.00  0.00     0.000 A 
ATOM     12  C   UNL d   1      -0.100  -2.708   0.000  0.00  0.00     0.020 A 
ATOM     13  C   UNL d   1      -1.490  -2.396   0.000  0.00  0.00     0.000 A 
ATOM     14  C   UNL d   1       0.088  -1.907   0.000  0.00  0.00     0.002 A 
ATOM     15  C   UNL d   1      -0.522  -1.344   0.000  0.00  0.00     0.000 A 
ATOM     16  C   UNL d   1      -1.310  -1.594   0.000  0.00  0.00     0.000 A 
ENDBRANCH   3   4
ENDBRANCH   2   3
ENDBRANCH   1   2
BRANCH   1  17
ATOM     17  C   UNL d   1       2.880  -1.991   0.000  0.00  0.00     0.240 C 
ATOM     18  O   UNL d   1       2.479  -1.269   0.000  0.00  0.00    -0.283 OA
BRANCH  17  19
ATOM     19  C   UNL d   1       3.568  -1.527   0.000  0.00  0.00     0.136 C 
BRANCH  19  20
ATOM     20  N   UNL d   1       4.307  -1.903   0.000  0.00  0.00    -0.225 N 
ATOM     21  C   UNL d   1       4.520  -2.696   0.000  0.00  0.00     0.111 C 
BRANCH  20  22
ATOM     22  S   UNL d   1       5.000  -1.452   0.000  0.00  0.00     0.272 S 
ATOM     23  O   UNL d   1       4.411  -0.864   0.000  0.00  0.00    -0.200 OA
ATOM     24  O   UNL d   1       5.713  -1.865   0.000  0.00  0.00    -0.200 OA
BRANCH  22  25
ATOM     25  C   UNL d   1       5.797  -1.240   0.000  0.00  0.00     0.104 A 
ATOM     26  C   UNL d   1       6.010  -0.442   0.000  0.00  0.00     0.013 A 
ATOM     27  C   UNL d   1       6.803  -0.230   0.000  0.00  0.00     0.007 A 
ATOM     28  C   UNL d   1       7.391  -0.818   0.000  0.00  0.00     0.035 A 
ATOM     29  C   UNL d   1       7.124  -1.607   0.000  0.00  0.00     0.007 A 
ATOM     30 BR   UNL d   1       8.192  -0.630   0.000  0.00  0.00    -0.049 Br
ATOM     31  C   UNL d   1       6.339  -1.857   0.000  0.00  0.00     0.013 A 
ENDBRANCH  22  25
ENDBRANCH  20  22
ENDBRANCH  19  20
ENDBRANCH  17  19
ENDBRANCH   1  17
TORSDOF 8
