REMARK  9 active torsions:
REMARK  status: ('A' for Active; 'I' for Inactive)
REMARK    1  A    between atoms: N_5  and  S_1 
REMARK    2  A    between atoms: C_8  and  S_1 
REMARK    3  A    between atoms: C_2  and  N_10 
REMARK    4  A    between atoms: C_9  and  N_5 
REMARK    5  A    between atoms: C_25  and  N_5 
REMARK    6  A    between atoms: C_13  and  C_9 
REMARK    7  A    between atoms: N_10  and  O_14 
REMARK    8  A    between atoms: C_17  and  C_13 
REMARK    9  A    between atoms: O_14  and  C_17 
ROOT
ATOM      1  C   UNL d   1       3.247   0.046   0.000  0.00  0.00     0.240 C 
ATOM      2  O   UNL d   1       2.846   0.772   0.000  0.00  0.00    -0.283 OA
ENDROOT
BRANCH   1   3
ATOM      3  C   UNL d   1       3.936   0.509   0.000  0.00  0.00     0.136 C 
BRANCH   3   4
ATOM      4  N   UNL d   1       4.674   0.134   0.000  0.00  0.00    -0.226 N 
BRANCH   4   5
ATOM      5  S   UNL d   1       5.371   0.584   0.000  0.00  0.00     0.271 S 
ATOM      6  O   UNL d   1       4.787   1.173   0.000  0.00  0.00    -0.200 OA
ATOM      7  O   UNL d   1       6.085   0.171   0.000  0.00  0.00    -0.200 OA
BRANCH   5   8
ATOM      8  C   UNL d   1       6.164   0.797   0.000  0.00  0.00     0.104 A 
ATOM      9  C   UNL d   1       6.377   1.590   0.000  0.00  0.00     0.013 A 
ATOM     10  C   UNL d   1       7.178   1.803   0.000  0.00  0.00     0.001 A 
ATOM     11  C   UNL d   1       7.763   1.214   0.000  0.00  0.00     0.000 A 
ATOM     12  C   UNL d   1       7.491   0.434   0.000  0.00  0.00     0.001 A 
ATOM     13  C   UNL d   1       8.568   1.402   0.000  0.00  0.00     0.000 C 
ATOM     14  C   UNL d   1       6.711   0.184   0.000  0.00  0.00     0.013 A 
ENDBRANCH   5   8
ENDBRANCH   4   5
BRANCH   4  15
ATOM     15  C   UNL d   1       4.887  -0.664   0.000  0.00  0.00     0.092 C 
ATOM     16  C   UNL d   1       4.299  -1.244   0.000  0.00  0.00     0.021 C 
ENDBRANCH   4  15
ENDBRANCH   3   4
ENDBRANCH   1   3
BRANCH   1  17
ATOM     17  C   UNL d   1       2.830  -0.664   0.000  0.00  0.00     0.193 C 
BRANCH  17  18
ATOM     18  O   UNL d   1       2.003  -0.651   0.000  0.00  0.00    -0.206 OA
BRANCH  18  19
ATOM     19  N   UNL d   1       1.578  -1.356   0.000  0.00  0.00    -0.126 NA
BRANCH  19  20
ATOM     20  C   UNL d   1       0.751  -1.344   0.000  0.00  0.00     0.108 A 
ATOM     21  C   UNL d   1       0.255  -2.007   0.000  0.00  0.00     0.020 A 
ATOM     22  C   UNL d   1      -0.526  -1.740   0.000  0.00  0.00     0.002 A 
ATOM     23  C   UNL d   1       0.413  -2.817   0.000  0.00  0.00     0.002 A 
ATOM     24  C   UNL d   1      -1.148  -2.283   0.000  0.00  0.00     0.000 A 
ATOM     25  C   UNL d   1      -0.522  -0.918   0.000  0.00  0.00     0.002 A 
ATOM     26  C   UNL d   1      -0.989  -3.092   0.000  0.00  0.00     0.000 A 
ATOM     27  C   UNL d   1      -0.209  -3.360   0.000  0.00  0.00     0.000 A 
ATOM     28  C   UNL d   1       0.267  -0.676   0.000  0.00  0.00     0.020 A 
ATOM     29  C   UNL d   1      -1.123  -0.355   0.000  0.00  0.00     0.000 A 
ATOM     30  C   UNL d   1       0.455   0.125   0.000  0.00  0.00     0.002 A 
ATOM     31  C   UNL d   1      -0.146   0.689   0.000  0.00  0.00     0.000 A 
ATOM     32  C   UNL d   1      -0.939   0.447   0.000  0.00  0.00     0.000 A 
ENDBRANCH  19  20
ENDBRANCH  18  19
ENDBRANCH  17  18
ENDBRANCH   1  17
TORSDOF 9
