REMARK  6 active torsions:
REMARK  status: ('A' for Active; 'I' for Inactive)
REMARK    1  A    between atoms: C_6  and  N_1 
REMARK    2  A    between atoms: C_12  and  C_6 
REMARK    3  A    between atoms: O_18  and  C_7 
REMARK    4  A    between atoms: O_19  and  C_10 
REMARK    5  A    between atoms: C_21  and  O_19 
REMARK    6  A    between atoms: C_23  and  C_21 
ROOT
ATOM      1  C   UNL d   1       7.447  -3.021   0.000  0.00  0.00     0.117 A 
ATOM      2  C   UNL d   1       8.033  -3.607   0.000  0.00  0.00     0.122 A 
ATOM      3  C   UNL d   1       6.657  -3.241   0.000  0.00  0.00     0.028 A 
ATOM      4  C   UNL d   1       6.449  -4.031   0.000  0.00  0.00     0.020 A 
ATOM      5  C   UNL d   1       7.821  -4.401   0.000  0.00  0.00     0.027 A 
ATOM      6  C   UNL d   1       7.023  -4.613   0.000  0.00  0.00     0.004 A 
ENDROOT
BRANCH   4   7
ATOM      7  C   UNL d   1       5.652  -4.243   0.000  0.00  0.00     0.085 C 
BRANCH   7   8
ATOM      8  N   UNL d   1       5.440  -5.041   0.000  0.00  0.00    -0.251 N 
ATOM      9  C   UNL d   1       5.934  -5.714   0.000  0.00  0.00     0.378 A 
ATOM     10  O   UNL d   1       5.452  -6.387   0.000  0.00  0.00    -0.258 OA
ATOM     11  O   UNL d   1       6.757  -5.701   0.000  0.00  0.00    -0.237 OA
ATOM     12  C   UNL d   1       4.662  -6.134   0.000  0.00  0.00     0.121 A 
ATOM     13  C   UNL d   1       4.654  -5.303   0.000  0.00  0.00     0.092 A 
ATOM     14  C   UNL d   1       3.944  -6.545   0.000  0.00  0.00     0.026 A 
ATOM     15  C   UNL d   1       3.944  -4.891   0.000  0.00  0.00     0.020 A 
ATOM     16  C   UNL d   1       3.233  -5.311   0.000  0.00  0.00     0.002 A 
ATOM     17  C   UNL d   1       3.233  -6.134   0.000  0.00  0.00     0.002 A 
ATOM     18  C   UNL d   1       2.518  -4.891   0.000  0.00  0.00     0.000 C 
ENDBRANCH   7   8
ENDBRANCH   4   7
BRANCH   1  19
ATOM     19  O   UNL d   1       7.659  -2.232   0.000  0.00  0.00    -0.326 OA
ATOM     20  C   UNL d   1       6.944  -1.820   0.000  0.00  0.00     0.181 C 
ENDBRANCH   1  19
BRANCH   2  21
ATOM     21  O   UNL d   1       8.826  -3.391   0.000  0.00  0.00    -0.303 OA
BRANCH  21  22
ATOM     22  C   UNL d   1       9.404  -3.969   0.000  0.00  0.00     0.123 C 
BRANCH  22  23
ATOM     23  C   UNL d   1      10.202  -3.757   0.000  0.00  0.00     0.027 C 
ATOM     24  C   UNL d   1      10.784  -4.338   0.000  0.00  0.00     0.002 C 
ENDBRANCH  22  23
ENDBRANCH  21  22
ENDBRANCH   2  21
TORSDOF 6
