REMARK  6 active torsions:
REMARK  status: ('A' for Active; 'I' for Inactive)
REMARK    1  A    between atoms: C_5  and  N_1 
REMARK    2  A    between atoms: C_7  and  C_5 
REMARK    3  A    between atoms: O_14  and  C_10 
REMARK    4  A    between atoms: C_18  and  O_14 
REMARK    5  A    between atoms: C_19  and  C_18 
REMARK    6  A    between atoms: C_20  and  C_19 
ROOT
ATOM      1  C   UNL d   1       6.333  -4.734   0.000  0.00  0.00     0.087 C 
ENDROOT
BRANCH   1   2
ATOM      2  N   UNL d   1       6.121  -5.532   0.000  0.00  0.00    -0.251 N 
ATOM      3  C   UNL d   1       6.615  -6.196   0.000  0.00  0.00     0.378 A 
ATOM      4  O   UNL d   1       6.134  -6.869   0.000  0.00  0.00    -0.258 OA
ATOM      5  O   UNL d   1       7.438  -6.192   0.000  0.00  0.00    -0.237 OA
ATOM      6  C   UNL d   1       5.345  -6.620   0.000  0.00  0.00     0.121 A 
ATOM      7  C   UNL d   1       5.337  -5.793   0.000  0.00  0.00     0.092 A 
ATOM      8  C   UNL d   1       4.626  -7.031   0.000  0.00  0.00     0.026 A 
ATOM      9  C   UNL d   1       4.626  -5.382   0.000  0.00  0.00     0.020 A 
ATOM     10  C   UNL d   1       3.916  -5.793   0.000  0.00  0.00     0.002 A 
ATOM     11  C   UNL d   1       3.916  -6.620   0.000  0.00  0.00     0.002 A 
ATOM     12  C   UNL d   1       3.202  -5.382   0.000  0.00  0.00     0.000 C 
ENDBRANCH   1   2
BRANCH   1  13
ATOM     13  C   UNL d   1       7.130  -4.514   0.000  0.00  0.00     0.041 A 
ATOM     14  C   UNL d   1       7.338  -3.729   0.000  0.00  0.00     0.102 A 
ATOM     15  C   UNL d   1       8.127  -3.513   0.000  0.00  0.00     0.025 A 
ATOM     16  C   UNL d   1       8.713  -4.091   0.000  0.00  0.00     0.002 A 
ATOM     17  C   UNL d   1       8.501  -4.888   0.000  0.00  0.00     0.000 A 
ATOM     18  C   UNL d   1       7.704  -5.100   0.000  0.00  0.00     0.004 A 
BRANCH  14  19
ATOM     19  O   UNL d   1       6.753  -3.144   0.000  0.00  0.00    -0.305 OA
BRANCH  19  20
ATOM     20  C   UNL d   1       6.964  -2.346   0.000  0.00  0.00     0.123 C 
BRANCH  20  21
ATOM     21  C   UNL d   1       7.753  -2.130   0.000  0.00  0.00     0.027 C 
BRANCH  21  22
ATOM     22  C   UNL d   1       7.965  -1.333   0.000  0.00  0.00     0.002 C 
ATOM     23  C   UNL d   1       8.763  -1.113   0.000  0.00  0.00     0.000 C 
ENDBRANCH  21  22
ENDBRANCH  20  21
ENDBRANCH  19  20
ENDBRANCH  14  19
ENDBRANCH   1  13
TORSDOF 6
