REMARK  11 active torsions:
REMARK  status: ('A' for Active; 'I' for Inactive)
REMARK    1  A    between atoms: N_5  and  S_1 
REMARK    2  A    between atoms: C_8  and  S_1 
REMARK    3  A    between atoms: C_2  and  N_10 
REMARK    4  A    between atoms: C_9  and  N_5 
REMARK    5  A    between atoms: C_18  and  N_5 
REMARK    6  A    between atoms: C_13  and  C_9 
REMARK    7  A    between atoms: N_10  and  O_14 
REMARK    8  A    between atoms: C_17  and  C_13 
REMARK    9  A    between atoms: O_14  and  C_17 
REMARK   10  A    between atoms: C_27  and  C_18 
REMARK   11  A    between atoms: C_29  and  C_27 
ROOT
ATOM      1  C   UNL d   1       0.179  -0.675   0.000  0.00  0.00     0.240 C 
ATOM      2  O   UNL d   1      -0.221   0.046   0.000  0.00  0.00    -0.283 OA
ENDROOT
BRANCH   1   3
ATOM      3  C   UNL d   1       0.867  -0.212   0.000  0.00  0.00     0.136 C 
BRANCH   3   4
ATOM      4  N   UNL d   1       1.604  -0.588   0.000  0.00  0.00    -0.226 N 
BRANCH   4   5
ATOM      5  S   UNL d   1       2.300  -0.138   0.000  0.00  0.00     0.271 S 
ATOM      6  O   UNL d   1       1.717   0.450   0.000  0.00  0.00    -0.200 OA
ATOM      7  O   UNL d   1       3.013  -0.550   0.000  0.00  0.00    -0.200 OA
BRANCH   5   8
ATOM      8  C   UNL d   1       3.092   0.075   0.000  0.00  0.00     0.104 A 
ATOM      9  C   UNL d   1       3.304   0.871   0.000  0.00  0.00     0.013 A 
ATOM     10  C   UNL d   1       4.104   1.083   0.000  0.00  0.00     0.001 A 
ATOM     11  C   UNL d   1       4.688   0.496   0.000  0.00  0.00     0.000 A 
ATOM     12  C   UNL d   1       4.417  -0.292   0.000  0.00  0.00     0.001 A 
ATOM     13  C   UNL d   1       5.492   0.683   0.000  0.00  0.00     0.000 C 
ATOM     14  C   UNL d   1       3.638  -0.542   0.000  0.00  0.00     0.013 A 
ENDBRANCH   5   8
ENDBRANCH   4   5
BRANCH   4  15
ATOM     15  C   UNL d   1       1.817  -1.379   0.000  0.00  0.00     0.095 C 
BRANCH  15  16
ATOM     16  C   UNL d   1       1.229  -1.962   0.000  0.00  0.00     0.065 C 
BRANCH  16  17
ATOM     17  C   UNL d   1       1.442  -2.763   0.000  0.00  0.00     0.236 C 
ATOM     18  O   UNL d   1       0.863  -3.342   0.000  0.00  0.00    -0.283 OA
ENDBRANCH  16  17
ENDBRANCH  15  16
ENDBRANCH   4  15
ENDBRANCH   3   4
ENDBRANCH   1   3
BRANCH   1  19
ATOM     19  C   UNL d   1      -0.237  -1.379   0.000  0.00  0.00     0.193 C 
BRANCH  19  20
ATOM     20  O   UNL d   1      -1.062  -1.367   0.000  0.00  0.00    -0.206 OA
BRANCH  20  21
ATOM     21  N   UNL d   1      -1.488  -2.079   0.000  0.00  0.00    -0.126 NA
BRANCH  21  22
ATOM     22  C   UNL d   1      -2.312  -2.067   0.000  0.00  0.00     0.108 A 
ATOM     23  C   UNL d   1      -2.808  -2.729   0.000  0.00  0.00     0.020 A 
ATOM     24  C   UNL d   1      -3.587  -2.454   0.000  0.00  0.00     0.002 A 
ATOM     25  C   UNL d   1      -2.650  -3.529   0.000  0.00  0.00     0.002 A 
ATOM     26  C   UNL d   1      -4.208  -3.000   0.000  0.00  0.00     0.000 A 
ATOM     27  C   UNL d   1      -3.583  -1.637   0.000  0.00  0.00     0.002 A 
ATOM     28  C   UNL d   1      -4.050  -3.804   0.000  0.00  0.00     0.000 A 
ATOM     29  C   UNL d   1      -3.271  -4.067   0.000  0.00  0.00     0.000 A 
ATOM     30  C   UNL d   1      -2.796  -1.392   0.000  0.00  0.00     0.020 A 
ATOM     31  C   UNL d   1      -4.183  -1.079   0.000  0.00  0.00     0.000 A 
ATOM     32  C   UNL d   1      -2.608  -0.592   0.000  0.00  0.00     0.002 A 
ATOM     33  C   UNL d   1      -3.208  -0.029   0.000  0.00  0.00     0.000 A 
ATOM     34  C   UNL d   1      -4.000  -0.279   0.000  0.00  0.00     0.000 A 
ENDBRANCH  21  22
ENDBRANCH  20  21
ENDBRANCH  19  20
ENDBRANCH   1  19
TORSDOF 11
