REMARK  7 active torsions:
REMARK  status: ('A' for Active; 'I' for Inactive)
REMARK    1  A    between atoms: C_7  and  C_1 
REMARK    2  A    between atoms: N_5  and  C_2 
REMARK       I    between atoms: C_8  and  N_5 
REMARK    3  A    between atoms: N_9  and  C_7 
REMARK    4  A    between atoms: C_11  and  C_7 
REMARK    5  A    between atoms: C_16  and  C_8 
REMARK    6  A    between atoms: C_21  and  N_10 
REMARK    7  A    between atoms: C_27  and  C_21 
ROOT
ATOM      1  C   UNL d   1      -1.809  -0.735   0.000  0.00  0.00     0.042 A 
ATOM      2  C   UNL d   1      -1.809  -1.564   0.000  0.00  0.00     0.115 A 
ATOM      3  C   UNL d   1      -2.578  -0.484   0.000  0.00  0.00     0.009 A 
ATOM      4  S   UNL d   1      -2.578  -1.812   0.000  0.00  0.00    -0.068 SA
ATOM      5  C   UNL d   1      -3.060  -1.129   0.000  0.00  0.00     0.031 A 
ATOM      6  C   UNL d   1      -2.856   0.340   0.000  0.00  0.00     0.001 C 
ATOM      7  C   UNL d   1      -3.877  -1.129   0.000  0.00  0.00     0.007 C 
ENDROOT
BRANCH   1   8
ATOM      8  C   UNL d   1      -1.106  -0.312   0.000  0.00  0.00     0.084 C 
BRANCH   8   9
ATOM      9  N   UNL d   1      -0.402  -0.735   0.000  0.00  0.00    -0.300 N 
ATOM     10  C   UNL d   1      -0.402  -1.564   0.000  0.00  0.00     0.100 A 
ATOM     11  C   UNL d   1       0.317  -1.959   0.000  0.00  0.00     0.100 A 
ATOM     12  N   UNL d   1       1.021  -1.564   0.000  0.00  0.00    -0.297 N 
ATOM     13  C   UNL d   1       1.021  -0.735   0.000  0.00  0.00     0.100 A 
ATOM     14  C   UNL d   1       0.317  -0.312   0.000  0.00  0.00     0.100 A 
BRANCH  12  15
ATOM     15  C   UNL d   1       1.750  -1.985   0.000  0.00  0.00     0.126 C 
BRANCH  15  16
ATOM     16  C   UNL d   1       2.474  -1.585   0.000  0.00  0.00     0.253 C 
ATOM     17  O   UNL d   1       3.174  -2.005   0.000  0.00  0.00    -0.281 OA
ENDBRANCH  15  16
ENDBRANCH  12  15
ENDBRANCH   8   9
BRANCH   8  18
ATOM     18  C   UNL d   1      -1.106   0.516   0.000  0.00  0.00     0.098 A 
ATOM     19  N   UNL d   1      -0.402   0.920   0.000  0.00  0.00    -0.243 NA
ATOM     20  C   UNL d   1      -0.433   1.745   0.000  0.00  0.00     0.099 A 
ATOM     21  C   UNL d   1      -1.106   2.142   0.000  0.00  0.00     0.021 A 
ATOM     22  C   UNL d   1      -1.829   1.745   0.000  0.00  0.00     0.003 A 
ATOM     23  C   UNL d   1      -1.829   0.920   0.000  0.00  0.00     0.021 A 
ENDBRANCH   8  18
ENDBRANCH   1   8
BRANCH   2  24
ATOM     24  N   UNL d   1      -1.106  -1.959   0.000  0.00  0.00    -0.201 NA
ATOM     25  C   UNL d   1      -1.127  -2.788   0.000  0.00  0.00     0.280 C 
ATOM     26  O   UNL d   1      -0.433  -3.209   0.000  0.00  0.00    -0.265 OA
BRANCH  25  27
ATOM     27  C   UNL d   1      -1.853  -3.188   0.000  0.00  0.00     0.058 A 
ATOM     28  C   UNL d   1      -1.874  -4.008   0.000  0.00  0.00     0.005 A 
ATOM     29  C   UNL d   1      -2.606  -4.415   0.000  0.00  0.00     0.000 A 
ATOM     30  C   UNL d   1      -3.309  -3.988   0.000  0.00  0.00     0.000 A 
ATOM     31  C   UNL d   1      -3.278  -3.163   0.000  0.00  0.00     0.000 A 
ATOM     32  C   UNL d   1      -2.559  -2.757   0.000  0.00  0.00     0.005 A 
ENDBRANCH  25  27
ENDBRANCH   2  24
TORSDOF 7
