REMARK  4 active torsions:
REMARK  status: ('A' for Active; 'I' for Inactive)
REMARK    1  A    between atoms: C_6  and  N_1 
REMARK    2  A    between atoms: C_12  and  C_6 
REMARK    3  A    between atoms: O_18  and  C_7 
REMARK    4  A    between atoms: O_19  and  C_10 
ROOT
ATOM      1  N   UNL d   1       6.100  -5.639   0.000  0.00  0.00    -0.251 N 
ATOM      2  C   UNL d   1       6.595  -6.312   0.000  0.00  0.00     0.378 A 
ATOM      3  C   UNL d   1       5.315  -5.901   0.000  0.00  0.00     0.092 A 
ATOM      4  O   UNL d   1       6.113  -6.986   0.000  0.00  0.00    -0.258 OA
ATOM      5  C   UNL d   1       5.323  -6.732   0.000  0.00  0.00     0.121 A 
ATOM      6  O   UNL d   1       7.418  -6.300   0.000  0.00  0.00    -0.237 OA
ATOM      7  C   UNL d   1       4.604  -5.489   0.000  0.00  0.00     0.020 A 
ATOM      8  C   UNL d   1       4.604  -7.143   0.000  0.00  0.00     0.026 A 
ATOM      9  C   UNL d   1       3.894  -5.909   0.000  0.00  0.00     0.002 A 
ATOM     10  C   UNL d   1       3.894  -6.732   0.000  0.00  0.00     0.002 A 
ATOM     11  C   UNL d   1       3.179  -5.489   0.000  0.00  0.00     0.000 C 
ENDROOT
BRANCH   1  12
ATOM     12  C   UNL d   1       6.312  -4.841   0.000  0.00  0.00     0.085 C 
BRANCH  12  13
ATOM     13  C   UNL d   1       7.110  -4.629   0.000  0.00  0.00     0.020 A 
ATOM     14  C   UNL d   1       7.318  -3.840   0.000  0.00  0.00     0.028 A 
ATOM     15  C   UNL d   1       8.107  -3.619   0.000  0.00  0.00     0.116 A 
ATOM     16  C   UNL d   1       8.693  -4.205   0.000  0.00  0.00     0.116 A 
ATOM     17  C   UNL d   1       8.482  -4.999   0.000  0.00  0.00     0.026 A 
ATOM     18  C   UNL d   1       7.684  -5.211   0.000  0.00  0.00     0.004 A 
BRANCH  15  19
ATOM     19  O   UNL d   1       8.319  -2.830   0.000  0.00  0.00    -0.326 OA
ATOM     20  C   UNL d   1       7.605  -2.418   0.000  0.00  0.00     0.181 C 
ENDBRANCH  15  19
BRANCH  16  21
ATOM     21  O   UNL d   1       9.487  -3.989   0.000  0.00  0.00    -0.326 OA
ATOM     22  C   UNL d   1      10.065  -4.567   0.000  0.00  0.00     0.181 C 
ENDBRANCH  16  21
ENDBRANCH  12  13
ENDBRANCH   1  12
TORSDOF 4
