REMARK  5 active torsions:
REMARK  status: ('A' for Active; 'I' for Inactive)
REMARK    1  A    between atoms: C_5  and  N_1 
REMARK    2  A    between atoms: C_7  and  C_5 
REMARK    3  A    between atoms: O_14  and  C_10 
REMARK    4  A    between atoms: C_18  and  O_14 
REMARK    5  A    between atoms: C_19  and  C_18 
ROOT
ATOM      1  N   UNL d   1       6.127  -4.639   0.000  0.00  0.00    -0.251 N 
ATOM      2  C   UNL d   1       6.622  -5.304   0.000  0.00  0.00     0.378 A 
ATOM      3  C   UNL d   1       5.342  -4.901   0.000  0.00  0.00     0.092 A 
ATOM      4  O   UNL d   1       6.140  -5.978   0.000  0.00  0.00    -0.258 OA
ATOM      5  C   UNL d   1       5.350  -5.728   0.000  0.00  0.00     0.121 A 
ATOM      6  O   UNL d   1       7.445  -5.300   0.000  0.00  0.00    -0.237 OA
ATOM      7  C   UNL d   1       4.631  -4.489   0.000  0.00  0.00     0.020 A 
ATOM      8  C   UNL d   1       4.631  -6.140   0.000  0.00  0.00     0.026 A 
ATOM      9  C   UNL d   1       3.920  -4.901   0.000  0.00  0.00     0.002 A 
ATOM     10  C   UNL d   1       3.920  -5.728   0.000  0.00  0.00     0.002 A 
ATOM     11  C   UNL d   1       3.205  -4.489   0.000  0.00  0.00     0.000 C 
ENDROOT
BRANCH   1  12
ATOM     12  C   UNL d   1       6.339  -3.841   0.000  0.00  0.00     0.087 C 
BRANCH  12  13
ATOM     13  C   UNL d   1       7.138  -3.621   0.000  0.00  0.00     0.041 A 
ATOM     14  C   UNL d   1       7.345  -2.835   0.000  0.00  0.00     0.102 A 
ATOM     15  C   UNL d   1       8.135  -2.619   0.000  0.00  0.00     0.025 A 
ATOM     16  C   UNL d   1       8.721  -3.197   0.000  0.00  0.00     0.002 A 
ATOM     17  C   UNL d   1       8.509  -3.995   0.000  0.00  0.00     0.000 A 
ATOM     18  C   UNL d   1       7.711  -4.207   0.000  0.00  0.00     0.004 A 
BRANCH  14  19
ATOM     19  O   UNL d   1       6.759  -2.249   0.000  0.00  0.00    -0.305 OA
BRANCH  19  20
ATOM     20  C   UNL d   1       6.971  -1.451   0.000  0.00  0.00     0.123 C 
BRANCH  20  21
ATOM     21  C   UNL d   1       7.761  -1.235   0.000  0.00  0.00     0.027 C 
ATOM     22  C   UNL d   1       7.973  -0.436   0.000  0.00  0.00     0.002 C 
ENDBRANCH  20  21
ENDBRANCH  19  20
ENDBRANCH  14  19
ENDBRANCH  12  13
ENDBRANCH   1  12
TORSDOF 5
