REMARK  2 active torsions:
REMARK  status: ('A' for Active; 'I' for Inactive)
REMARK    1  A    between atoms: N_2  and  C_9 
REMARK    2  A    between atoms: C_11  and  C_7 
ROOT
ATOM      1  C   UNL d   1       3.393  -3.562   0.000  0.00  0.00     0.110 A 
ATOM      2  C   UNL d   1       4.664  -3.963   0.000  0.00  0.00     0.332 A 
ATOM      3  C   UNL d   1       3.401  -4.381   0.000  0.00  0.00     0.060 A 
ATOM      4  S   UNL d   1       4.179  -4.630   0.000  0.00  0.00    -0.018 SA
ATOM      5  O   UNL d   1       4.166  -3.300   0.000  0.00  0.00    -0.268 OA
ATOM      6  C   UNL d   1       2.678  -3.154   0.000  0.00  0.00     0.027 A 
ATOM      7  C   UNL d   1       2.674  -4.801   0.000  0.00  0.00     0.051 A 
ATOM      8  C   UNL d   1       1.962  -3.562   0.000  0.00  0.00     0.044 A 
ATOM      9  O   UNL d   1       5.490  -3.956   0.000  0.00  0.00    -0.251 OA
ATOM     10  C   UNL d   1       1.962  -4.381   0.000  0.00  0.00     0.196 A 
ATOM     11  O   UNL d   1       1.241  -4.801   0.000  0.00  0.00    -0.286 OA
ENDROOT
BRANCH   6  12
ATOM     12  C   UNL d   1       2.674  -2.329   0.000  0.00  0.00     0.002 A 
ATOM     13  C   UNL d   1       3.393  -1.917   0.000  0.00  0.00     0.002 A 
ATOM     14  C   UNL d   1       3.393  -1.087   0.000  0.00  0.00     0.024 A 
ATOM     15  C   UNL d   1       2.674  -0.675   0.000  0.00  0.00     0.127 A 
ATOM     16  C   UNL d   1       1.962  -1.087   0.000  0.00  0.00     0.024 A 
ATOM     17  C   UNL d   1       1.962  -1.917   0.000  0.00  0.00     0.002 A 
BRANCH  15  18
ATOM     18  N   UNL d   1       2.668   0.159   0.000  0.00  0.00    -0.114 N 
ATOM     19  O   UNL d   1       3.380   0.573   0.000  0.00  0.00    -0.532 OA
ATOM     20  O   UNL d   1       1.953   0.565   0.000  0.00  0.00    -0.532 OA
ENDBRANCH  15  18
ENDBRANCH   6  12
TORSDOF 2
