REMARK  2 active torsions:
REMARK  status: ('A' for Active; 'I' for Inactive)
REMARK    1  A    between atoms: C_12  and  C_4 
REMARK    2  A    between atoms: C_10  and  C_5 
ROOT
ATOM      1  N   UNL d   1       3.453  -1.514   0.000  0.00  0.00    -0.208 N 
ATOM      2  N   UNL d   1       2.643  -1.342   0.000  0.00  0.00    -0.163 NA
ATOM      3  C   UNL d   1       3.865  -0.798   0.000  0.00  0.00     0.088 A 
ATOM      4  C   UNL d   1       3.858  -2.226   0.000  0.00  0.00     0.183 A 
ATOM      5  C   UNL d   1       2.554  -0.524   0.000  0.00  0.00     0.109 A 
ATOM      6  O   UNL d   1       4.681  -2.226   0.000  0.00  0.00    -0.289 OA
ATOM      7  C   UNL d   1       3.306  -0.185   0.000  0.00  0.00     0.041 A 
ATOM      8  C   UNL d   1       4.681  -0.798   0.000  0.00  0.00     0.041 A 
ATOM      9  C   UNL d   1       5.096  -1.514   0.000  0.00  0.00     0.103 A 
ATOM     10  C   UNL d   1       5.096  -0.086   0.000  0.00  0.00     0.004 A 
ATOM     11  C   UNL d   1       5.918  -1.515   0.000  0.00  0.00     0.025 A 
ATOM     12  C   UNL d   1       5.918  -0.086   0.000  0.00  0.00     0.000 A 
ATOM     13  C   UNL d   1       6.331  -0.803   0.000  0.00  0.00     0.002 A 
ENDROOT
BRANCH   4  14
ATOM     14  C   UNL d   1       3.444  -2.940   0.000  0.00  0.00     0.041 A 
ATOM     15  C   UNL d   1       3.858  -3.642   0.000  0.00  0.00     0.004 A 
ATOM     16  C   UNL d   1       3.444  -4.364   0.000  0.00  0.00     0.000 A 
ATOM     17  C   UNL d   1       2.613  -4.364   0.000  0.00  0.00     0.000 A 
ATOM     18  C   UNL d   1       2.206  -3.642   0.000  0.00  0.00     0.000 A 
ATOM     19  C   UNL d   1       2.618  -2.930   0.000  0.00  0.00     0.004 A 
ENDBRANCH   4  14
BRANCH   5  20
ATOM     20  C   UNL d   1       1.842  -0.111   0.000  0.00  0.00     0.049 A 
ATOM     21  S   UNL d   1       1.090  -0.442   0.000  0.00  0.00    -0.085 SA
ATOM     22  C   UNL d   1       0.541   0.172   0.000  0.00  0.00     0.035 A 
ATOM     23  C   UNL d   1       0.955   0.889   0.000  0.00  0.00     0.007 A 
ATOM     24  C   UNL d   1       1.756   0.722   0.000  0.00  0.00     0.009 A 
ENDBRANCH   5  20
TORSDOF 2
