REMARK  8 active torsions:
REMARK  status: ('A' for Active; 'I' for Inactive)
REMARK    1  A    between atoms: C_7  and  N_1 
REMARK    2  A    between atoms: C_2  and  C_5 
REMARK    3  A    between atoms: C_9  and  C_4 
REMARK       I    between atoms: N_20  and  C_9 
REMARK    4  A    between atoms: O_25  and  C_14 
REMARK    5  A    between atoms: O_26  and  C_16 
REMARK    6  A    between atoms: C_27  and  N_20 
REMARK    7  A    between atoms: C_23  and  C_28 
REMARK    8  A    between atoms: C_28  and  C_27 
ROOT
ATOM      1  C   UNL d   1       1.247  -2.186   0.000  0.00  0.00     0.101 A 
ATOM      2  O   UNL d   1       1.999  -2.525   0.000  0.00  0.00    -0.302 OA
ATOM      3  C   UNL d   1       2.548  -1.913   0.000  0.00  0.00     0.158 A 
ATOM      4  C   UNL d   1       1.324  -1.373   0.000  0.00  0.00     0.027 A 
ATOM      5  C   UNL d   1       2.138  -1.196   0.000  0.00  0.00     0.032 A 
ENDROOT
BRANCH   3   6
ATOM      6  C   UNL d   1       3.369  -1.996   0.000  0.00  0.00     0.302 C 
ATOM      7  O   UNL d   1       3.710  -2.743   0.000  0.00  0.00    -0.263 OA
ATOM      8  N   UNL d   1       3.846  -1.324   0.000  0.00  0.00    -0.205 NA
BRANCH   8   9
ATOM      9  C   UNL d   1       4.670  -1.407   0.000  0.00  0.00     0.102 C 
BRANCH   9  10
ATOM     10  C   UNL d   1       5.154  -0.740   0.000  0.00  0.00     0.021 C 
BRANCH  10  11
ATOM     11  C   UNL d   1       5.968  -0.823   0.000  0.00  0.00     0.004 A 
ATOM     12  C   UNL d   1       6.443  -0.153   0.000  0.00  0.00     0.026 A 
ATOM     13  C   UNL d   1       7.264  -0.236   0.000  0.00  0.00     0.116 A 
ATOM     14  C   UNL d   1       7.605  -0.990   0.000  0.00  0.00     0.116 A 
ATOM     15  C   UNL d   1       7.125  -1.658   0.000  0.00  0.00     0.026 A 
ATOM     16  C   UNL d   1       6.304  -1.574   0.000  0.00  0.00     0.002 A 
BRANCH  13  17
ATOM     17  O   UNL d   1       7.749   0.436   0.000  0.00  0.00    -0.326 OA
ATOM     18  C   UNL d   1       7.403   1.187   0.000  0.00  0.00     0.181 C 
ENDBRANCH  13  17
BRANCH  14  19
ATOM     19  O   UNL d   1       8.423  -1.071   0.000  0.00  0.00    -0.326 OA
ATOM     20  C   UNL d   1       8.903  -0.403   0.000  0.00  0.00     0.181 C 
ENDBRANCH  14  19
ENDBRANCH  10  11
ENDBRANCH   9  10
ENDBRANCH   8   9
ENDBRANCH   3   6
BRANCH   1  21
ATOM     21  C   UNL d   1       0.538  -2.608   0.000  0.00  0.00     0.034 A 
ATOM     22  C   UNL d   1       0.538  -3.436   0.000  0.00  0.00     0.004 A 
ATOM     23  C   UNL d   1      -0.178  -3.846   0.000  0.00  0.00     0.024 A 
ATOM     24  C   UNL d   1      -0.888  -3.436   0.000  0.00  0.00     0.128 A 
ATOM     25  C   UNL d   1      -0.888  -2.608   0.000  0.00  0.00     0.035 A 
ATOM     26  C   UNL d   1      -0.178  -2.193   0.000  0.00  0.00     0.061 A 
ATOM     27 CL   UNL d   1      -0.185  -1.373   0.000  0.00  0.00    -0.082 Cl
BRANCH  24  28
ATOM     28  N   UNL d   1      -1.607  -3.846   0.000  0.00  0.00    -0.114 N 
ATOM     29  O   UNL d   1      -2.321  -3.436   0.000  0.00  0.00    -0.532 OA
ATOM     30  O   UNL d   1      -1.607  -4.670   0.000  0.00  0.00    -0.532 OA
ENDBRANCH  24  28
ENDBRANCH   1  21
TORSDOF 8
