REMARK  7 active torsions:
REMARK  status: ('A' for Active; 'I' for Inactive)
REMARK    1  A    between atoms: C_4  and  C_1 
REMARK    2  A    between atoms: C_6  and  C_3 
REMARK       I    between atoms: N_13  and  C_6 
REMARK    3  A    between atoms: O_18  and  C_8 
REMARK    4  A    between atoms: O_19  and  C_10 
REMARK    5  A    between atoms: C_20  and  N_13 
REMARK    6  A    between atoms: C_15  and  C_22 
REMARK    7  A    between atoms: C_22  and  C_20 
ROOT
ATOM      1  C   UNL d   1       4.020  -1.302   0.000  0.00  0.00     0.302 C 
ATOM      2  O   UNL d   1       4.362  -2.050   0.000  0.00  0.00    -0.263 OA
ATOM      3  N   UNL d   1       4.500  -0.637   0.000  0.00  0.00    -0.205 NA
ENDROOT
BRANCH   1   4
ATOM      4  C   UNL d   1       3.199  -1.223   0.000  0.00  0.00     0.158 A 
ATOM      5  O   UNL d   1       2.651  -1.836   0.000  0.00  0.00    -0.302 OA
ATOM      6  C   UNL d   1       1.897  -1.502   0.000  0.00  0.00     0.101 A 
ATOM      7  C   UNL d   1       1.977  -0.676   0.000  0.00  0.00     0.027 A 
ATOM      8  C   UNL d   1       2.789  -0.504   0.000  0.00  0.00     0.032 A 
BRANCH   6   9
ATOM      9  C   UNL d   1       1.190  -1.915   0.000  0.00  0.00     0.033 A 
ATOM     10  C   UNL d   1       0.472  -1.502   0.000  0.00  0.00     0.060 A 
ATOM     11 CL   UNL d   1       0.466  -0.676   0.000  0.00  0.00    -0.082 Cl
ATOM     12  C   UNL d   1      -0.238  -1.921   0.000  0.00  0.00     0.011 A 
ATOM     13  C   UNL d   1      -0.238  -2.746   0.000  0.00  0.00     0.001 A 
ATOM     14  C   UNL d   1       0.472  -3.156   0.000  0.00  0.00     0.000 A 
ATOM     15  C   UNL d   1       1.190  -2.746   0.000  0.00  0.00     0.003 A 
ENDBRANCH   6   9
ENDBRANCH   1   4
BRANCH   3  16
ATOM     16  C   UNL d   1       5.323  -0.714   0.000  0.00  0.00     0.102 C 
BRANCH  16  17
ATOM     17  C   UNL d   1       5.798  -0.054   0.000  0.00  0.00     0.021 C 
BRANCH  17  18
ATOM     18  C   UNL d   1       5.456   0.697   0.000  0.00  0.00     0.004 A 
ATOM     19  C   UNL d   1       5.936   1.372   0.000  0.00  0.00     0.026 A 
ATOM     20  C   UNL d   1       5.599   2.116   0.000  0.00  0.00     0.116 A 
ATOM     21  C   UNL d   1       4.772   2.192   0.000  0.00  0.00     0.116 A 
ATOM     22  C   UNL d   1       4.295   1.520   0.000  0.00  0.00     0.026 A 
ATOM     23  C   UNL d   1       4.637   0.773   0.000  0.00  0.00     0.002 A 
BRANCH  20  24
ATOM     24  O   UNL d   1       6.082   2.784   0.000  0.00  0.00    -0.326 OA
ATOM     25  C   UNL d   1       5.735   3.541   0.000  0.00  0.00     0.181 C 
ENDBRANCH  20  24
BRANCH  21  26
ATOM     26  O   UNL d   1       4.433   2.955   0.000  0.00  0.00    -0.326 OA
ATOM     27  C   UNL d   1       3.613   3.022   0.000  0.00  0.00     0.181 C 
ENDBRANCH  21  26
ENDBRANCH  17  18
ENDBRANCH  16  17
ENDBRANCH   3  16
TORSDOF 7
