REMARK  6 active torsions:
REMARK  status: ('A' for Active; 'I' for Inactive)
REMARK    1  A    between atoms: C_7  and  C_1 
REMARK    2  A    between atoms: C_6  and  C_2 
REMARK       I    between atoms: N_9  and  C_6 
REMARK    3  A    between atoms: O_16  and  C_7 
REMARK       I    between atoms: C_8  and  N_10 
REMARK    4  A    between atoms: C_14  and  C_8 
REMARK    5  A    between atoms: N_10  and  N_9 
REMARK    6  A    between atoms: C_20  and  O_16 
ROOT
ATOM      1  C   UNL d   1       4.931  -6.564   0.000  0.00  0.00     0.083 A 
ATOM      2  C   UNL d   1       6.002  -7.350   0.000  0.00  0.00     0.141 A 
ATOM      3  C   UNL d   1       5.755  -6.564   0.000  0.00  0.00     0.029 A 
ATOM      4  N   UNL d   1       5.343  -7.829   0.000  0.00  0.00    -0.240 NA
ATOM      5  C   UNL d   1       4.669  -7.350   0.000  0.00  0.00     0.087 A 
ATOM      6  C   UNL d   1       6.239  -5.894   0.000  0.00  0.00     0.002 C 
ATOM      7  C   UNL d   1       3.895  -7.605   0.000  0.00  0.00     0.021 C 
ENDROOT
BRANCH   2   8
ATOM      8  C   UNL d   1       6.793  -7.605   0.000  0.00  0.00     0.314 C 
ATOM      9  N   UNL d   1       7.402  -7.055   0.000  0.00  0.00    -0.101 NA
ATOM     10  O   UNL d   1       6.965  -8.411   0.000  0.00  0.00    -0.262 OA
BRANCH   9  11
ATOM     11  N   UNL d   1       8.189  -7.305   0.000  0.00  0.00    -0.102 NA
ATOM     12  C   UNL d   1       8.803  -6.756   0.000  0.00  0.00     0.297 C 
ATOM     13  O   UNL d   1       9.587  -7.018   0.000  0.00  0.00    -0.264 OA
BRANCH  12  14
ATOM     14  C   UNL d   1       8.628  -5.954   0.000  0.00  0.00     0.059 A 
ATOM     15  C   UNL d   1       9.250  -5.408   0.000  0.00  0.00     0.005 A 
ATOM     16  C   UNL d   1       9.078  -4.594   0.000  0.00  0.00     0.000 A 
ATOM     17  C   UNL d   1       8.291  -4.347   0.000  0.00  0.00     0.000 A 
ATOM     18  C   UNL d   1       7.679  -4.893   0.000  0.00  0.00     0.000 A 
ATOM     19  C   UNL d   1       7.849  -5.702   0.000  0.00  0.00     0.005 A 
ENDBRANCH  12  14
ENDBRANCH   9  11
ENDBRANCH   2   8
BRANCH   1  20
ATOM     20  C   UNL d   1       4.444  -5.894   0.000  0.00  0.00     0.302 C 
ATOM     21  O   UNL d   1       4.781  -5.141   0.000  0.00  0.00    -0.259 OA
BRANCH  20  22
ATOM     22  O   UNL d   1       3.620  -5.979   0.000  0.00  0.00    -0.271 OA
BRANCH  22  23
ATOM     23  C   UNL d   1       3.146  -5.318   0.000  0.00  0.00     0.126 C 
ATOM     24  C   UNL d   1       2.324  -5.395   0.000  0.00  0.00     0.029 C 
ENDBRANCH  22  23
ENDBRANCH  20  22
ENDBRANCH   1  20
TORSDOF 6
