REMARK  3 active torsions:
REMARK  status: ('A' for Active; 'I' for Inactive)
REMARK       I    between atoms: C_6  and  N_1 
REMARK    1  A    between atoms: C_7  and  C_3 
REMARK    2  A    between atoms: C_8  and  C_4 
REMARK    3  A    between atoms: C_20  and  C_18 
ROOT
ATOM      1  N   UNL d   1       4.457   1.436   0.000  0.00  0.00    -0.193 N 
ATOM      2  N   UNL d   1       3.658   1.599   0.000  0.00  0.00    -0.163 NA
ATOM      3  C   UNL d   1       4.870   2.151   0.000  0.00  0.00     0.110 A 
ATOM      4  C   UNL d   1       3.576   2.419   0.000  0.00  0.00     0.103 A 
ATOM      5  C   UNL d   1       4.316   2.748   0.000  0.00  0.00     0.042 A 
ATOM      6  C   UNL d   1       4.810   0.661   0.000  0.00  0.00     0.281 C 
ATOM      7  O   UNL d   1       5.610   0.581   0.000  0.00  0.00    -0.265 OA
ATOM      8  C   UNL d   1       4.316   0.000   0.000  0.00  0.00     0.068 C 
ENDROOT
BRANCH   4   9
ATOM      9  C   UNL d   1       2.862   2.829   0.000  0.00  0.00     0.019 A 
ATOM     10  C   UNL d   1       2.145   2.419   0.000  0.00  0.00     0.002 A 
ATOM     11  C   UNL d   1       1.431   2.829   0.000  0.00  0.00     0.000 A 
ATOM     12  C   UNL d   1       1.431   3.658   0.000  0.00  0.00     0.000 A 
ATOM     13  C   UNL d   1       2.145   4.069   0.000  0.00  0.00     0.000 A 
ATOM     14  C   UNL d   1       2.862   3.658   0.000  0.00  0.00     0.002 A 
BRANCH  12  15
ATOM     15  C   UNL d   1       0.715   4.069   0.000  0.00  0.00     0.000 C 
ATOM     16  C   UNL d   1       0.000   3.658   0.000  0.00  0.00     0.000 C 
ENDBRANCH  12  15
ENDBRANCH   4   9
BRANCH   3  17
ATOM     17  C   UNL d   1       5.696   2.231   0.000  0.00  0.00     0.118 A 
ATOM     18  O   UNL d   1       6.109   2.940   0.000  0.00  0.00    -0.304 OA
ATOM     19  C   UNL d   1       6.931   2.776   0.000  0.00  0.00     0.123 A 
ATOM     20  C   UNL d   1       7.017   1.953   0.000  0.00  0.00     0.029 A 
ATOM     21  C   UNL d   1       6.240   1.628   0.000  0.00  0.00     0.028 A 
ENDBRANCH   3  17
TORSDOF 3
