REMARK  3 active torsions:
REMARK  status: ('A' for Active; 'I' for Inactive)
REMARK    1  A    between atoms: N_5  and  S_1 
REMARK    2  A    between atoms: C_6  and  S_1 
REMARK    3  A    between atoms: C_2  and  C_9 
ROOT
ATOM      1  C   UNL d   1      -0.680  -0.180   0.000  0.00  0.00     0.104 A 
ATOM      2  C   UNL d   1       0.747  -0.180   0.000  0.00  0.00     0.025 A 
ATOM      3  C   UNL d   1       0.038  -0.592   0.000  0.00  0.00     0.015 A 
ATOM      4  C   UNL d   1      -0.680   0.650   0.000  0.00  0.00     0.013 A 
ATOM      5  C   UNL d   1       0.747   0.650   0.000  0.00  0.00     0.002 A 
ATOM      6  C   UNL d   1       0.029   1.066   0.000  0.00  0.00     0.001 A 
ENDROOT
BRANCH   2   7
ATOM      7  C   UNL d   1       1.465  -0.592   0.000  0.00  0.00     0.111 A 
ATOM      8  N   UNL d   1       2.207  -0.252   0.000  0.00  0.00    -0.239 NA
ATOM      9  C   UNL d   1       2.761  -0.860   0.000  0.00  0.00     0.088 A 
ATOM     10  C   UNL d   1       3.579  -0.860   0.000  0.00  0.00     0.020 A 
ATOM     11  C   UNL d   1       2.354  -1.578   0.000  0.00  0.00     0.049 A 
ATOM     12  C   UNL d   1       3.995  -1.565   0.000  0.00  0.00     0.002 A 
ATOM     13  C   UNL d   1       3.588  -2.283   0.000  0.00  0.00     0.001 A 
ATOM     14  C   UNL d   1       2.761  -2.283   0.000  0.00  0.00     0.008 A 
ATOM     15  S   UNL d   1       1.548  -1.410   0.000  0.00  0.00    -0.066 SA
ENDBRANCH   2   7
BRANCH   1  16
ATOM     16  S   UNL d   1      -1.393  -0.592   0.000  0.00  0.00     0.271 S 
ATOM     17  O   UNL d   1      -1.053  -1.313   0.000  0.00  0.00    -0.200 OA
ATOM     18  O   UNL d   1      -1.771   0.285   0.000  0.00  0.00    -0.200 OA
BRANCH  16  19
ATOM     19  N   UNL d   1      -2.027  -1.112   0.000  0.00  0.00    -0.229 N 
ATOM     20  C   UNL d   1      -2.833  -0.911   0.000  0.00  0.00     0.092 A 
ATOM     21  C   UNL d   1      -3.273  -1.611   0.000  0.00  0.00     0.021 A 
ATOM     22  C   UNL d   1      -2.753  -2.245   0.000  0.00  0.00     0.021 A 
ATOM     23  C   UNL d   1      -1.985  -1.939   0.000  0.00  0.00     0.092 A 
ENDBRANCH  16  19
ENDBRANCH   1  16
TORSDOF 3
