REMARK  5 active torsions:
REMARK  status: ('A' for Active; 'I' for Inactive)
REMARK    1  A    between atoms: N_8  and  S_1 
REMARK    2  A    between atoms: C_18  and  S_1 
REMARK    3  A    between atoms: C_13  and  C_3 
REMARK    4  A    between atoms: C_5  and  C_11 
REMARK    5  A    between atoms: C_17  and  N_8 
ROOT
ATOM      1  N   UNL d   1       2.801   4.120   0.000  0.00  0.00    -0.246 NA
ATOM      2  C   UNL d   1       2.801   2.466   0.000  0.00  0.00     0.003 A 
ATOM      3  C   UNL d   1       2.087   2.882   0.000  0.00  0.00     0.018 A 
ATOM      4  C   UNL d   1       3.516   3.707   0.000  0.00  0.00     0.081 A 
ATOM      5  C   UNL d   1       3.516   2.882   0.000  0.00  0.00     0.019 A 
ATOM      6  C   UNL d   1       2.087   3.707   0.000  0.00  0.00     0.081 A 
ATOM      7  C   UNL d   1       1.373   2.466   0.000  0.00  0.00     0.002 A 
ATOM      8  C   UNL d   1       1.373   4.120   0.000  0.00  0.00     0.019 A 
ATOM      9  C   UNL d   1       0.658   2.882   0.000  0.00  0.00     0.000 A 
ATOM     10  C   UNL d   1       0.658   3.707   0.000  0.00  0.00     0.002 A 
ATOM     11  C   UNL d   1       0.000   2.466   0.000  0.00  0.00     0.000 C 
ENDROOT
BRANCH   4  12
ATOM     12  C   UNL d   1       4.230   4.120   0.000  0.00  0.00     0.018 A 
ATOM     13  C   UNL d   1       4.230   4.944   0.000  0.00  0.00     0.003 A 
ATOM     14  C   UNL d   1       4.944   5.357   0.000  0.00  0.00     0.020 A 
ATOM     15  C   UNL d   1       5.659   4.944   0.000  0.00  0.00     0.094 A 
ATOM     16  C   UNL d   1       5.659   4.120   0.000  0.00  0.00     0.020 A 
ATOM     17  C   UNL d   1       4.944   3.707   0.000  0.00  0.00     0.003 A 
BRANCH  15  18
ATOM     18  N   UNL d   1       6.373   5.357   0.000  0.00  0.00    -0.158 NA
BRANCH  18  19
ATOM     19  S   UNL d   1       6.373   6.182   0.000  0.00  0.00     0.286 S 
ATOM     20  O   UNL d   1       6.373   6.955   0.000  0.00  0.00    -0.198 OA
ATOM     21  O   UNL d   1       7.200   6.182   0.000  0.00  0.00    -0.198 OA
BRANCH  19  22
ATOM     22  C   UNL d   1       5.548   6.182   0.000  0.00  0.00     0.117 C 
ATOM     23  C   UNL d   1       5.329   6.977   0.000  0.00  0.00     0.014 C 
ENDBRANCH  19  22
ENDBRANCH  18  19
ENDBRANCH  15  18
ENDBRANCH   4  12
BRANCH   2  24
ATOM     24  C   UNL d   1       2.801   1.652   0.000  0.00  0.00     0.000 A 
ATOM     25  C   UNL d   1       2.087   1.241   0.000  0.00  0.00     0.000 A 
ATOM     26  C   UNL d   1       2.087   0.414   0.000  0.00  0.00     0.000 A 
ATOM     27  C   UNL d   1       2.801   0.000   0.000  0.00  0.00     0.000 A 
ATOM     28  C   UNL d   1       3.516   0.414   0.000  0.00  0.00     0.000 A 
ATOM     29  C   UNL d   1       3.516   1.241   0.000  0.00  0.00     0.000 A 
ENDBRANCH   2  24
TORSDOF 5
