REMARK  3 active torsions:
REMARK  status: ('A' for Active; 'I' for Inactive)
REMARK       I    between atoms: C_3  and  N_1 
REMARK    1  A    between atoms: C_9  and  C_3 
REMARK    2  A    between atoms: C_15  and  C_4 
REMARK    3  A    between atoms: N_5  and  C_8 
ROOT
ATOM      1  N   UNL d   1      -1.649   1.666   0.000  0.00  0.00    -0.269 N 
ATOM      2  C   UNL d   1      -2.953   1.321   0.000  0.00  0.00     0.036 A 
ATOM      3  C   UNL d   1      -0.892   1.333   0.000  0.00  0.00     0.265 C 
ATOM      4  C   UNL d   1      -2.280   1.148   0.000  0.00  0.00     0.069 A 
ATOM      5  C   UNL d   1      -3.378   2.044   0.000  0.00  0.00     0.086 A 
ATOM      6  N   UNL d   1      -3.176   2.738   0.000  0.00  0.00    -0.207 NA
ATOM      7  C   UNL d   1      -2.406   3.012   0.000  0.00  0.00     0.297 A 
ATOM      8  C   UNL d   1      -1.699   2.520   0.000  0.00  0.00     0.146 A 
ATOM      9  C   UNL d   1      -3.378   0.602   0.000  0.00  0.00     0.033 A 
ATOM     10  O   UNL d   1      -0.795   0.505   0.000  0.00  0.00    -0.267 OA
ATOM     11  O   UNL d   1      -2.297   3.836   0.000  0.00  0.00    -0.264 OA
ATOM     12  C   UNL d   1      -4.211   2.040   0.000  0.00  0.00     0.022 A 
ATOM     13  C   UNL d   1      -4.211   0.593   0.000  0.00  0.00     0.140 A 
ATOM     14  C   UNL d   1      -4.627   1.321   0.000  0.00  0.00     0.031 A 
ATOM     15  F   UNL d   1      -4.614  -0.118   0.000  0.00  0.00    -0.204 F 
ENDROOT
BRANCH   3  16
ATOM     16  C   UNL d   1      -0.227   1.817   0.000  0.00  0.00     0.058 A 
ATOM     17  C   UNL d   1       0.530   1.489   0.000  0.00  0.00     0.028 A 
ATOM     18  C   UNL d   1       1.178   1.977   0.000  0.00  0.00     0.127 A 
ATOM     19  C   UNL d   1       1.089   2.797   0.000  0.00  0.00     0.022 A 
ATOM     20  C   UNL d   1       0.345   3.125   0.000  0.00  0.00     0.002 A 
ATOM     21  C   UNL d   1       1.758   3.281   0.000  0.00  0.00     0.002 C 
ATOM     22  C   UNL d   1      -0.316   2.633   0.000  0.00  0.00     0.005 A 
BRANCH  18  23
ATOM     23  N   UNL d   1       1.935   1.649   0.000  0.00  0.00    -0.114 N 
ATOM     24  O   UNL d   1       2.023   0.841   0.000  0.00  0.00    -0.532 OA
ATOM     25  O   UNL d   1       2.591   2.141   0.000  0.00  0.00    -0.532 OA
ENDBRANCH  18  23
ENDBRANCH   3  16
BRANCH   4  26
ATOM     26  C   UNL d   1      -2.103   0.349   0.000  0.00  0.00     0.016 A 
ATOM     27  C   UNL d   1      -1.312   0.101   0.000  0.00  0.00     0.004 A 
ATOM     28  C   UNL d   1      -1.144  -0.707   0.000  0.00  0.00     0.030 A 
ATOM     29  C   UNL d   1      -1.737  -1.254   0.000  0.00  0.00     0.140 A 
ATOM     30  C   UNL d   1      -2.524  -1.001   0.000  0.00  0.00     0.030 A 
ATOM     31  F   UNL d   1      -1.565  -2.057   0.000  0.00  0.00    -0.204 F 
ATOM     32  C   UNL d   1      -2.709  -0.206   0.000  0.00  0.00     0.004 A 
ENDBRANCH   4  26
TORSDOF 3
