REMARK  5 active torsions:
REMARK  status: ('A' for Active; 'I' for Inactive)
REMARK    1  A    between atoms: C_2  and  S_1 
REMARK    2  A    between atoms: C_12  and  S_1 
REMARK    3  A    between atoms: N_5  and  C_3 
REMARK    4  A    between atoms: C_18  and  N_7 
REMARK    5  A    between atoms: O_22  and  C_20 
ROOT
ATOM      1  C   UNL d   1       6.442  -4.125   0.000  0.00  0.00     0.123 A 
ATOM      2  C   UNL d   1       5.725  -3.712   0.000  0.00  0.00     0.078 A 
ATOM      3  C   UNL d   1       5.013  -4.125   0.000  0.00  0.00     0.036 A 
ATOM      4  C   UNL d   1       6.442  -4.950   0.000  0.00  0.00     0.112 A 
ATOM      5  N   UNL d   1       5.725  -5.362   0.000  0.00  0.00    -0.243 NA
ATOM      6  C   UNL d   1       5.013  -4.950   0.000  0.00  0.00     0.083 A 
ATOM      7  C   UNL d   1       4.300  -3.712   0.000  0.00  0.00     0.027 A 
ATOM      8  C   UNL d   1       4.300  -5.362   0.000  0.00  0.00     0.021 A 
ATOM      9  C   UNL d   1       3.579  -4.125   0.000  0.00  0.00     0.094 A 
ATOM     10  C   UNL d   1       3.579  -4.950   0.000  0.00  0.00     0.026 A 
ENDROOT
BRANCH   2  11
ATOM     11  N   UNL d   1       5.725  -2.879   0.000  0.00  0.00    -0.301 N 
ATOM     12  C   UNL d   1       5.004  -2.467   0.000  0.00  0.00     0.100 A 
ATOM     13  C   UNL d   1       5.013  -1.637   0.000  0.00  0.00     0.100 A 
ATOM     14  N   UNL d   1       5.729  -1.225   0.000  0.00  0.00    -0.301 N 
ATOM     15  C   UNL d   1       6.450  -1.642   0.000  0.00  0.00     0.100 A 
ATOM     16  C   UNL d   1       6.442  -2.467   0.000  0.00  0.00     0.100 A 
BRANCH  14  17
ATOM     17  C   UNL d   1       5.729  -0.400   0.000  0.00  0.00     0.064 A 
ATOM     18  C   UNL d   1       6.450   0.013   0.000  0.00  0.00     0.018 A 
ATOM     19  C   UNL d   1       6.454   0.838   0.000  0.00  0.00     0.002 A 
ATOM     20  C   UNL d   1       5.742   1.250   0.000  0.00  0.00     0.000 A 
ATOM     21  C   UNL d   1       5.025   0.838   0.000  0.00  0.00     0.002 A 
ATOM     22  C   UNL d   1       5.025   0.013   0.000  0.00  0.00     0.018 A 
ENDBRANCH  14  17
ENDBRANCH   2  11
BRANCH   1  23
ATOM     23  S   UNL d   1       7.162  -3.712   0.000  0.00  0.00     0.213 S 
ATOM     24  O   UNL d   1       7.575  -4.429   0.000  0.00  0.00    -0.217 OA
ATOM     25  O   UNL d   1       6.750  -2.987   0.000  0.00  0.00    -0.217 OA
BRANCH  23  26
ATOM     26  C   UNL d   1       7.879  -3.300   0.000  0.00  0.00     0.088 A 
ATOM     27  C   UNL d   1       7.888  -2.475   0.000  0.00  0.00     0.011 A 
ATOM     28  C   UNL d   1       8.600  -2.062   0.000  0.00  0.00     0.001 A 
ATOM     29  C   UNL d   1       9.325  -2.475   0.000  0.00  0.00     0.000 A 
ATOM     30  C   UNL d   1       9.317  -3.304   0.000  0.00  0.00     0.001 A 
ATOM     31  C   UNL d   1       8.592  -3.712   0.000  0.00  0.00     0.011 A 
ENDBRANCH  23  26
ENDBRANCH   1  23
BRANCH   9  32
ATOM     32  O   UNL d   1       2.867  -3.704   0.000  0.00  0.00    -0.328 OA
ATOM     33  C   UNL d   1       2.150  -4.117   0.000  0.00  0.00     0.181 C 
ENDBRANCH   9  32
TORSDOF 5
