REMARK  6 active torsions:
REMARK  status: ('A' for Active; 'I' for Inactive)
REMARK    1  A    between atoms: C_6  and  C_1 
REMARK    2  A    between atoms: C_9  and  N_3 
REMARK       I    between atoms: N_7  and  C_6 
REMARK    3  A    between atoms: C_8  and  N_7 
REMARK    4  A    between atoms: C_14  and  C_9 
REMARK    5  A    between atoms: O_21  and  C_12 
REMARK    6  A    between atoms: O_22  and  C_19 
ROOT
ATOM      1  C   UNL d   1       5.675  -5.829   0.000  0.00  0.00     0.199 A 
ATOM      2  C   UNL d   1       4.844  -5.829   0.000  0.00  0.00     0.211 A 
ATOM      3  N   UNL d   1       4.590  -5.043   0.000  0.00  0.00    -0.190 N 
ATOM      4  N   UNL d   1       5.929  -5.043   0.000  0.00  0.00    -0.122 NA
ATOM      5  N   UNL d   1       5.255  -4.557   0.000  0.00  0.00    -0.058 NA
ATOM      6  N   UNL d   1       4.357  -6.498   0.000  0.00  0.00    -0.125 N 
ENDROOT
BRANCH   1   7
ATOM      7  C   UNL d   1       6.154  -6.498   0.000  0.00  0.00     0.302 C 
ATOM      8  N   UNL d   1       6.977  -6.411   0.000  0.00  0.00    -0.205 NA
ATOM      9  O   UNL d   1       5.817  -7.251   0.000  0.00  0.00    -0.263 OA
BRANCH   8  10
ATOM     10  C   UNL d   1       7.463  -7.085   0.000  0.00  0.00     0.108 A 
ATOM     11  C   UNL d   1       7.126  -7.837   0.000  0.00  0.00     0.033 A 
ATOM     12  C   UNL d   1       7.609  -8.507   0.000  0.00  0.00     0.059 A 
ATOM     13 CL   UNL d   1       7.264  -9.259   0.000  0.00  0.00    -0.082 Cl
ATOM     14  C   UNL d   1       8.432  -8.424   0.000  0.00  0.00     0.013 A 
ATOM     15  C   UNL d   1       8.773  -7.663   0.000  0.00  0.00     0.027 A 
ATOM     16  C   UNL d   1       8.282  -6.997   0.000  0.00  0.00     0.112 A 
BRANCH  16  17
ATOM     17  O   UNL d   1       8.619  -6.241   0.000  0.00  0.00    -0.327 OA
ATOM     18  C   UNL d   1       8.133  -5.575   0.000  0.00  0.00     0.181 C 
ENDBRANCH  16  17
ENDBRANCH   8  10
ENDBRANCH   1   7
BRANCH   3  19
ATOM     19  C   UNL d   1       3.808  -4.781   0.000  0.00  0.00     0.104 C 
BRANCH  19  20
ATOM     20  C   UNL d   1       3.630  -3.979   0.000  0.00  0.00     0.021 A 
ATOM     21  C   UNL d   1       2.848  -3.721   0.000  0.00  0.00     0.026 A 
ATOM     22  C   UNL d   1       2.674  -2.919   0.000  0.00  0.00     0.094 A 
ATOM     23  C   UNL d   1       3.285  -2.357   0.000  0.00  0.00     0.024 A 
ATOM     24  C   UNL d   1       4.079  -2.619   0.000  0.00  0.00     0.002 A 
ATOM     25  C   UNL d   1       4.245  -3.422   0.000  0.00  0.00     0.002 A 
BRANCH  22  26
ATOM     26  O   UNL d   1       1.888  -2.669   0.000  0.00  0.00    -0.328 OA
ATOM     27  C   UNL d   1       1.276  -3.222   0.000  0.00  0.00     0.181 C 
ENDBRANCH  22  26
ENDBRANCH  19  20
ENDBRANCH   3  19
TORSDOF 6
