REMARK  7 active torsions:
REMARK  status: ('A' for Active; 'I' for Inactive)
REMARK    1  A    between atoms: C_5  and  C_1 
REMARK    2  A    between atoms: N_6  and  C_2 
REMARK       I    between atoms: N_10  and  C_5 
REMARK    3  A    between atoms: C_20  and  N_6 
REMARK    4  A    between atoms: C_9  and  C_12 
REMARK    5  A    between atoms: C_22  and  N_10 
REMARK    6  A    between atoms: C_11  and  C_22 
REMARK    7  A    between atoms: O_30  and  C_25 
ROOT
ATOM      1  C   UNL d   1       5.893  -3.300   0.000  0.00  0.00     0.099 A 
ATOM      2  C   UNL d   1       5.897  -4.124   0.000  0.00  0.00     0.187 A 
ATOM      3  C   UNL d   1       5.160  -2.897   0.000  0.00  0.00     0.010 A 
ATOM      4  O   UNL d   1       5.194  -4.549   0.000  0.00  0.00    -0.289 OA
ATOM      5  C   UNL d   1       4.449  -3.321   0.000  0.00  0.00     0.025 A 
ATOM      6  C   UNL d   1       4.461  -4.137   0.000  0.00  0.00     0.102 A 
ATOM      7  C   UNL d   1       3.725  -2.926   0.000  0.00  0.00     0.026 A 
ATOM      8  C   UNL d   1       3.750  -4.574   0.000  0.00  0.00     0.027 A 
ATOM      9  C   UNL d   1       3.021  -3.346   0.000  0.00  0.00     0.094 A 
ATOM     10  C   UNL d   1       3.026  -4.170   0.000  0.00  0.00     0.026 A 
ENDROOT
BRANCH   2  11
ATOM     11  N   UNL d   1       6.634  -4.524   0.000  0.00  0.00    -0.222 NA
BRANCH  11  12
ATOM     12  C   UNL d   1       6.646  -5.348   0.000  0.00  0.00     0.084 A 
ATOM     13  C   UNL d   1       7.370  -5.743   0.000  0.00  0.00     0.019 A 
ATOM     14  C   UNL d   1       7.378  -6.559   0.000  0.00  0.00     0.008 A 
ATOM     15  C   UNL d   1       6.671  -6.996   0.000  0.00  0.00     0.065 A 
ATOM     16  C   UNL d   1       5.947  -6.596   0.000  0.00  0.00     0.008 A 
ATOM     17  C   UNL d   1       5.943  -5.772   0.000  0.00  0.00     0.019 A 
BRANCH  15  18
ATOM     18  C   UNL d   1       6.684  -7.820   0.000  0.00  0.00     0.211 C 
ATOM     19  O   UNL d   1       7.408  -8.227   0.000  0.00  0.00    -0.644 OA
ATOM     20  O   UNL d   1       5.980  -8.257   0.000  0.00  0.00    -0.644 OA
ENDBRANCH  15  18
ENDBRANCH  11  12
ENDBRANCH   2  11
BRANCH   1  21
ATOM     21  C   UNL d   1       6.596  -2.872   0.000  0.00  0.00     0.283 C 
ATOM     22  N   UNL d   1       7.333  -3.275   0.000  0.00  0.00    -0.204 NA
ATOM     23  O   UNL d   1       6.596  -2.035   0.000  0.00  0.00    -0.265 OA
BRANCH  22  24
ATOM     24  C   UNL d   1       8.044  -2.846   0.000  0.00  0.00     0.127 C 
BRANCH  24  25
ATOM     25  C   UNL d   1       8.768  -3.238   0.000  0.00  0.00     0.119 A 
ATOM     26  O   UNL d   1       8.977  -4.037   0.000  0.00  0.00    -0.304 OA
ATOM     27  C   UNL d   1       9.792  -4.099   0.000  0.00  0.00     0.123 A 
ATOM     28  C   UNL d   1      10.104  -3.350   0.000  0.00  0.00     0.029 A 
ATOM     29  C   UNL d   1       9.476  -2.813   0.000  0.00  0.00     0.028 A 
ENDBRANCH  24  25
ENDBRANCH  22  24
ENDBRANCH   1  21
BRANCH   9  30
ATOM     30  O   UNL d   1       2.297  -2.938   0.000  0.00  0.00    -0.328 OA
ATOM     31  C   UNL d   1       1.577  -3.363   0.000  0.00  0.00     0.181 C 
ENDBRANCH   9  30
TORSDOF 7
