REMARK  5 active torsions:
REMARK  status: ('A' for Active; 'I' for Inactive)
REMARK    1  A    between atoms: S_2  and  C_1 
REMARK    2  A    between atoms: C_8  and  S_2 
REMARK    3  A    between atoms: C_18  and  N_6 
REMARK    4  A    between atoms: O_22  and  C_16 
REMARK    5  A    between atoms: C_23  and  O_22 
ROOT
ATOM      1  C   UNL d   1       6.382  -3.005   0.000  0.00  0.00     0.144 A 
ATOM      2  C   UNL d   1       5.665  -2.605   0.000  0.00  0.00     0.209 A 
ATOM      3  C   UNL d   1       4.952  -3.005   0.000  0.00  0.00     0.058 A 
ATOM      4  C   UNL d   1       6.382  -3.843   0.000  0.00  0.00     0.095 A 
ATOM      5  N   UNL d   1       5.665  -4.256   0.000  0.00  0.00    -0.303 N 
ATOM      6  C   UNL d   1       4.952  -3.843   0.000  0.00  0.00     0.067 A 
ATOM      7  C   UNL d   1       4.239  -4.256   0.000  0.00  0.00     0.020 A 
ATOM      8  C   UNL d   1       4.239  -2.605   0.000  0.00  0.00     0.029 A 
ATOM      9  O   UNL d   1       5.665  -1.780   0.000  0.00  0.00    -0.286 OA
ATOM     10  C   UNL d   1       3.518  -3.005   0.000  0.00  0.00     0.100 A 
ATOM     11  C   UNL d   1       3.518  -3.843   0.000  0.00  0.00     0.026 A 
ENDROOT
BRANCH   1  12
ATOM     12  S   UNL d   1       7.103  -2.605   0.000  0.00  0.00     0.214 S 
ATOM     13  O   UNL d   1       7.516  -3.318   0.000  0.00  0.00    -0.217 OA
ATOM     14  O   UNL d   1       6.690  -1.880   0.000  0.00  0.00    -0.217 OA
BRANCH  12  15
ATOM     15  C   UNL d   1       7.820  -2.193   0.000  0.00  0.00     0.088 A 
ATOM     16  C   UNL d   1       7.828  -1.367   0.000  0.00  0.00     0.011 A 
ATOM     17  C   UNL d   1       8.541  -0.955   0.000  0.00  0.00     0.001 A 
ATOM     18  C   UNL d   1       9.258  -1.367   0.000  0.00  0.00     0.000 A 
ATOM     19  C   UNL d   1       9.254  -2.193   0.000  0.00  0.00     0.001 A 
ATOM     20  C   UNL d   1       9.979  -0.955   0.000  0.00  0.00     0.000 C 
ATOM     21  C   UNL d   1       8.541  -2.605   0.000  0.00  0.00     0.011 A 
ENDBRANCH  12  15
ENDBRANCH   1  12
BRANCH   5  22
ATOM     22  C   UNL d   1       5.656  -5.081   0.000  0.00  0.00     0.080 C 
ATOM     23  C   UNL d   1       6.369  -5.494   0.000  0.00  0.00     0.021 C 
ENDBRANCH   5  22
BRANCH  10  24
ATOM     24  O   UNL d   1       2.805  -2.605   0.000  0.00  0.00    -0.305 OA
BRANCH  24  25
ATOM     25  C   UNL d   1       2.088  -3.005   0.000  0.00  0.00     0.123 C 
ATOM     26  C   UNL d   1       1.375  -2.593   0.000  0.00  0.00     0.029 C 
ENDBRANCH  24  25
ENDBRANCH  10  24
TORSDOF 5
