REMARK  0 active torsions:
REMARK  status: ('A' for Active; 'I' for Inactive)
ROOT
ATOM      1  C   UNL d   1       3.579   0.046   0.000  0.00  0.00     0.134 A 
ATOM      2  N   UNL d   1       4.292  -0.367   0.000  0.00  0.00    -0.234 NA
ATOM      3  C   UNL d   1       2.867  -0.375   0.000  0.00  0.00     0.045 A 
ATOM      4  C   UNL d   1       4.292  -1.192   0.000  0.00  0.00     0.207 A 
ATOM      5  N   UNL d   1       3.579  -1.617   0.000  0.00  0.00    -0.244 NA
ATOM      6  C   UNL d   1       2.867  -1.204   0.000  0.00  0.00     0.081 A 
ATOM      7  S   UNL d   1       3.575   0.871   0.000  0.00  0.00    -0.058 SA
ATOM      8  C   UNL d   1       2.150   0.037   0.000  0.00  0.00     0.004 A 
ATOM      9  C   UNL d   1       5.004  -0.779   0.000  0.00  0.00     0.023 A 
ATOM     10  C   UNL d   1       4.287  -2.017   0.000  0.00  0.00     0.023 A 
ATOM     11  C   UNL d   1       2.150  -1.617   0.000  0.00  0.00     0.019 A 
ATOM     12  C   UNL d   1       1.438  -0.375   0.000  0.00  0.00     0.000 A 
ATOM     13  C   UNL d   1       4.992  -2.429   0.000  0.00  0.00    -0.001 A 
ATOM     14  C   UNL d   1       5.717  -1.192   0.000  0.00  0.00    -0.001 A 
ATOM     15  C   UNL d   1       1.438  -1.204   0.000  0.00  0.00     0.002 A 
ATOM     16  C   UNL d   1       5.713  -2.017   0.000  0.00  0.00    -0.000 A 
ENDROOT
TORSDOF 0
