REMARK  12 active torsions:
REMARK  status: ('A' for Active; 'I' for Inactive)
REMARK    1  A    between atoms: C_18  and  N_1 
REMARK    2  A    between atoms: C_9  and  N_3 
REMARK    3  A    between atoms: C_12  and  C_9 
REMARK       I    between atoms: N_19  and  C_12 
REMARK    4  A    between atoms: C_14  and  C_22 
REMARK       I    between atoms: N_15  and  C_14 
REMARK    5  A    between atoms: C_20  and  N_15 
REMARK    6  A    between atoms: C_27  and  C_18 
REMARK    7  A    between atoms: C_23  and  N_19 
REMARK    8  A    between atoms: O_21  and  C_24 
REMARK    9  A    between atoms: C_22  and  C_29 
REMARK   10  A    between atoms: C_24  and  C_23 
REMARK   11  A    between atoms: C_30  and  C_27 
REMARK   12  A    between atoms: C_29  and  C_30 
ROOT
ATOM      1  N   UNL d   1       1.479  -0.392   0.000  0.00  0.00    -0.225 N 
ATOM      2  C   UNL d   1       1.479  -1.216   0.000  0.00  0.00     0.342 A 
ATOM      3  N   UNL d   1       0.762  -1.641   0.000  0.00  0.00    -0.253 N 
ATOM      4  C   UNL d   1       0.054  -0.392   0.000  0.00  0.00     0.102 A 
ATOM      5  C   UNL d   1       0.766   0.013   0.000  0.00  0.00     0.276 A 
ATOM      6  C   UNL d   1       0.042  -1.229   0.000  0.00  0.00     0.080 A 
ATOM      7  S   UNL d   1      -0.746  -0.125   0.000  0.00  0.00    -0.080 SA
ATOM      8  C   UNL d   1      -0.758  -1.487   0.000  0.00  0.00     0.025 A 
ATOM      9  O   UNL d   1       2.187  -1.637   0.000  0.00  0.00    -0.245 OA
ATOM     10  C   UNL d   1      -1.246  -0.804   0.000  0.00  0.00     0.037 A 
ATOM     11  O   UNL d   1       0.775   0.833   0.000  0.00  0.00    -0.266 OA
ENDROOT
BRANCH   1  12
ATOM     12  C   UNL d   1       2.187   0.008   0.000  0.00  0.00     0.087 C 
BRANCH  12  13
ATOM     13  C   UNL d   1       2.899  -0.417   0.000  0.00  0.00     0.019 C 
BRANCH  13  14
ATOM     14  C   UNL d   1       3.616  -0.013   0.000  0.00  0.00     0.002 C 
BRANCH  14  15
ATOM     15  C   UNL d   1       4.324  -0.429   0.000  0.00  0.00     0.005 C 
BRANCH  15  16
ATOM     16  C   UNL d   1       5.041  -0.029   0.000  0.00  0.00     0.062 C 
BRANCH  16  17
ATOM     17  C   UNL d   1       5.753  -0.450   0.000  0.00  0.00     0.279 C 
ATOM     18  N   UNL d   1       6.474  -0.042   0.000  0.00  0.00    -0.208 NA
ATOM     19  O   UNL d   1       5.740  -1.275   0.000  0.00  0.00    -0.265 OA
BRANCH  18  20
ATOM     20  C   UNL d   1       7.178  -0.462   0.000  0.00  0.00     0.085 A 
ATOM     21  C   UNL d   1       7.890  -0.054   0.000  0.00  0.00     0.019 A 
ATOM     22  C   UNL d   1       8.602  -0.475   0.000  0.00  0.00     0.002 A 
ATOM     23  C   UNL d   1       8.590  -1.304   0.000  0.00  0.00     0.000 A 
ATOM     24  C   UNL d   1       7.873  -1.704   0.000  0.00  0.00     0.002 A 
ATOM     25  C   UNL d   1       7.165  -1.287   0.000  0.00  0.00     0.019 A 
ENDBRANCH  18  20
ENDBRANCH  16  17
ENDBRANCH  15  16
ENDBRANCH  14  15
ENDBRANCH  13  14
ENDBRANCH  12  13
ENDBRANCH   1  12
BRANCH   3  26
ATOM     26  C   UNL d   1       0.775  -2.466   0.000  0.00  0.00     0.147 C 
BRANCH  26  27
ATOM     27  C   UNL d   1       0.062  -2.891   0.000  0.00  0.00     0.297 C 
ATOM     28  O   UNL d   1      -0.658  -2.504   0.000  0.00  0.00    -0.264 OA
ATOM     29  N   UNL d   1       0.079  -3.728   0.000  0.00  0.00    -0.203 NA
BRANCH  29  30
ATOM     30  C   UNL d   1      -0.637  -4.162   0.000  0.00  0.00     0.129 C 
BRANCH  30  31
ATOM     31  C   UNL d   1      -0.621  -4.987   0.000  0.00  0.00     0.137 C 
BRANCH  31  32
ATOM     32  O   UNL d   1      -1.321  -5.416   0.000  0.00  0.00    -0.325 OA
ATOM     33  C   UNL d   1      -1.296  -6.240   0.000  0.00  0.00     0.182 C 
ENDBRANCH  31  32
ENDBRANCH  30  31
ENDBRANCH  29  30
ENDBRANCH  26  27
ENDBRANCH   3  26
TORSDOF 12
