REMARK  8 active torsions:
REMARK  status: ('A' for Active; 'I' for Inactive)
REMARK    1  A    between atoms: C_8  and  N_1 
REMARK    2  A    between atoms: C_7  and  N_3 
REMARK    3  A    between atoms: C_11  and  C_7 
REMARK    4  A    between atoms: C_20  and  C_8 
REMARK    5  A    between atoms: C_9  and  C_13 
REMARK       I    between atoms: N_16  and  C_9 
REMARK    6  A    between atoms: C_24  and  N_16 
REMARK    7  A    between atoms: C_27  and  C_24 
REMARK    8  A    between atoms: C_25  and  C_27 
ROOT
ATOM      1  N   UNL d   1       5.667  -4.800   0.000  0.00  0.00    -0.226 N 
ATOM      2  C   UNL d   1       5.667  -5.625   0.000  0.00  0.00     0.342 A 
ATOM      3  N   UNL d   1       4.954  -6.037   0.000  0.00  0.00    -0.259 N 
ATOM      4  C   UNL d   1       4.954  -4.379   0.000  0.00  0.00     0.270 A 
ATOM      5  C   UNL d   1       4.242  -4.800   0.000  0.00  0.00     0.073 A 
ATOM      6  C   UNL d   1       4.242  -5.625   0.000  0.00  0.00     0.073 A 
ATOM      7  O   UNL d   1       6.392  -6.042   0.000  0.00  0.00    -0.245 OA
ATOM      8  O   UNL d   1       4.954  -3.562   0.000  0.00  0.00    -0.266 OA
ATOM      9  C   UNL d   1       3.529  -4.379   0.000  0.00  0.00     0.006 A 
ATOM     10  C   UNL d   1       3.529  -6.037   0.000  0.00  0.00     0.018 A 
ATOM     11  C   UNL d   1       2.812  -4.800   0.000  0.00  0.00     0.000 A 
ATOM     12  C   UNL d   1       2.812  -5.625   0.000  0.00  0.00     0.002 A 
ENDROOT
BRANCH   1  13
ATOM     13  C   UNL d   1       6.392  -4.379   0.000  0.00  0.00     0.087 C 
BRANCH  13  14
ATOM     14  C   UNL d   1       6.392  -3.562   0.000  0.00  0.00     0.018 A 
ATOM     15  C   UNL d   1       5.679  -3.150   0.000  0.00  0.00     0.002 A 
ATOM     16  C   UNL d   1       5.679  -2.317   0.000  0.00  0.00     0.005 A 
ATOM     17  C   UNL d   1       6.392  -1.904   0.000  0.00  0.00     0.058 A 
ATOM     18  C   UNL d   1       7.112  -2.317   0.000  0.00  0.00     0.005 A 
ATOM     19  C   UNL d   1       7.112  -3.150   0.000  0.00  0.00     0.002 A 
BRANCH  17  20
ATOM     20  C   UNL d   1       6.392  -1.079   0.000  0.00  0.00     0.279 C 
ATOM     21  O   UNL d   1       5.679  -0.667   0.000  0.00  0.00    -0.265 OA
ATOM     22  N   UNL d   1       7.104  -0.667   0.000  0.00  0.00    -0.206 NA
BRANCH  22  23
ATOM     23  C   UNL d   1       7.104   0.158   0.000  0.00  0.00     0.102 C 
BRANCH  23  24
ATOM     24  C   UNL d   1       7.817   0.571   0.000  0.00  0.00     0.021 C 
BRANCH  24  25
ATOM     25  C   UNL d   1       7.817   1.400   0.000  0.00  0.00     0.002 A 
ATOM     26  C   UNL d   1       8.537   1.812   0.000  0.00  0.00     0.000 A 
ATOM     27  C   UNL d   1       8.537   2.646   0.000  0.00  0.00     0.000 A 
ATOM     28  C   UNL d   1       7.817   3.058   0.000  0.00  0.00     0.000 A 
ATOM     29  C   UNL d   1       7.104   2.646   0.000  0.00  0.00     0.000 A 
ATOM     30  C   UNL d   1       7.104   1.812   0.000  0.00  0.00     0.000 A 
ENDBRANCH  24  25
ENDBRANCH  23  24
ENDBRANCH  22  23
ENDBRANCH  17  20
ENDBRANCH  13  14
ENDBRANCH   1  13
BRANCH   3  31
ATOM     31  C   UNL d   1       4.954  -6.862   0.000  0.00  0.00     0.084 C 
BRANCH  31  32
ATOM     32  C   UNL d   1       5.667  -7.275   0.000  0.00  0.00     0.018 A 
ATOM     33  C   UNL d   1       5.667  -8.104   0.000  0.00  0.00     0.001 A 
ATOM     34  C   UNL d   1       4.942  -8.529   0.000  0.00  0.00     0.000 C 
ATOM     35  C   UNL d   1       6.379  -8.517   0.000  0.00  0.00     0.000 A 
ATOM     36  C   UNL d   1       7.092  -8.104   0.000  0.00  0.00     0.000 A 
ATOM     37  C   UNL d   1       7.092  -7.275   0.000  0.00  0.00     0.000 A 
ATOM     38  C   UNL d   1       6.379  -6.862   0.000  0.00  0.00     0.002 A 
ENDBRANCH  31  32
ENDBRANCH   3  31
TORSDOF 8
