REMARK  8 active torsions:
REMARK  status: ('A' for Active; 'I' for Inactive)
REMARK    1  A    between atoms: C_10  and  C_3 
REMARK       I    between atoms: N_14  and  C_10 
REMARK    2  A    between atoms: C_12  and  C_13 
REMARK       I    between atoms: N_21  and  C_12 
REMARK    3  A    between atoms: C_29  and  N_14 
REMARK    4  A    between atoms: C_28  and  N_21 
REMARK    5  A    between atoms: O_30  and  C_22 
REMARK    6  A    between atoms: C_23  and  C_31 
REMARK    7  A    between atoms: C_31  and  C_28 
REMARK    8  A    between atoms: C_32  and  O_30 
ROOT
ATOM      1  N   UNL d   1       6.629  -3.125   0.000  0.00  0.00    -0.277 N 
ATOM      2  C   UNL d   1       6.629  -2.292   0.000  0.00  0.00     0.163 A 
ATOM      3  C   UNL d   1       7.417  -2.042   0.000  0.00  0.00     0.124 A 
ATOM      4  C   UNL d   1       7.417  -3.379   0.000  0.00  0.00     0.152 A 
ATOM      5  N   UNL d   1       5.917  -1.879   0.000  0.00  0.00    -0.190 NA
ATOM      6  S   UNL d   1       7.900  -2.704   0.000  0.00  0.00    -0.051 SA
ATOM      7  C   UNL d   1       5.917  -3.538   0.000  0.00  0.00     0.071 A 
ATOM      8  C   UNL d   1       5.204  -3.125   0.000  0.00  0.00     0.074 A 
ATOM      9  C   UNL d   1       5.204  -2.292   0.000  0.00  0.00     0.282 A 
ATOM     10  C   UNL d   1       5.917  -4.367   0.000  0.00  0.00     0.023 A 
ATOM     11  C   UNL d   1       5.204  -4.779   0.000  0.00  0.00     0.059 A 
ATOM     12  S   UNL d   1       7.667  -4.167   0.000  0.00  0.00    -0.052 SA
ATOM     13  C   UNL d   1       4.487  -3.538   0.000  0.00  0.00     0.006 A 
ATOM     14  O   UNL d   1       4.479  -1.875   0.000  0.00  0.00    -0.265 OA
ATOM     15  C   UNL d   1       4.487  -4.367   0.000  0.00  0.00     0.005 A 
ENDROOT
BRANCH  11  16
ATOM     16  C   UNL d   1       5.204  -5.604   0.000  0.00  0.00     0.279 C 
ATOM     17  O   UNL d   1       5.917  -6.017   0.000  0.00  0.00    -0.265 OA
ATOM     18  N   UNL d   1       4.492  -6.017   0.000  0.00  0.00    -0.206 NA
BRANCH  18  19
ATOM     19  C   UNL d   1       3.779  -5.604   0.000  0.00  0.00     0.102 C 
BRANCH  19  20
ATOM     20  C   UNL d   1       3.067  -6.013   0.000  0.00  0.00     0.021 C 
BRANCH  20  21
ATOM     21  C   UNL d   1       2.354  -5.592   0.000  0.00  0.00     0.002 A 
ATOM     22  C   UNL d   1       1.642  -6.004   0.000  0.00  0.00     0.002 A 
ATOM     23  C   UNL d   1       0.929  -5.592   0.000  0.00  0.00     0.025 A 
ATOM     24  C   UNL d   1       0.929  -4.767   0.000  0.00  0.00     0.100 A 
ATOM     25  C   UNL d   1       1.642  -4.354   0.000  0.00  0.00     0.025 A 
ATOM     26  C   UNL d   1       2.354  -4.767   0.000  0.00  0.00     0.002 A 
BRANCH  24  27
ATOM     27  O   UNL d   1       0.212  -4.354   0.000  0.00  0.00    -0.305 OA
BRANCH  27  28
ATOM     28  C   UNL d   1      -0.500  -4.767   0.000  0.00  0.00     0.123 C 
ATOM     29  C   UNL d   1      -1.221  -4.354   0.000  0.00  0.00     0.029 C 
ENDBRANCH  27  28
ENDBRANCH  24  27
ENDBRANCH  20  21
ENDBRANCH  19  20
ENDBRANCH  18  19
ENDBRANCH  11  16
BRANCH   3  30
ATOM     30  C   UNL d   1       7.667  -1.254   0.000  0.00  0.00     0.288 C 
ATOM     31  N   UNL d   1       8.475  -1.079   0.000  0.00  0.00    -0.207 NA
ATOM     32  O   UNL d   1       7.117  -0.642   0.000  0.00  0.00    -0.265 OA
BRANCH  31  33
ATOM     33  C   UNL d   1       8.729  -0.292   0.000  0.00  0.00     0.085 C 
ATOM     34  C   UNL d   1       9.529  -0.117   0.000  0.00  0.00     0.021 C 
ATOM     35  C   UNL d   1       8.175   0.321   0.000  0.00  0.00     0.021 C 
ENDBRANCH  31  33
ENDBRANCH   3  30
TORSDOF 8
