REMARK  3 active torsions:
REMARK  status: ('A' for Active; 'I' for Inactive)
REMARK    1  A    between atoms: C_11  and  C_4 
REMARK    2  A    between atoms: N_14  and  C_7 
REMARK    3  A    between atoms: C_10  and  C_12 
ROOT
ATOM      1  C   UNL d   1       5.204  -3.575   0.000  0.00  0.00     0.186 A 
ATOM      2  N   UNL d   1       4.487  -3.987   0.000  0.00  0.00    -0.193 N 
ATOM      3  N   UNL d   1       5.204  -2.742   0.000  0.00  0.00    -0.204 NA
ATOM      4  C   UNL d   1       5.817  -4.129   0.000  0.00  0.00     0.140 A 
ATOM      5  N   UNL d   1       4.654  -4.800   0.000  0.00  0.00    -0.058 NA
ATOM      6  N   UNL d   1       5.479  -4.888   0.000  0.00  0.00    -0.127 NA
ATOM      7  C   UNL d   1       4.479  -2.317   0.000  0.00  0.00     0.188 A 
ATOM      8  C   UNL d   1       3.767  -2.742   0.000  0.00  0.00     0.056 A 
ATOM      9  C   UNL d   1       3.763  -3.575   0.000  0.00  0.00     0.089 A 
ATOM     10  C   UNL d   1       3.050  -2.329   0.000  0.00  0.00     0.005 A 
ATOM     11  C   UNL d   1       3.050  -3.979   0.000  0.00  0.00     0.019 A 
ATOM     12  C   UNL d   1       2.337  -2.742   0.000  0.00  0.00     0.000 A 
ATOM     13  C   UNL d   1       2.337  -3.567   0.000  0.00  0.00     0.002 A 
ENDROOT
BRANCH   4  14
ATOM     14  C   UNL d   1       6.625  -3.954   0.000  0.00  0.00     0.022 A 
ATOM     15  C   UNL d   1       7.175  -4.567   0.000  0.00  0.00     0.005 A 
ATOM     16  C   UNL d   1       7.979  -4.400   0.000  0.00  0.00     0.071 A 
ATOM     17  C   UNL d   1       8.238  -3.617   0.000  0.00  0.00     0.004 A 
ATOM     18  C   UNL d   1       7.679  -3.000   0.000  0.00  0.00    -0.000 A 
ATOM     19  C   UNL d   1       6.879  -3.175   0.000  0.00  0.00     0.002 A 
BRANCH  16  20
ATOM     20  C   UNL d   1       8.529  -5.013   0.000  0.00  0.00     0.419 C 
ATOM     21  F   UNL d   1       9.117  -5.592   0.000  0.00  0.00    -0.166 F 
ATOM     22  F   UNL d   1       7.938  -5.579   0.000  0.00  0.00    -0.166 F 
ATOM     23  F   UNL d   1       9.137  -4.442   0.000  0.00  0.00    -0.166 F 
ENDBRANCH  16  20
ENDBRANCH   4  14
BRANCH   7  24
ATOM     24  N   UNL d   1       4.479  -1.492   0.000  0.00  0.00    -0.108 NA
ATOM     25  N   UNL d   1       5.200  -1.079   0.000  0.00  0.00    -0.021 N 
ENDBRANCH   7  24
TORSDOF 3
