REMARK  6 active torsions:
REMARK  status: ('A' for Active; 'I' for Inactive)
REMARK    1  A    between atoms: S_12  and  C_5 
REMARK    2  A    between atoms: C_14  and  C_6 
REMARK    3  A    between atoms: C_10  and  C_13 
REMARK    4  A    between atoms: C_21  and  S_12 
REMARK    5  A    between atoms: C_15  and  C_21 
REMARK       I    between atoms: N_16  and  C_15 
REMARK    6  A    between atoms: C_18  and  N_16 
ROOT
ATOM      1  C   UNL d   1       3.931  -4.426   0.000  0.00  0.00     0.186 A 
ATOM      2  C   UNL d   1       3.931  -3.595   0.000  0.00  0.00     0.065 A 
ATOM      3  N   UNL d   1       4.642  -4.841   0.000  0.00  0.00    -0.203 NA
ATOM      4  N   UNL d   1       5.352  -3.595   0.000  0.00  0.00    -0.220 NA
ATOM      5  C   UNL d   1       4.642  -3.192   0.000  0.00  0.00     0.116 A 
ATOM      6  C   UNL d   1       5.361  -4.426   0.000  0.00  0.00     0.165 A 
ATOM      7  O   UNL d   1       3.221  -4.841   0.000  0.00  0.00    -0.289 OA
ATOM      8  C   UNL d   1       3.216  -3.183   0.000  0.00  0.00     0.007 A 
ATOM      9  C   UNL d   1       2.498  -4.430   0.000  0.00  0.00     0.102 A 
ATOM     10  C   UNL d   1       2.498  -3.603   0.000  0.00  0.00     0.023 A 
ATOM     11  C   UNL d   1       1.795  -4.841   0.000  0.00  0.00     0.025 A 
ATOM     12  C   UNL d   1       1.787  -3.196   0.000  0.00  0.00     0.002 A 
ATOM     13  C   UNL d   1       1.076  -4.442   0.000  0.00  0.00     0.002 A 
ATOM     14  C   UNL d   1       1.072  -3.615   0.000  0.00  0.00     0.000 A 
ENDROOT
BRANCH   5  15
ATOM     15  S   UNL d   1       4.642  -2.360   0.000  0.00  0.00    -0.062 SA
BRANCH  15  16
ATOM     16  C   UNL d   1       5.352  -1.949   0.000  0.00  0.00     0.099 C 
BRANCH  16  17
ATOM     17  C   UNL d   1       6.063  -2.360   0.000  0.00  0.00     0.286 C 
ATOM     18  N   UNL d   1       6.782  -1.949   0.000  0.00  0.00    -0.208 NA
ATOM     19  O   UNL d   1       6.071  -3.183   0.000  0.00  0.00    -0.265 OA
BRANCH  18  20
ATOM     20  C   UNL d   1       7.492  -2.360   0.000  0.00  0.00     0.085 A 
ATOM     21  C   UNL d   1       8.195  -1.945   0.000  0.00  0.00     0.025 A 
ATOM     22  C   UNL d   1       8.905  -2.348   0.000  0.00  0.00     0.066 A 
ATOM     23  C   UNL d   1       8.914  -3.179   0.000  0.00  0.00     0.006 A 
ATOM     24  C   UNL d   1       8.203  -3.590   0.000  0.00  0.00     0.002 A 
ATOM     25  C   UNL d   1       7.484  -3.183   0.000  0.00  0.00     0.019 A 
BRANCH  22  26
ATOM     26  C   UNL d   1       9.624  -1.937   0.000  0.00  0.00     0.211 C 
ATOM     27  O   UNL d   1       9.616  -1.114   0.000  0.00  0.00    -0.644 OA
ATOM     28  O   UNL d   1      10.339  -2.344   0.000  0.00  0.00    -0.644 OA
ENDBRANCH  22  26
ENDBRANCH  18  20
ENDBRANCH  16  17
ENDBRANCH  15  16
ENDBRANCH   5  15
BRANCH   6  29
ATOM     29  C   UNL d   1       6.075  -4.841   0.000  0.00  0.00     0.036 A 
ATOM     30  C   UNL d   1       6.786  -4.426   0.000  0.00  0.00     0.005 A 
ATOM     31  C   UNL d   1       7.505  -4.837   0.000  0.00  0.00     0.030 A 
ATOM     32  C   UNL d   1       7.509  -5.664   0.000  0.00  0.00     0.140 A 
ATOM     33  C   UNL d   1       6.786  -6.084   0.000  0.00  0.00     0.030 A 
ATOM     34  F   UNL d   1       8.220  -6.075   0.000  0.00  0.00    -0.204 F 
ATOM     35  C   UNL d   1       6.075  -5.664   0.000  0.00  0.00     0.005 A 
ENDBRANCH   6  29
TORSDOF 6
