REMARK  4 active torsions:
REMARK  status: ('A' for Active; 'I' for Inactive)
REMARK    1  A    between atoms: C_2  and  S_1 
REMARK    2  A    between atoms: C_15  and  S_1 
REMARK    3  A    between atoms: C_5  and  C_3 
REMARK    4  A    between atoms: C_16  and  C_5 
ROOT
ATOM      1  C   UNL d   1       5.388  -3.125   0.000  0.00  0.00     0.094 A 
ATOM      2  C   UNL d   1       6.104  -3.538   0.000  0.00  0.00     0.069 A 
ATOM      3  C   UNL d   1       4.675  -3.538   0.000  0.00  0.00     0.031 A 
ATOM      4  C   UNL d   1       4.675  -4.362   0.000  0.00  0.00     0.084 A 
ATOM      5  C   UNL d   1       3.962  -3.125   0.000  0.00  0.00     0.029 A 
ATOM      6  N   UNL d   1       5.388  -4.775   0.000  0.00  0.00    -0.244 NA
ATOM      7  C   UNL d   1       6.104  -4.362   0.000  0.00  0.00     0.103 A 
ATOM      8  C   UNL d   1       3.962  -4.775   0.000  0.00  0.00     0.046 A 
ATOM      9  C   UNL d   1       3.250  -3.538   0.000  0.00  0.00     0.123 A 
ATOM     10  C   UNL d   1       3.250  -4.362   0.000  0.00  0.00     0.124 A 
ATOM     11  O   UNL d   1       2.538  -3.125   0.000  0.00  0.00    -0.301 OA
ATOM     12  O   UNL d   1       2.538  -4.775   0.000  0.00  0.00    -0.301 OA
ATOM     13  C   UNL d   1       1.817  -3.538   0.000  0.00  0.00     0.149 A 
ATOM     14  C   UNL d   1       1.817  -4.362   0.000  0.00  0.00     0.149 A 
ENDROOT
BRANCH   1  15
ATOM     15  S   UNL d   1       5.379  -2.300   0.000  0.00  0.00     0.210 S 
ATOM     16  O   UNL d   1       6.204  -2.300   0.000  0.00  0.00    -0.217 OA
ATOM     17  O   UNL d   1       4.554  -2.300   0.000  0.00  0.00    -0.217 OA
BRANCH  15  18
ATOM     18  C   UNL d   1       5.388  -1.475   0.000  0.00  0.00     0.088 A 
ATOM     19  C   UNL d   1       6.104  -1.067   0.000  0.00  0.00     0.011 A 
ATOM     20  C   UNL d   1       6.104  -0.237   0.000  0.00  0.00     0.001 A 
ATOM     21  C   UNL d   1       5.392   0.175   0.000  0.00  0.00     0.000 A 
ATOM     22  C   UNL d   1       4.679  -0.229   0.000  0.00  0.00     0.001 A 
ATOM     23  C   UNL d   1       4.675  -1.062   0.000  0.00  0.00     0.011 A 
ENDBRANCH  15  18
ENDBRANCH   1  15
BRANCH   2  24
ATOM     24  C   UNL d   1       6.825  -3.125   0.000  0.00  0.00     0.198 C 
ATOM     25  O   UNL d   1       6.829  -2.300   0.000  0.00  0.00    -0.286 OA
BRANCH  24  26
ATOM     26  C   UNL d   1       7.537  -3.542   0.000  0.00  0.00     0.039 A 
ATOM     27  C   UNL d   1       8.262  -3.138   0.000  0.00  0.00     0.003 A 
ATOM     28  C   UNL d   1       8.975  -3.554   0.000  0.00  0.00     0.000 A 
ATOM     29  C   UNL d   1       8.975  -4.379   0.000  0.00  0.00     0.000 A 
ATOM     30  C   UNL d   1       8.242  -4.787   0.000  0.00  0.00     0.000 A 
ATOM     31  C   UNL d   1       9.679  -4.800   0.000  0.00  0.00     0.000 C 
ATOM     32  C   UNL d   1       7.529  -4.375   0.000  0.00  0.00     0.003 A 
ENDBRANCH  24  26
ENDBRANCH   2  24
TORSDOF 4
