REMARK  2 active torsions:
REMARK  status: ('A' for Active; 'I' for Inactive)
REMARK    1  A    between atoms: C_6  and  C_1 
REMARK       I    between atoms: N_12  and  C_6 
REMARK    2  A    between atoms: O_15  and  C_13 
ROOT
ATOM      1  C   UNL d   1      -1.237   1.546   0.000  0.00  0.00     0.101 A 
ATOM      2  C   UNL d   1      -1.237   0.726   0.000  0.00  0.00     0.208 A 
ATOM      3  C   UNL d   1      -1.956   1.952   0.000  0.00  0.00     0.011 A 
ATOM      4  O   UNL d   1      -1.952   0.300   0.000  0.00  0.00    -0.288 OA
ATOM      5  C   UNL d   1      -2.670   1.522   0.000  0.00  0.00     0.025 A 
ATOM      6  C   UNL d   1      -2.666   0.722   0.000  0.00  0.00     0.102 A 
ATOM      7  N   UNL d   1      -0.523   0.340   0.000  0.00  0.00    -0.121 N 
ATOM      8  C   UNL d   1      -3.380   1.952   0.000  0.00  0.00     0.026 A 
ATOM      9  C   UNL d   1      -3.369   0.277   0.000  0.00  0.00     0.027 A 
ATOM     10  C   UNL d   1      -4.087   1.507   0.000  0.00  0.00     0.094 A 
ATOM     11  C   UNL d   1      -4.083   0.703   0.000  0.00  0.00     0.026 A 
ENDROOT
BRANCH   1  12
ATOM     12  C   UNL d   1      -0.523   1.956   0.000  0.00  0.00     0.283 C 
ATOM     13  O   UNL d   1      -0.515   2.728   0.000  0.00  0.00    -0.265 OA
ATOM     14  N   UNL d   1       0.203   1.577   0.000  0.00  0.00    -0.205 NA
ATOM     15  C   UNL d   1       0.902   1.998   0.000  0.00  0.00     0.123 C 
ENDBRANCH   1  12
BRANCH  10  16
ATOM     16  O   UNL d   1      -4.797   1.838   0.000  0.00  0.00    -0.328 OA
ATOM     17  C   UNL d   1      -5.558   1.460   0.000  0.00  0.00     0.181 C 
ENDBRANCH  10  16
TORSDOF 2
