REMARK  5 active torsions:
REMARK  status: ('A' for Active; 'I' for Inactive)
REMARK    1  A    between atoms: S_2  and  C_1 
REMARK    2  A    between atoms: C_9  and  S_2 
REMARK    3  A    between atoms: N_14  and  C_10 
REMARK    4  A    between atoms: C_22  and  N_14 
REMARK    5  A    between atoms: C_23  and  N_14 
ROOT
ATOM      1  C   UNL d   1       6.375  -6.138   0.000  0.00  0.00     0.151 A 
ATOM      2  C   UNL d   1       6.375  -6.963   0.000  0.00  0.00     0.311 A 
ATOM      3  C   UNL d   1       5.654  -5.725   0.000  0.00  0.00     0.019 A 
ATOM      4  O   UNL d   1       5.654  -7.375   0.000  0.00  0.00    -0.272 OA
ATOM      5  C   UNL d   1       4.942  -6.963   0.000  0.00  0.00     0.105 A 
ATOM      6  C   UNL d   1       4.942  -6.138   0.000  0.00  0.00     0.024 A 
ATOM      7  C   UNL d   1       4.229  -7.375   0.000  0.00  0.00     0.042 A 
ATOM      8  C   UNL d   1       3.517  -6.963   0.000  0.00  0.00     0.066 A 
ATOM      9  O   UNL d   1       7.092  -7.375   0.000  0.00  0.00    -0.258 OA
ATOM     10  C   UNL d   1       4.229  -5.725   0.000  0.00  0.00     0.004 A 
ATOM     11  C   UNL d   1       3.517  -6.138   0.000  0.00  0.00     0.018 A 
ENDROOT
BRANCH   1  12
ATOM     12  S   UNL d   1       7.092  -5.717   0.000  0.00  0.00     0.215 S 
ATOM     13  O   UNL d   1       7.517  -6.438   0.000  0.00  0.00    -0.217 OA
ATOM     14  O   UNL d   1       6.675  -4.992   0.000  0.00  0.00    -0.217 OA
BRANCH  12  15
ATOM     15  C   UNL d   1       7.817  -5.292   0.000  0.00  0.00     0.088 A 
ATOM     16  C   UNL d   1       8.529  -5.704   0.000  0.00  0.00     0.011 A 
ATOM     17  C   UNL d   1       9.242  -5.292   0.000  0.00  0.00     0.001 A 
ATOM     18  C   UNL d   1       9.242  -4.467   0.000  0.00  0.00     0.000 A 
ATOM     19  C   UNL d   1       8.525  -4.054   0.000  0.00  0.00     0.001 A 
ATOM     20  C   UNL d   1       9.963  -4.042   0.000  0.00  0.00     0.000 C 
ATOM     21  C   UNL d   1       7.812  -4.467   0.000  0.00  0.00     0.011 A 
ENDBRANCH  12  15
ENDBRANCH   1  12
BRANCH   8  22
ATOM     22  N   UNL d   1       2.792  -7.375   0.000  0.00  0.00    -0.304 N 
BRANCH  22  23
ATOM     23  C   UNL d   1       2.079  -6.954   0.000  0.00  0.00     0.080 C 
ATOM     24  C   UNL d   1       2.087  -6.129   0.000  0.00  0.00     0.021 C 
ENDBRANCH  22  23
BRANCH  22  25
ATOM     25  C   UNL d   1       2.792  -8.200   0.000  0.00  0.00     0.080 C 
ATOM     26  C   UNL d   1       2.079  -8.613   0.000  0.00  0.00     0.021 C 
ENDBRANCH  22  25
ENDBRANCH   8  22
TORSDOF 5
