REMARK  5 active torsions:
REMARK  status: ('A' for Active; 'I' for Inactive)
REMARK    1  A    between atoms: S_5  and  C_2 
REMARK    2  A    between atoms: C_16  and  S_5 
REMARK    3  A    between atoms: N_13  and  C_10 
REMARK    4  A    between atoms: C_23  and  N_13 
REMARK    5  A    between atoms: C_18  and  C_23 
ROOT
ATOM      1  C   UNL d   1       5.417  -6.117   0.000  0.00  0.00     0.198 A 
ATOM      2  C   UNL d   1       6.029  -6.667   0.000  0.00  0.00     0.227 A 
ATOM      3  N   UNL d   1       4.704  -6.529   0.000  0.00  0.00    -0.192 N 
ATOM      4  N   UNL d   1       5.417  -5.292   0.000  0.00  0.00    -0.205 NA
ATOM      5  N   UNL d   1       5.700  -7.417   0.000  0.00  0.00    -0.115 NA
ATOM      6  N   UNL d   1       4.879  -7.338   0.000  0.00  0.00    -0.058 NA
ATOM      7  C   UNL d   1       3.992  -6.117   0.000  0.00  0.00     0.096 A 
ATOM      8  C   UNL d   1       3.992  -5.292   0.000  0.00  0.00     0.083 A 
ATOM      9  C   UNL d   1       4.700  -4.875   0.000  0.00  0.00     0.172 A 
ATOM     10  S   UNL d   1       3.200  -5.029   0.000  0.00  0.00    -0.082 SA
ATOM     11  C   UNL d   1       3.200  -6.379   0.000  0.00  0.00     0.027 A 
ATOM     12  C   UNL d   1       2.712  -5.704   0.000  0.00  0.00     0.037 A 
ENDROOT
BRANCH   2  13
ATOM     13  S   UNL d   1       6.842  -6.492   0.000  0.00  0.00     0.231 S 
ATOM     14  O   UNL d   1       7.037  -7.300   0.000  0.00  0.00    -0.215 OA
ATOM     15  O   UNL d   1       6.642  -5.688   0.000  0.00  0.00    -0.215 OA
BRANCH  13  16
ATOM     16  C   UNL d   1       7.642  -6.279   0.000  0.00  0.00     0.090 A 
ATOM     17  C   UNL d   1       8.229  -6.854   0.000  0.00  0.00     0.011 A 
ATOM     18  C   UNL d   1       9.025  -6.642   0.000  0.00  0.00     0.001 A 
ATOM     19  C   UNL d   1       9.238  -5.842   0.000  0.00  0.00     0.000 A 
ATOM     20  C   UNL d   1       8.642  -5.254   0.000  0.00  0.00     0.001 A 
ATOM     21  C   UNL d   1       7.842  -5.479   0.000  0.00  0.00     0.011 A 
ENDBRANCH  13  16
ENDBRANCH   2  13
BRANCH   9  22
ATOM     22  N   UNL d   1       4.700  -4.042   0.000  0.00  0.00    -0.223 NA
BRANCH  22  23
ATOM     23  C   UNL d   1       3.987  -3.629   0.000  0.00  0.00     0.125 C 
BRANCH  23  24
ATOM     24  C   UNL d   1       3.987  -2.804   0.000  0.00  0.00     0.119 A 
ATOM     25  O   UNL d   1       4.650  -2.317   0.000  0.00  0.00    -0.304 OA
ATOM     26  C   UNL d   1       4.392  -1.529   0.000  0.00  0.00     0.123 A 
ATOM     27  C   UNL d   1       3.567  -1.529   0.000  0.00  0.00     0.029 A 
ATOM     28  C   UNL d   1       3.317  -2.317   0.000  0.00  0.00     0.028 A 
ENDBRANCH  23  24
ENDBRANCH  22  23
ENDBRANCH   9  22
TORSDOF 5
