REMARK  5 active torsions:
REMARK  status: ('A' for Active; 'I' for Inactive)
REMARK    1  A    between atoms: C_10  and  C_4 
REMARK    2  A    between atoms: N_11  and  C_7 
REMARK    3  A    between atoms: C_13  and  N_11 
REMARK    4  A    between atoms: C_15  and  C_13 
REMARK    5  A    between atoms: O_25  and  C_17 
ROOT
ATOM      1  C   UNL d   1       5.892  -9.029   0.000  0.00  0.00     0.186 A 
ATOM      2  N   UNL d   1       5.167  -9.450   0.000  0.00  0.00    -0.193 N 
ATOM      3  N   UNL d   1       5.879  -8.200   0.000  0.00  0.00    -0.206 NA
ATOM      4  C   UNL d   1       6.504  -9.588   0.000  0.00  0.00     0.140 A 
ATOM      5  N   UNL d   1       5.342 -10.262   0.000  0.00  0.00    -0.058 NA
ATOM      6  N   UNL d   1       6.167 -10.342   0.000  0.00  0.00    -0.127 NA
ATOM      7  C   UNL d   1       5.167  -7.787   0.000  0.00  0.00     0.166 A 
ATOM      8  C   UNL d   1       4.454  -8.213   0.000  0.00  0.00     0.054 A 
ATOM      9  C   UNL d   1       4.454  -9.037   0.000  0.00  0.00     0.089 A 
ATOM     10  C   UNL d   1       3.742  -7.800   0.000  0.00  0.00     0.005 A 
ATOM     11  C   UNL d   1       3.742  -9.450   0.000  0.00  0.00     0.019 A 
ATOM     12  C   UNL d   1       3.029  -8.213   0.000  0.00  0.00     0.000 A 
ATOM     13  C   UNL d   1       3.029  -9.037   0.000  0.00  0.00     0.002 A 
ENDROOT
BRANCH   7  14
ATOM     14  N   UNL d   1       5.154  -6.963   0.000  0.00  0.00    -0.225 NA
BRANCH  14  15
ATOM     15  C   UNL d   1       5.867  -6.542   0.000  0.00  0.00     0.101 C 
BRANCH  15  16
ATOM     16  C   UNL d   1       5.867  -5.717   0.000  0.00  0.00     0.019 A 
ATOM     17  C   UNL d   1       6.579  -5.304   0.000  0.00  0.00     0.004 A 
ATOM     18  C   UNL d   1       6.579  -4.479   0.000  0.00  0.00     0.024 A 
ATOM     19  C   UNL d   1       5.854  -4.067   0.000  0.00  0.00     0.094 A 
ATOM     20  C   UNL d   1       5.142  -4.492   0.000  0.00  0.00     0.024 A 
ATOM     21  C   UNL d   1       5.154  -5.317   0.000  0.00  0.00     0.004 A 
BRANCH  19  22
ATOM     22  O   UNL d   1       5.850  -3.242   0.000  0.00  0.00    -0.328 OA
ATOM     23  C   UNL d   1       5.129  -2.837   0.000  0.00  0.00     0.181 C 
ENDBRANCH  19  22
ENDBRANCH  15  16
ENDBRANCH  14  15
ENDBRANCH   7  14
BRANCH   4  24
ATOM     24  C   UNL d   1       7.304  -9.412   0.000  0.00  0.00     0.025 A 
ATOM     25  C   UNL d   1       7.854 -10.025   0.000  0.00  0.00     0.031 A 
ATOM     26  C   UNL d   1       8.667  -9.854   0.000  0.00  0.00     0.140 A 
ATOM     27  F   UNL d   1       9.217 -10.467   0.000  0.00  0.00    -0.204 F 
ATOM     28  C   UNL d   1       8.917  -9.067   0.000  0.00  0.00     0.030 A 
ATOM     29  C   UNL d   1       8.354  -8.454   0.000  0.00  0.00     0.002 A 
ATOM     30  C   UNL d   1       7.554  -8.629   0.000  0.00  0.00     0.002 A 
ENDBRANCH   4  24
TORSDOF 5
