REMARK  13 active torsions:
REMARK  status: ('A' for Active; 'I' for Inactive)
REMARK    1  A    between atoms: C_21  and  N_1 
REMARK    2  A    between atoms: C_7  and  N_3 
REMARK    3  A    between atoms: C_8  and  C_7 
REMARK       I    between atoms: N_12  and  C_8 
REMARK    4  A    between atoms: C_11  and  C_22 
REMARK    5  A    between atoms: C_26  and  N_12 
REMARK    6  A    between atoms: C_27  and  N_12 
REMARK    7  A    between atoms: C_13  and  C_25 
REMARK       I    between atoms: N_15  and  C_13 
REMARK    8  A    between atoms: C_22  and  N_15 
REMARK    9  A    between atoms: C_28  and  C_21 
REMARK   10  A    between atoms: C_25  and  C_31 
REMARK   11  A    between atoms: C_29  and  C_26 
REMARK   12  A    between atoms: C_30  and  C_27 
REMARK   13  A    between atoms: C_31  and  C_28 
ROOT
ATOM      1  N   UNL d   1       5.200  -6.875   0.000  0.00  0.00    -0.226 N 
ATOM      2  C   UNL d   1       5.200  -7.700   0.000  0.00  0.00     0.342 A 
ATOM      3  N   UNL d   1       4.479  -8.113   0.000  0.00  0.00    -0.254 N 
ATOM      4  C   UNL d   1       4.479  -6.463   0.000  0.00  0.00     0.270 A 
ATOM      5  C   UNL d   1       3.767  -6.875   0.000  0.00  0.00     0.073 A 
ATOM      6  C   UNL d   1       3.767  -7.700   0.000  0.00  0.00     0.073 A 
ATOM      7  O   UNL d   1       5.917  -8.117   0.000  0.00  0.00    -0.245 OA
ATOM      8  O   UNL d   1       4.479  -5.638   0.000  0.00  0.00    -0.266 OA
ATOM      9  C   UNL d   1       3.054  -6.463   0.000  0.00  0.00     0.006 A 
ATOM     10  C   UNL d   1       3.054  -8.113   0.000  0.00  0.00     0.018 A 
ATOM     11  C   UNL d   1       2.342  -6.875   0.000  0.00  0.00     0.000 A 
ATOM     12  C   UNL d   1       2.342  -7.700   0.000  0.00  0.00     0.002 A 
ENDROOT
BRANCH   1  13
ATOM     13  C   UNL d   1       5.917  -6.463   0.000  0.00  0.00     0.087 C 
BRANCH  13  14
ATOM     14  C   UNL d   1       5.925  -5.638   0.000  0.00  0.00     0.019 C 
BRANCH  14  15
ATOM     15  C   UNL d   1       6.638  -5.225   0.000  0.00  0.00     0.006 C 
BRANCH  15  16
ATOM     16  C   UNL d   1       6.638  -4.392   0.000  0.00  0.00     0.063 C 
BRANCH  16  17
ATOM     17  C   UNL d   1       7.350  -3.979   0.000  0.00  0.00     0.279 C 
ATOM     18  N   UNL d   1       7.350  -3.154   0.000  0.00  0.00    -0.204 NA
ATOM     19  O   UNL d   1       8.067  -4.392   0.000  0.00  0.00    -0.265 OA
BRANCH  18  20
ATOM     20  C   UNL d   1       8.062  -2.742   0.000  0.00  0.00     0.127 C 
BRANCH  20  21
ATOM     21  C   UNL d   1       8.062  -1.913   0.000  0.00  0.00     0.119 A 
ATOM     22  O   UNL d   1       8.738  -1.429   0.000  0.00  0.00    -0.304 OA
ATOM     23  C   UNL d   1       8.479  -0.637   0.000  0.00  0.00     0.123 A 
ATOM     24  C   UNL d   1       7.650  -0.637   0.000  0.00  0.00     0.029 A 
ATOM     25  C   UNL d   1       7.392  -1.425   0.000  0.00  0.00     0.028 A 
ENDBRANCH  20  21
ENDBRANCH  18  20
ENDBRANCH  16  17
ENDBRANCH  15  16
ENDBRANCH  14  15
ENDBRANCH  13  14
ENDBRANCH   1  13
BRANCH   3  26
ATOM     26  C   UNL d   1       4.479  -8.938   0.000  0.00  0.00     0.146 C 
BRANCH  26  27
ATOM     27  C   UNL d   1       5.192  -9.350   0.000  0.00  0.00     0.283 C 
ATOM     28  N   UNL d   1       5.192 -10.179   0.000  0.00  0.00    -0.271 N 
ATOM     29  O   UNL d   1       5.904  -8.938   0.000  0.00  0.00    -0.265 OA
BRANCH  28  30
ATOM     30  C   UNL d   1       5.904 -10.592   0.000  0.00  0.00     0.083 C 
BRANCH  30  31
ATOM     31  C   UNL d   1       5.904 -11.417   0.000  0.00  0.00     0.019 C 
ATOM     32  C   UNL d   1       6.617 -11.829   0.000  0.00  0.00     0.002 C 
ENDBRANCH  30  31
ENDBRANCH  28  30
BRANCH  28  33
ATOM     33  C   UNL d   1       4.479 -10.592   0.000  0.00  0.00     0.083 C 
BRANCH  33  34
ATOM     34  C   UNL d   1       3.767 -10.179   0.000  0.00  0.00     0.019 C 
ATOM     35  C   UNL d   1       3.050 -10.592   0.000  0.00  0.00     0.002 C 
ENDBRANCH  33  34
ENDBRANCH  28  33
ENDBRANCH  26  27
ENDBRANCH   3  26
TORSDOF 13
