REMARK  4 active torsions:
REMARK  status: ('A' for Active; 'I' for Inactive)
REMARK    1  A    between atoms: C_10  and  N_2 
REMARK    2  A    between atoms: C_7  and  N_4 
REMARK    3  A    between atoms: C_11  and  C_7 
REMARK    4  A    between atoms: O_22  and  C_18 
ROOT
ATOM      1  S   UNL d   1       4.244  -0.178   0.000  0.00  0.00     0.276 S 
ATOM      2  N   UNL d   1       4.963  -0.587   0.000  0.00  0.00    -0.184 N 
ATOM      3  C   UNL d   1       4.963  -1.419   0.000  0.00  0.00     0.348 A 
ATOM      4  N   UNL d   1       4.244  -1.828   0.000  0.00  0.00    -0.258 N 
ATOM      5  C   UNL d   1       3.528  -0.587   0.000  0.00  0.00     0.120 A 
ATOM      6  C   UNL d   1       3.528  -1.419   0.000  0.00  0.00     0.081 A 
ATOM      7  O   UNL d   1       3.710   0.467   0.000  0.00  0.00    -0.199 OA
ATOM      8  O   UNL d   1       4.881   0.356   0.000  0.00  0.00    -0.199 OA
ATOM      9  O   UNL d   1       5.687  -1.841   0.000  0.00  0.00    -0.245 OA
ATOM     10  C   UNL d   1       2.817  -0.178   0.000  0.00  0.00     0.014 A 
ATOM     11  C   UNL d   1       2.817  -1.836   0.000  0.00  0.00     0.018 A 
ATOM     12  C   UNL d   1       2.097  -0.587   0.000  0.00  0.00     0.001 A 
ATOM     13  C   UNL d   1       2.097  -1.419   0.000  0.00  0.00     0.002 A 
ENDROOT
BRANCH   2  14
ATOM     14  C   UNL d   1       5.675  -0.178   0.000  0.00  0.00     0.079 A 
ATOM     15  C   UNL d   1       6.394  -0.587   0.000  0.00  0.00     0.020 A 
ATOM     16  C   UNL d   1       7.110  -0.178   0.000  0.00  0.00     0.026 A 
ATOM     17  C   UNL d   1       7.110   0.653   0.000  0.00  0.00     0.094 A 
ATOM     18  C   UNL d   1       6.394   1.067   0.000  0.00  0.00     0.026 A 
ATOM     19  C   UNL d   1       5.675   0.653   0.000  0.00  0.00     0.020 A 
BRANCH  17  20
ATOM     20  O   UNL d   1       7.834   1.075   0.000  0.00  0.00    -0.328 OA
ATOM     21  C   UNL d   1       7.830   1.894   0.000  0.00  0.00     0.181 C 
ENDBRANCH  17  20
ENDBRANCH   2  14
BRANCH   4  22
ATOM     22  C   UNL d   1       4.244  -2.659   0.000  0.00  0.00     0.087 C 
BRANCH  22  23
ATOM     23  C   UNL d   1       4.955  -3.069   0.000  0.00  0.00     0.045 A 
ATOM     24  C   UNL d   1       4.943  -3.888   0.000  0.00  0.00     0.141 A 
ATOM     25  F   UNL d   1       4.235  -4.297   0.000  0.00  0.00    -0.204 F 
ATOM     26  C   UNL d   1       5.658  -4.297   0.000  0.00  0.00     0.030 A 
ATOM     27  C   UNL d   1       6.370  -3.888   0.000  0.00  0.00     0.002 A 
ATOM     28  C   UNL d   1       6.370  -3.069   0.000  0.00  0.00     0.000 A 
ATOM     29  C   UNL d   1       5.662  -2.659   0.000  0.00  0.00     0.004 A 
ENDBRANCH  22  23
ENDBRANCH   4  22
TORSDOF 4
