REMARK  6 active torsions:
REMARK  status: ('A' for Active; 'I' for Inactive)
REMARK    1  A    between atoms: S_12  and  C_5 
REMARK    2  A    between atoms: C_16  and  C_6 
REMARK    3  A    between atoms: C_10  and  C_14 
REMARK    4  A    between atoms: C_19  and  S_12 
REMARK    5  A    between atoms: C_13  and  C_19 
REMARK       I    between atoms: N_15  and  C_13 
REMARK    6  A    between atoms: C_22  and  N_15 
ROOT
ATOM      1  C   UNL d   1      -1.844  -0.486   0.000  0.00  0.00     0.186 A 
ATOM      2  C   UNL d   1      -1.844   0.345   0.000  0.00  0.00     0.065 A 
ATOM      3  N   UNL d   1      -1.134  -0.901   0.000  0.00  0.00    -0.203 NA
ATOM      4  N   UNL d   1      -0.424   0.345   0.000  0.00  0.00    -0.220 NA
ATOM      5  C   UNL d   1      -1.134   0.748   0.000  0.00  0.00     0.116 A 
ATOM      6  C   UNL d   1      -0.419  -0.486   0.000  0.00  0.00     0.165 A 
ATOM      7  O   UNL d   1      -2.563  -0.901   0.000  0.00  0.00    -0.289 OA
ATOM      8  C   UNL d   1      -2.563   0.756   0.000  0.00  0.00     0.007 A 
ATOM      9  C   UNL d   1      -3.278  -0.498   0.000  0.00  0.00     0.102 A 
ATOM     10  C   UNL d   1      -3.278   0.337   0.000  0.00  0.00     0.023 A 
ATOM     11  C   UNL d   1      -3.984  -0.901   0.000  0.00  0.00     0.025 A 
ATOM     12  C   UNL d   1      -3.996   0.744   0.000  0.00  0.00     0.002 A 
ATOM     13  C   UNL d   1      -4.707   0.324   0.000  0.00  0.00     0.000 A 
ATOM     14  C   UNL d   1      -4.707  -0.503   0.000  0.00  0.00     0.002 A 
ENDROOT
BRANCH   5  15
ATOM     15  S   UNL d   1      -1.142   1.579   0.000  0.00  0.00    -0.062 SA
BRANCH  15  16
ATOM     16  C   UNL d   1      -0.424   1.990   0.000  0.00  0.00     0.099 C 
BRANCH  16  17
ATOM     17  C   UNL d   1       0.287   1.579   0.000  0.00  0.00     0.286 C 
ATOM     18  N   UNL d   1       0.997   1.990   0.000  0.00  0.00    -0.208 NA
ATOM     19  O   UNL d   1       0.291   0.756   0.000  0.00  0.00    -0.265 OA
BRANCH  18  20
ATOM     20  C   UNL d   1       1.712   1.579   0.000  0.00  0.00     0.085 A 
ATOM     21  C   UNL d   1       2.418   1.994   0.000  0.00  0.00     0.019 A 
ATOM     22  C   UNL d   1       3.128   1.591   0.000  0.00  0.00     0.008 A 
ATOM     23  C   UNL d   1       3.132   0.760   0.000  0.00  0.00     0.065 A 
ATOM     24  C   UNL d   1       2.422   0.349   0.000  0.00  0.00     0.008 A 
ATOM     25  C   UNL d   1       1.707   0.756   0.000  0.00  0.00     0.019 A 
BRANCH  23  26
ATOM     26  C   UNL d   1       3.843   0.349   0.000  0.00  0.00     0.211 C 
ATOM     27  O   UNL d   1       4.553   0.768   0.000  0.00  0.00    -0.644 OA
ATOM     28  O   UNL d   1       3.851  -0.474   0.000  0.00  0.00    -0.644 OA
ENDBRANCH  23  26
ENDBRANCH  18  20
ENDBRANCH  16  17
ENDBRANCH  15  16
ENDBRANCH   5  15
BRANCH   6  29
ATOM     29  C   UNL d   1       0.291  -0.901   0.000  0.00  0.00     0.036 A 
ATOM     30  C   UNL d   1       1.010  -0.486   0.000  0.00  0.00     0.003 A 
ATOM     31  C   UNL d   1       1.724  -0.897   0.000  0.00  0.00     0.000 A 
ATOM     32  C   UNL d   1       1.724  -1.724   0.000  0.00  0.00     0.000 A 
ATOM     33  C   UNL d   1       1.010  -2.143   0.000  0.00  0.00     0.000 A 
ATOM     34  C   UNL d   1       0.291  -1.724   0.000  0.00  0.00     0.003 A 
ENDBRANCH   6  29
TORSDOF 6
