REMARK  4 active torsions:
REMARK  status: ('A' for Active; 'I' for Inactive)
REMARK    1  A    between atoms: C_2  and  N_1 
REMARK       I    between atoms: C_3  and  N_1 
REMARK    2  A    between atoms: N_5  and  C_2 
REMARK    3  A    between atoms: C_4  and  C_3 
REMARK    4  A    between atoms: C_7  and  N_5 
ROOT
ATOM      1  C   UNL d   1       0.226  -1.353   0.000  0.00  0.00     0.224 C 
ATOM      2  S   UNL d   1       0.226  -2.179   0.000  0.00  0.00    -0.037 SA
ENDROOT
BRANCH   1   3
ATOM      3  N   UNL d   1       0.939  -0.939   0.000  0.00  0.00    -0.177 NA
ATOM      4  C   UNL d   1       1.658  -1.345   0.000  0.00  0.00     0.304 C 
ATOM      5  O   UNL d   1       1.658  -2.171   0.000  0.00  0.00    -0.263 OA
BRANCH   4   6
ATOM      6  C   UNL d   1       2.372  -0.931   0.000  0.00  0.00     0.158 A 
ATOM      7  O   UNL d   1       2.447  -0.104   0.000  0.00  0.00    -0.300 OA
ATOM      8  C   UNL d   1       3.261   0.063   0.000  0.00  0.00     0.123 A 
ATOM      9  C   UNL d   1       3.674  -0.651   0.000  0.00  0.00     0.029 A 
ATOM     10  C   UNL d   1       3.123  -1.265   0.000  0.00  0.00     0.032 A 
ENDBRANCH   4   6
ENDBRANCH   1   3
BRANCH   1  11
ATOM     11  N   UNL d   1      -0.497  -0.944   0.000  0.00  0.00    -0.215 NA
BRANCH  11  12
ATOM     12  C   UNL d   1      -1.211  -1.357   0.000  0.00  0.00     0.112 A 
ATOM     13  C   UNL d   1      -1.211  -2.192   0.000  0.00  0.00     0.156 A 
ATOM     14  N   UNL d   1      -1.925  -2.605   0.000  0.00  0.00    -0.231 NA
ATOM     15 CL   UNL d   1      -0.488  -2.605   0.000  0.00  0.00    -0.060 Cl
ATOM     16  C   UNL d   1      -2.639  -2.192   0.000  0.00  0.00     0.100 A 
ATOM     17  C   UNL d   1      -2.639  -1.365   0.000  0.00  0.00     0.022 A 
ATOM     18  C   UNL d   1      -1.925  -0.944   0.000  0.00  0.00     0.023 A 
ENDBRANCH  11  12
ENDBRANCH   1  11
TORSDOF 4
