REMARK  6 active torsions:
REMARK  status: ('A' for Active; 'I' for Inactive)
REMARK    1  A    between atoms: C_2  and  S_1 
REMARK    2  A    between atoms: C_13  and  S_1 
REMARK    3  A    between atoms: C_5  and  C_3 
REMARK    4  A    between atoms: C_16  and  C_5 
REMARK    5  A    between atoms: O_30  and  C_24 
REMARK    6  A    between atoms: C_33  and  O_30 
ROOT
ATOM      1  C   UNL d   1       2.504  -1.150   0.000  0.00  0.00     0.094 A 
ATOM      2  C   UNL d   1       3.217  -1.562   0.000  0.00  0.00     0.069 A 
ATOM      3  C   UNL d   1       1.792  -1.562   0.000  0.00  0.00     0.031 A 
ATOM      4  C   UNL d   1       1.792  -2.388   0.000  0.00  0.00     0.084 A 
ATOM      5  C   UNL d   1       1.079  -1.150   0.000  0.00  0.00     0.029 A 
ATOM      6  N   UNL d   1       2.504  -2.800   0.000  0.00  0.00    -0.244 NA
ATOM      7  C   UNL d   1       3.217  -2.388   0.000  0.00  0.00     0.103 A 
ATOM      8  C   UNL d   1       1.079  -2.800   0.000  0.00  0.00     0.046 A 
ATOM      9  C   UNL d   1       0.367  -1.562   0.000  0.00  0.00     0.123 A 
ATOM     10  C   UNL d   1       0.367  -2.388   0.000  0.00  0.00     0.124 A 
ATOM     11  O   UNL d   1      -0.346  -1.150   0.000  0.00  0.00    -0.301 OA
ATOM     12  O   UNL d   1      -0.346  -2.800   0.000  0.00  0.00    -0.301 OA
ATOM     13  C   UNL d   1      -1.071  -1.562   0.000  0.00  0.00     0.149 A 
ATOM     14  C   UNL d   1      -1.071  -2.388   0.000  0.00  0.00     0.149 A 
ENDROOT
BRANCH   1  15
ATOM     15  S   UNL d   1       2.500  -0.325   0.000  0.00  0.00     0.210 S 
ATOM     16  O   UNL d   1       1.675  -0.325   0.000  0.00  0.00    -0.217 OA
ATOM     17  O   UNL d   1       3.325  -0.325   0.000  0.00  0.00    -0.217 OA
BRANCH  15  18
ATOM     18  C   UNL d   1       2.504   0.500   0.000  0.00  0.00     0.088 A 
ATOM     19  C   UNL d   1       3.217   0.908   0.000  0.00  0.00     0.013 A 
ATOM     20  C   UNL d   1       3.217   1.738   0.000  0.00  0.00     0.025 A 
ATOM     21  C   UNL d   1       2.504   2.150   0.000  0.00  0.00     0.100 A 
ATOM     22  C   UNL d   1       1.792   1.746   0.000  0.00  0.00     0.025 A 
ATOM     23  C   UNL d   1       1.792   0.912   0.000  0.00  0.00     0.013 A 
BRANCH  21  24
ATOM     24  O   UNL d   1       2.504   2.983   0.000  0.00  0.00    -0.305 OA
BRANCH  24  25
ATOM     25  C   UNL d   1       1.792   3.396   0.000  0.00  0.00     0.123 C 
ATOM     26  C   UNL d   1       1.079   2.983   0.000  0.00  0.00     0.029 C 
ENDBRANCH  24  25
ENDBRANCH  21  24
ENDBRANCH  15  18
ENDBRANCH   1  15
BRANCH   2  27
ATOM     27  C   UNL d   1       3.942  -1.150   0.000  0.00  0.00     0.198 C 
ATOM     28  O   UNL d   1       3.942  -0.325   0.000  0.00  0.00    -0.286 OA
BRANCH  27  29
ATOM     29  C   UNL d   1       4.654  -1.567   0.000  0.00  0.00     0.039 A 
ATOM     30  C   UNL d   1       5.379  -1.163   0.000  0.00  0.00     0.003 A 
ATOM     31  C   UNL d   1       6.092  -1.579   0.000  0.00  0.00     0.000 A 
ATOM     32  C   UNL d   1       6.092  -2.404   0.000  0.00  0.00     0.000 A 
ATOM     33  C   UNL d   1       5.354  -2.812   0.000  0.00  0.00     0.000 A 
ATOM     34  C   UNL d   1       6.800  -2.825   0.000  0.00  0.00     0.000 C 
ATOM     35  C   UNL d   1       4.642  -2.400   0.000  0.00  0.00     0.003 A 
ENDBRANCH  27  29
ENDBRANCH   2  27
TORSDOF 6
