REMARK  6 active torsions:
REMARK  status: ('A' for Active; 'I' for Inactive)
REMARK    1  A    between atoms: C_6  and  C_1 
REMARK    2  A    between atoms: C_9  and  N_3 
REMARK       I    between atoms: N_7  and  C_6 
REMARK    3  A    between atoms: C_8  and  N_7 
REMARK    4  A    between atoms: C_10  and  C_9 
REMARK    5  A    between atoms: O_25  and  C_15 
REMARK    6  A    between atoms: O_26  and  C_20 
ROOT
ATOM      1  C   UNL d   1       5.649  -5.520   0.000  0.00  0.00     0.199 A 
ATOM      2  C   UNL d   1       4.828  -5.520   0.000  0.00  0.00     0.211 A 
ATOM      3  N   UNL d   1       4.575  -4.737   0.000  0.00  0.00    -0.190 N 
ATOM      4  N   UNL d   1       5.910  -4.737   0.000  0.00  0.00    -0.122 NA
ATOM      5  N   UNL d   1       5.239  -4.244   0.000  0.00  0.00    -0.058 NA
ATOM      6  N   UNL d   1       4.343  -6.184   0.000  0.00  0.00    -0.125 N 
ENDROOT
BRANCH   1   7
ATOM      7  C   UNL d   1       6.134  -6.184   0.000  0.00  0.00     0.302 C 
ATOM      8  N   UNL d   1       6.954  -6.096   0.000  0.00  0.00    -0.204 NA
ATOM      9  O   UNL d   1       5.798  -6.942   0.000  0.00  0.00    -0.263 OA
BRANCH   8  10
ATOM     10  C   UNL d   1       7.439  -6.768   0.000  0.00  0.00     0.109 A 
ATOM     11  C   UNL d   1       7.104  -7.522   0.000  0.00  0.00     0.045 A 
ATOM     12  C   UNL d   1       7.584  -8.185   0.000  0.00  0.00     0.096 A 
ATOM     13  C   UNL d   1       8.405  -8.107   0.000  0.00  0.00     0.026 A 
ATOM     14  C   UNL d   1       8.745  -7.348   0.000  0.00  0.00     0.028 A 
ATOM     15  C   UNL d   1       8.256  -6.681   0.000  0.00  0.00     0.112 A 
BRANCH  12  16
ATOM     16  O   UNL d   1       7.249  -8.940   0.000  0.00  0.00    -0.328 OA
ATOM     17  C   UNL d   1       7.725  -9.603   0.000  0.00  0.00     0.181 C 
ENDBRANCH  12  16
BRANCH  15  18
ATOM     18  O   UNL d   1       8.583  -5.931   0.000  0.00  0.00    -0.327 OA
ATOM     19  C   UNL d   1       8.098  -5.263   0.000  0.00  0.00     0.181 C 
ENDBRANCH  15  18
ENDBRANCH   8  10
ENDBRANCH   1   7
BRANCH   3  20
ATOM     20  C   UNL d   1       3.796  -4.480   0.000  0.00  0.00     0.106 C 
BRANCH  20  21
ATOM     21  C   UNL d   1       3.618  -3.672   0.000  0.00  0.00     0.047 A 
ATOM     22  C   UNL d   1       2.839  -3.423   0.000  0.00  0.00     0.142 A 
ATOM     23  C   UNL d   1       2.665  -2.615   0.000  0.00  0.00     0.036 A 
ATOM     24  F   UNL d   1       2.226  -3.970   0.000  0.00  0.00    -0.204 F 
ATOM     25  C   UNL d   1       3.274  -2.056   0.000  0.00  0.00     0.037 A 
ATOM     26  C   UNL d   1       4.066  -2.317   0.000  0.00  0.00     0.007 A 
ATOM     27 BR   UNL d   1       3.108  -1.248   0.000  0.00  0.00    -0.049 Br
ATOM     28  C   UNL d   1       4.231  -3.125   0.000  0.00  0.00     0.004 A 
ENDBRANCH  20  21
ENDBRANCH   3  20
TORSDOF 6
