REMARK  4 active torsions:
REMARK  status: ('A' for Active; 'I' for Inactive)
REMARK    1  A    between atoms: S_5  and  C_2 
REMARK    2  A    between atoms: C_14  and  S_5 
REMARK    3  A    between atoms: N_11  and  C_8 
REMARK    4  A    between atoms: C_15  and  N_11 
ROOT
ATOM      1  C   UNL d   1       5.504  -7.467   0.000  0.00  0.00     0.197 A 
ATOM      2  C   UNL d   1       6.117  -8.017   0.000  0.00  0.00     0.227 A 
ATOM      3  N   UNL d   1       4.787  -7.879   0.000  0.00  0.00    -0.192 N 
ATOM      4  N   UNL d   1       5.504  -6.638   0.000  0.00  0.00    -0.206 NA
ATOM      5  N   UNL d   1       5.779  -8.779   0.000  0.00  0.00    -0.115 NA
ATOM      6  N   UNL d   1       4.954  -8.688   0.000  0.00  0.00    -0.058 NA
ATOM      7  C   UNL d   1       4.787  -6.217   0.000  0.00  0.00     0.166 A 
ATOM      8  C   UNL d   1       4.075  -6.638   0.000  0.00  0.00     0.054 A 
ATOM      9  C   UNL d   1       4.067  -7.463   0.000  0.00  0.00     0.089 A 
ATOM     10  C   UNL d   1       3.354  -6.225   0.000  0.00  0.00     0.005 A 
ATOM     11  C   UNL d   1       3.354  -7.879   0.000  0.00  0.00     0.019 A 
ATOM     12  C   UNL d   1       2.642  -6.638   0.000  0.00  0.00     0.000 A 
ATOM     13  C   UNL d   1       2.642  -7.467   0.000  0.00  0.00     0.002 A 
ENDROOT
BRANCH   2  14
ATOM     14  S   UNL d   1       6.925  -7.854   0.000  0.00  0.00     0.231 S 
ATOM     15  O   UNL d   1       7.117  -8.654   0.000  0.00  0.00    -0.215 OA
ATOM     16  O   UNL d   1       6.729  -7.050   0.000  0.00  0.00    -0.215 OA
BRANCH  14  17
ATOM     17  C   UNL d   1       7.717  -7.638   0.000  0.00  0.00     0.090 A 
ATOM     18  C   UNL d   1       7.925  -6.842   0.000  0.00  0.00     0.011 A 
ATOM     19  C   UNL d   1       8.713  -6.617   0.000  0.00  0.00     0.001 A 
ATOM     20  C   UNL d   1       9.304  -7.200   0.000  0.00  0.00     0.000 A 
ATOM     21  C   UNL d   1       9.092  -8.000   0.000  0.00  0.00     0.001 A 
ATOM     22  C   UNL d   1       8.304  -8.217   0.000  0.00  0.00     0.011 A 
ENDBRANCH  14  17
ENDBRANCH   2  14
BRANCH   7  23
ATOM     23  N   UNL d   1       4.787  -5.392   0.000  0.00  0.00    -0.227 NA
BRANCH  23  24
ATOM     24  C   UNL d   1       4.075  -4.979   0.000  0.00  0.00     0.083 A 
ATOM     25  C   UNL d   1       4.075  -4.154   0.000  0.00  0.00     0.019 A 
ATOM     26  C   UNL d   1       3.362  -3.742   0.000  0.00  0.00     0.002 A 
ATOM     27  C   UNL d   1       3.362  -2.917   0.000  0.00  0.00     0.000 C 
ATOM     28  C   UNL d   1       2.642  -4.154   0.000  0.00  0.00     0.000 A 
ATOM     29  C   UNL d   1       2.650  -4.987   0.000  0.00  0.00     0.002 A 
ATOM     30  C   UNL d   1       3.362  -5.392   0.000  0.00  0.00     0.019 A 
ENDBRANCH  23  24
ENDBRANCH   7  23
TORSDOF 4
