REMARK  6 active torsions:
REMARK  status: ('A' for Active; 'I' for Inactive)
REMARK    1  A    between atoms: C_7  and  C_1 
REMARK    2  A    between atoms: C_9  and  N_2 
REMARK    3  A    between atoms: C_18  and  C_7 
REMARK    4  A    between atoms: C_8  and  C_9 
REMARK       I    between atoms: N_14  and  C_8 
REMARK    5  A    between atoms: C_16  and  N_14 
REMARK    6  A    between atoms: C_29  and  C_23 
ROOT
ATOM      1  C   UNL d   1       1.545   1.323   0.000  0.00  0.00     0.095 A 
ATOM      2  N   UNL d   1       0.818   0.071   0.000  0.00  0.00    -0.300 N 
ATOM      3  C   UNL d   1       0.831   1.737   0.000  0.00  0.00     0.202 A 
ATOM      4  C   UNL d   1       1.545   0.484   0.000  0.00  0.00     0.087 A 
ATOM      5  C   UNL d   1       0.104   1.323   0.000  0.00  0.00     0.055 A 
ATOM      6  C   UNL d   1       0.104   0.484   0.000  0.00  0.00     0.067 A 
ATOM      7  C   UNL d   1      -0.610   0.071   0.000  0.00  0.00     0.018 A 
ATOM      8  C   UNL d   1      -0.610   1.737   0.000  0.00  0.00     0.005 A 
ATOM      9  O   UNL d   1       0.831   2.564   0.000  0.00  0.00    -0.286 OA
ATOM     10  C   UNL d   1      -1.323   1.323   0.000  0.00  0.00     0.000 A 
ATOM     11  C   UNL d   1      -1.323   0.484   0.000  0.00  0.00     0.002 A 
ENDROOT
BRANCH   2  12
ATOM     12  C   UNL d   1       0.818  -0.756   0.000  0.00  0.00     0.144 C 
BRANCH  12  13
ATOM     13  C   UNL d   1       1.532  -1.169   0.000  0.00  0.00     0.297 C 
ATOM     14  N   UNL d   1       1.532  -1.996   0.000  0.00  0.00    -0.207 NA
ATOM     15  O   UNL d   1       2.246  -0.756   0.000  0.00  0.00    -0.264 OA
BRANCH  14  16
ATOM     16  C   UNL d   1       2.246  -2.409   0.000  0.00  0.00     0.086 A 
ATOM     17  C   UNL d   1       2.960  -1.996   0.000  0.00  0.00     0.031 A 
ATOM     18  C   UNL d   1       3.674  -2.397   0.000  0.00  0.00     0.059 A 
ATOM     19 CL   UNL d   1       4.388  -1.979   0.000  0.00  0.00    -0.082 Cl
ATOM     20  C   UNL d   1       3.674  -3.236   0.000  0.00  0.00     0.011 A 
ATOM     21  C   UNL d   1       2.960  -3.649   0.000  0.00  0.00     0.002 A 
ATOM     22  C   UNL d   1       4.388  -3.645   0.000  0.00  0.00     0.001 C 
ATOM     23  C   UNL d   1       2.246  -3.236   0.000  0.00  0.00     0.019 A 
ENDBRANCH  14  16
ENDBRANCH  12  13
ENDBRANCH   2  12
BRANCH   1  24
ATOM     24  C   UNL d   1       2.271   1.724   0.000  0.00  0.00     0.200 C 
ATOM     25  O   UNL d   1       2.271   2.564   0.000  0.00  0.00    -0.286 OA
BRANCH  24  26
ATOM     26  C   UNL d   1       2.985   1.311   0.000  0.00  0.00     0.039 A 
ATOM     27  C   UNL d   1       2.973   0.484   0.000  0.00  0.00     0.003 A 
ATOM     28  C   UNL d   1       3.687   0.071   0.000  0.00  0.00     0.000 A 
ATOM     29  C   UNL d   1       4.401   0.484   0.000  0.00  0.00     0.000 A 
ATOM     30  C   UNL d   1       4.401   1.311   0.000  0.00  0.00     0.000 A 
ATOM     31  C   UNL d   1       3.687   1.724   0.000  0.00  0.00     0.003 A 
ENDBRANCH  24  26
ENDBRANCH   1  24
BRANCH  10  32
ATOM     32  C   UNL d   1      -2.038   1.737   0.000  0.00  0.00     0.000 C 
ATOM     33  C   UNL d   1      -2.756   1.323   0.000  0.00  0.00     0.000 C 
ENDBRANCH  10  32
TORSDOF 6
