REMARK  5 active torsions:
REMARK  status: ('A' for Active; 'I' for Inactive)
REMARK    1  A    between atoms: C_14  and  N_4 
REMARK    2  A    between atoms: C_15  and  C_9 
REMARK    3  A    between atoms: O_20  and  C_12 
REMARK    4  A    between atoms: O_21  and  C_13 
REMARK    5  A    between atoms: C_18  and  C_14 
ROOT
ATOM      1  C   UNL d   1       6.325  -2.837   0.000  0.00  0.00     0.056 A 
ATOM      2  C   UNL d   1       5.604  -2.425   0.000  0.00  0.00     0.107 A 
ATOM      3  C   UNL d   1       4.892  -2.837   0.000  0.00  0.00     0.038 A 
ATOM      4  N   UNL d   1       5.604  -4.067   0.000  0.00  0.00    -0.304 N 
ATOM      5  N   UNL d   1       5.779  -1.617   0.000  0.00  0.00    -0.148 NA
ATOM      6  C   UNL d   1       6.325  -3.663   0.000  0.00  0.00     0.083 A 
ATOM      7  N   UNL d   1       6.600  -1.529   0.000  0.00  0.00    -0.148 NA
ATOM      8  C   UNL d   1       4.892  -3.663   0.000  0.00  0.00     0.068 A 
ATOM      9  C   UNL d   1       6.942  -2.279   0.000  0.00  0.00     0.106 A 
ATOM     10  C   UNL d   1       4.179  -4.067   0.000  0.00  0.00     0.044 A 
ATOM     11  C   UNL d   1       4.179  -2.425   0.000  0.00  0.00     0.029 A 
ATOM     12  C   UNL d   1       3.467  -3.663   0.000  0.00  0.00     0.118 A 
ATOM     13  C   UNL d   1       3.467  -2.837   0.000  0.00  0.00     0.116 A 
ENDROOT
BRANCH   4  14
ATOM     14  C   UNL d   1       5.604  -4.900   0.000  0.00  0.00     0.080 C 
BRANCH  14  15
ATOM     15  C   UNL d   1       6.317  -5.312   0.000  0.00  0.00     0.018 A 
ATOM     16  C   UNL d   1       7.029  -4.900   0.000  0.00  0.00     0.002 A 
ATOM     17  C   UNL d   1       7.750  -5.312   0.000  0.00  0.00     0.000 A 
ATOM     18  C   UNL d   1       7.750  -6.142   0.000  0.00  0.00     0.000 A 
ATOM     19  C   UNL d   1       7.029  -6.554   0.000  0.00  0.00     0.000 A 
ATOM     20  C   UNL d   1       8.467  -6.562   0.000  0.00  0.00     0.000 C 
ATOM     21  C   UNL d   1       6.317  -6.142   0.000  0.00  0.00     0.002 A 
ENDBRANCH  14  15
ENDBRANCH   4  14
BRANCH   9  22
ATOM     22  C   UNL d   1       7.763  -2.354   0.000  0.00  0.00     0.020 A 
ATOM     23  C   UNL d   1       8.104  -3.104   0.000  0.00  0.00     0.004 A 
ATOM     24  C   UNL d   1       8.929  -3.188   0.000  0.00  0.00     0.030 A 
ATOM     25  C   UNL d   1       9.412  -2.504   0.000  0.00  0.00     0.140 A 
ATOM     26  C   UNL d   1       9.062  -1.754   0.000  0.00  0.00     0.030 A 
ATOM     27  F   UNL d   1      10.238  -2.567   0.000  0.00  0.00    -0.204 F 
ATOM     28  C   UNL d   1       8.242  -1.679   0.000  0.00  0.00     0.004 A 
ENDBRANCH   9  22
BRANCH  12  29
ATOM     29  O   UNL d   1       2.742  -4.079   0.000  0.00  0.00    -0.326 OA
ATOM     30  C   UNL d   1       2.025  -3.667   0.000  0.00  0.00     0.181 C 
ENDBRANCH  12  29
BRANCH  13  31
ATOM     31  O   UNL d   1       2.742  -2.425   0.000  0.00  0.00    -0.326 OA
ATOM     32  C   UNL d   1       2.029  -2.842   0.000  0.00  0.00     0.181 C 
ENDBRANCH  13  31
TORSDOF 5
