REMARK  5 active torsions:
REMARK  status: ('A' for Active; 'I' for Inactive)
REMARK    1  A    between atoms: C_14  and  N_4 
REMARK    2  A    between atoms: C_15  and  C_9 
REMARK    3  A    between atoms: O_18  and  C_12 
REMARK    4  A    between atoms: O_19  and  C_13 
REMARK    5  A    between atoms: C_16  and  C_14 
ROOT
ATOM      1  C   UNL d   1       6.675  -2.754   0.000  0.00  0.00     0.056 A 
ATOM      2  C   UNL d   1       5.954  -2.342   0.000  0.00  0.00     0.107 A 
ATOM      3  C   UNL d   1       5.242  -2.754   0.000  0.00  0.00     0.038 A 
ATOM      4  N   UNL d   1       5.954  -3.992   0.000  0.00  0.00    -0.304 N 
ATOM      5  N   UNL d   1       6.129  -1.538   0.000  0.00  0.00    -0.148 NA
ATOM      6  C   UNL d   1       6.675  -3.579   0.000  0.00  0.00     0.083 A 
ATOM      7  N   UNL d   1       6.950  -1.454   0.000  0.00  0.00    -0.148 NA
ATOM      8  C   UNL d   1       5.242  -3.579   0.000  0.00  0.00     0.068 A 
ATOM      9  C   UNL d   1       7.292  -2.200   0.000  0.00  0.00     0.106 A 
ATOM     10  C   UNL d   1       4.529  -3.992   0.000  0.00  0.00     0.044 A 
ATOM     11  C   UNL d   1       4.529  -2.342   0.000  0.00  0.00     0.029 A 
ATOM     12  C   UNL d   1       3.817  -3.579   0.000  0.00  0.00     0.118 A 
ATOM     13  C   UNL d   1       3.817  -2.754   0.000  0.00  0.00     0.116 A 
ENDROOT
BRANCH   4  14
ATOM     14  C   UNL d   1       5.954  -4.817   0.000  0.00  0.00     0.080 C 
BRANCH  14  15
ATOM     15  C   UNL d   1       6.667  -5.229   0.000  0.00  0.00     0.018 A 
ATOM     16  C   UNL d   1       6.667  -6.062   0.000  0.00  0.00     0.004 A 
ATOM     17  C   UNL d   1       7.379  -6.475   0.000  0.00  0.00     0.030 A 
ATOM     18  C   UNL d   1       8.104  -6.062   0.000  0.00  0.00     0.140 A 
ATOM     19  C   UNL d   1       8.104  -5.229   0.000  0.00  0.00     0.030 A 
ATOM     20  F   UNL d   1       8.829  -6.479   0.000  0.00  0.00    -0.204 F 
ATOM     21  C   UNL d   1       7.388  -4.817   0.000  0.00  0.00     0.004 A 
ENDBRANCH  14  15
ENDBRANCH   4  14
BRANCH   9  22
ATOM     22  C   UNL d   1       8.113  -2.279   0.000  0.00  0.00     0.019 A 
ATOM     23  C   UNL d   1       8.454  -3.029   0.000  0.00  0.00     0.002 A 
ATOM     24  C   UNL d   1       9.279  -3.104   0.000  0.00  0.00     0.000 A 
ATOM     25  C   UNL d   1       9.762  -2.429   0.000  0.00  0.00     0.000 A 
ATOM     26  C   UNL d   1       9.412  -1.679   0.000  0.00  0.00     0.000 A 
ATOM     27  C   UNL d   1       8.592  -1.604   0.000  0.00  0.00     0.002 A 
ENDBRANCH   9  22
BRANCH  12  28
ATOM     28  O   UNL d   1       3.092  -4.004   0.000  0.00  0.00    -0.326 OA
ATOM     29  C   UNL d   1       2.375  -3.592   0.000  0.00  0.00     0.181 C 
ENDBRANCH  12  28
BRANCH  13  30
ATOM     30  O   UNL d   1       3.092  -2.342   0.000  0.00  0.00    -0.326 OA
ATOM     31  C   UNL d   1       2.379  -2.763   0.000  0.00  0.00     0.181 C 
ENDBRANCH  13  30
TORSDOF 5
