REMARK  2 active torsions:
REMARK  status: ('A' for Active; 'I' for Inactive)
REMARK    1  A    between atoms: C_13  and  N_8 
REMARK    2  A    between atoms: C_14  and  C_13 
ROOT
ATOM      1  C   UNL d   1       3.173  -2.722   0.000  0.00  0.00     0.093 A 
ATOM      2  N   UNL d   1       4.601  -2.731   0.000  0.00  0.00    -0.179 NA
ATOM      3  C   UNL d   1       3.887  -2.309   0.000  0.00  0.00     0.284 A 
ATOM      4  C   UNL d   1       3.173  -3.549   0.000  0.00  0.00     0.091 A 
ATOM      5  C   UNL d   1       4.601  -3.557   0.000  0.00  0.00     0.223 A 
ATOM      6  N   UNL d   1       3.887  -3.962   0.000  0.00  0.00    -0.217 NA
ATOM      7  C   UNL d   1       2.459  -2.309   0.000  0.00  0.00     0.087 A 
ATOM      8  N   UNL d   1       1.754  -2.722   0.000  0.00  0.00    -0.302 N 
ATOM      9  C   UNL d   1       2.459  -3.962   0.000  0.00  0.00     0.038 A 
ATOM     10  S   UNL d   1       5.315  -3.975   0.000  0.00  0.00    -0.037 SA
ATOM     11  O   UNL d   1       3.896  -1.482   0.000  0.00  0.00    -0.265 OA
ATOM     12  C   UNL d   1       1.754  -3.549   0.000  0.00  0.00     0.082 A 
ENDROOT
BRANCH   8  13
ATOM     13  C   UNL d   1       1.031  -2.309   0.000  0.00  0.00     0.080 C 
BRANCH  13  14
ATOM     14  C   UNL d   1       1.031  -1.482   0.000  0.00  0.00     0.019 C 
ATOM     15  C   UNL d   1       0.313  -1.077   0.000  0.00  0.00     0.002 C 
ENDBRANCH  13  14
ENDBRANCH   8  13
TORSDOF 2
