REMARK  7 active torsions:
REMARK  status: ('A' for Active; 'I' for Inactive)
REMARK    1  A    between atoms: C_5  and  C_1 
REMARK    2  A    between atoms: N_3  and  C_2 
REMARK    3  A    between atoms: C_14  and  C_5 
REMARK    4  A    between atoms: C_10  and  C_6 
REMARK    5  A    between atoms: O_19  and  C_10 
REMARK    6  A    between atoms: O_22  and  C_18 
REMARK    7  A    between atoms: C_26  and  O_19 
ROOT
ATOM      1  C   UNL d   1       6.706  -7.282   0.000  0.00  0.00     0.074 A 
ATOM      2  C   UNL d   1       5.979  -6.868   0.000  0.00  0.00     0.070 A 
ATOM      3  C   UNL d   1       5.265  -7.282   0.000  0.00  0.00     0.036 A 
ATOM      4  C   UNL d   1       6.706  -8.108   0.000  0.00  0.00     0.103 A 
ATOM      5  N   UNL d   1       5.979  -8.522   0.000  0.00  0.00    -0.244 NA
ATOM      6  C   UNL d   1       5.265  -8.108   0.000  0.00  0.00     0.083 A 
ATOM      7  C   UNL d   1       4.551  -6.868   0.000  0.00  0.00     0.027 A 
ATOM      8  C   UNL d   1       4.551  -8.522   0.000  0.00  0.00     0.021 A 
ATOM      9  C   UNL d   1       3.837  -7.282   0.000  0.00  0.00     0.094 A 
ATOM     10  C   UNL d   1       3.837  -8.108   0.000  0.00  0.00     0.026 A 
ENDROOT
BRANCH   2  11
ATOM     11  N   UNL d   1       5.979  -6.037   0.000  0.00  0.00    -0.303 N 
ATOM     12  C   UNL d   1       5.265  -5.624   0.000  0.00  0.00     0.086 A 
ATOM     13  C   UNL d   1       5.265  -4.789   0.000  0.00  0.00     0.081 A 
ATOM     14  C   UNL d   1       5.979  -4.376   0.000  0.00  0.00     0.008 A 
ATOM     15  C   UNL d   1       6.693  -4.789   0.000  0.00  0.00     0.019 A 
ATOM     16  C   UNL d   1       6.693  -5.624   0.000  0.00  0.00     0.080 A 
BRANCH  13  17
ATOM     17  C   UNL d   1       4.539  -4.372   0.000  0.00  0.00     0.302 C 
ATOM     18  O   UNL d   1       4.551  -3.537   0.000  0.00  0.00    -0.259 OA
BRANCH  17  19
ATOM     19  O   UNL d   1       3.825  -4.785   0.000  0.00  0.00    -0.271 OA
BRANCH  19  20
ATOM     20  C   UNL d   1       3.111  -4.372   0.000  0.00  0.00     0.126 C 
ATOM     21  C   UNL d   1       2.397  -4.785   0.000  0.00  0.00     0.029 C 
ENDBRANCH  19  20
ENDBRANCH  17  19
ENDBRANCH  13  17
ENDBRANCH   2  11
BRANCH   1  22
ATOM     22  C   UNL d   1       7.420  -6.868   0.000  0.00  0.00     0.198 C 
ATOM     23  O   UNL d   1       7.432  -6.042   0.000  0.00  0.00    -0.286 OA
BRANCH  22  24
ATOM     24  C   UNL d   1       8.133  -7.282   0.000  0.00  0.00     0.039 A 
ATOM     25  C   UNL d   1       8.848  -6.868   0.000  0.00  0.00     0.003 A 
ATOM     26  C   UNL d   1       9.574  -7.282   0.000  0.00  0.00     0.000 A 
ATOM     27  C   UNL d   1       9.562  -8.108   0.000  0.00  0.00     0.000 A 
ATOM     28  C   UNL d   1       8.848  -8.522   0.000  0.00  0.00     0.000 A 
ATOM     29  C   UNL d   1       8.133  -8.108   0.000  0.00  0.00     0.003 A 
ENDBRANCH  22  24
ENDBRANCH   1  22
BRANCH   9  30
ATOM     30  O   UNL d   1       3.123  -6.864   0.000  0.00  0.00    -0.328 OA
ATOM     31  C   UNL d   1       2.409  -7.282   0.000  0.00  0.00     0.181 C 
ENDBRANCH   9  30
TORSDOF 7
