REMARK  5 active torsions:
REMARK  status: ('A' for Active; 'I' for Inactive)
REMARK    1  A    between atoms: C_7  and  C_1 
REMARK    2  A    between atoms: C_8  and  N_2 
REMARK    3  A    between atoms: C_13  and  C_7 
REMARK    4  A    between atoms: C_14  and  C_8 
REMARK    5  A    between atoms: O_22  and  C_15 
ROOT
ATOM      1  C   UNL d   1      -1.172   2.228   0.000  0.00  0.00     0.095 A 
ATOM      2  N   UNL d   1      -1.904   0.981   0.000  0.00  0.00    -0.304 N 
ATOM      3  C   UNL d   1      -1.891   2.644   0.000  0.00  0.00     0.202 A 
ATOM      4  C   UNL d   1      -1.172   1.393   0.000  0.00  0.00     0.087 A 
ATOM      5  C   UNL d   1      -2.606   2.228   0.000  0.00  0.00     0.057 A 
ATOM      6  C   UNL d   1      -2.615   1.393   0.000  0.00  0.00     0.067 A 
ATOM      7  C   UNL d   1      -3.325   0.985   0.000  0.00  0.00     0.020 A 
ATOM      8  C   UNL d   1      -3.325   2.640   0.000  0.00  0.00     0.029 A 
ATOM      9  O   UNL d   1      -1.891   3.475   0.000  0.00  0.00    -0.286 OA
ATOM     10  C   UNL d   1      -4.036   2.220   0.000  0.00  0.00     0.094 A 
ATOM     11  C   UNL d   1      -4.036   1.397   0.000  0.00  0.00     0.026 A 
ENDROOT
BRANCH   1  12
ATOM     12  C   UNL d   1      -0.457   2.640   0.000  0.00  0.00     0.200 C 
ATOM     13  O   UNL d   1      -0.457   3.454   0.000  0.00  0.00    -0.286 OA
BRANCH  12  14
ATOM     14  C   UNL d   1       0.254   2.220   0.000  0.00  0.00     0.039 A 
ATOM     15  C   UNL d   1       0.241   1.397   0.000  0.00  0.00     0.003 A 
ATOM     16  C   UNL d   1       0.952   0.985   0.000  0.00  0.00     0.000 A 
ATOM     17  C   UNL d   1       1.671   1.393   0.000  0.00  0.00     0.000 A 
ATOM     18  C   UNL d   1       1.671   2.220   0.000  0.00  0.00     0.000 A 
ATOM     19  C   UNL d   1       0.960   2.640   0.000  0.00  0.00     0.003 A 
ENDBRANCH  12  14
ENDBRANCH   1  12
BRANCH   2  20
ATOM     20  C   UNL d   1      -1.904   0.158   0.000  0.00  0.00     0.080 C 
BRANCH  20  21
ATOM     21  C   UNL d   1      -1.185  -0.254   0.000  0.00  0.00     0.018 A 
ATOM     22  C   UNL d   1      -1.193  -1.077   0.000  0.00  0.00     0.002 A 
ATOM     23  C   UNL d   1      -0.482  -1.488   0.000  0.00  0.00     0.000 A 
ATOM     24  C   UNL d   1       0.229  -1.085   0.000  0.00  0.00     0.000 A 
ATOM     25  C   UNL d   1       0.229  -0.254   0.000  0.00  0.00     0.000 A 
ATOM     26  C   UNL d   1       0.940  -1.496   0.000  0.00  0.00     0.000 C 
ATOM     27  C   UNL d   1      -0.482   0.158   0.000  0.00  0.00     0.002 A 
ENDBRANCH  20  21
ENDBRANCH   2  20
BRANCH  10  28
ATOM     28  O   UNL d   1      -4.747   2.640   0.000  0.00  0.00    -0.328 OA
ATOM     29  C   UNL d   1      -5.458   2.228   0.000  0.00  0.00     0.181 C 
ENDBRANCH  10  28
TORSDOF 5
