REMARK  7 active torsions:
REMARK  status: ('A' for Active; 'I' for Inactive)
REMARK    1  A    between atoms: C_4  and  C_1 
REMARK    2  A    between atoms: N_5  and  C_2 
REMARK    3  A    between atoms: C_15  and  C_4 
REMARK    4  A    between atoms: C_9  and  C_13 
REMARK    5  A    between atoms: O_21  and  C_9 
REMARK    6  A    between atoms: C_25  and  C_20 
REMARK    7  A    between atoms: C_26  and  O_21 
ROOT
ATOM      1  C   UNL d   1       5.975  -7.467   0.000  0.00  0.00     0.074 A 
ATOM      2  C   UNL d   1       5.254  -7.054   0.000  0.00  0.00     0.070 A 
ATOM      3  C   UNL d   1       4.542  -7.467   0.000  0.00  0.00     0.034 A 
ATOM      4  C   UNL d   1       5.975  -8.292   0.000  0.00  0.00     0.103 A 
ATOM      5  N   UNL d   1       5.254  -8.704   0.000  0.00  0.00    -0.244 NA
ATOM      6  C   UNL d   1       4.542  -8.292   0.000  0.00  0.00     0.083 A 
ATOM      7  C   UNL d   1       3.829  -7.054   0.000  0.00  0.00     0.003 A 
ATOM      8  C   UNL d   1       3.829  -8.704   0.000  0.00  0.00     0.019 A 
ATOM      9  C   UNL d   1       3.112  -7.467   0.000  0.00  0.00     0.000 A 
ATOM     10  C   UNL d   1       3.112  -8.292   0.000  0.00  0.00     0.002 A 
ENDROOT
BRANCH   2  11
ATOM     11  N   UNL d   1       5.254  -6.217   0.000  0.00  0.00    -0.304 N 
ATOM     12  C   UNL d   1       5.967  -5.804   0.000  0.00  0.00     0.080 A 
ATOM     13  C   UNL d   1       5.967  -4.979   0.000  0.00  0.00     0.024 A 
ATOM     14  C   UNL d   1       5.254  -4.567   0.000  0.00  0.00     0.067 A 
ATOM     15  C   UNL d   1       4.537  -4.979   0.000  0.00  0.00     0.024 A 
ATOM     16  C   UNL d   1       4.537  -5.804   0.000  0.00  0.00     0.080 A 
BRANCH  14  17
ATOM     17  C   UNL d   1       5.263  -3.742   0.000  0.00  0.00     0.300 C 
ATOM     18  O   UNL d   1       5.979  -3.329   0.000  0.00  0.00    -0.259 OA
BRANCH  17  19
ATOM     19  O   UNL d   1       4.550  -3.329   0.000  0.00  0.00    -0.271 OA
BRANCH  19  20
ATOM     20  C   UNL d   1       3.829  -3.729   0.000  0.00  0.00     0.126 C 
ATOM     21  C   UNL d   1       3.112  -3.317   0.000  0.00  0.00     0.029 C 
ENDBRANCH  19  20
ENDBRANCH  17  19
ENDBRANCH  14  17
ENDBRANCH   2  11
BRANCH   1  22
ATOM     22  C   UNL d   1       6.692  -7.054   0.000  0.00  0.00     0.198 C 
ATOM     23  O   UNL d   1       6.700  -6.229   0.000  0.00  0.00    -0.286 OA
BRANCH  22  24
ATOM     24  C   UNL d   1       7.404  -7.467   0.000  0.00  0.00     0.039 A 
ATOM     25  C   UNL d   1       7.400  -8.292   0.000  0.00  0.00     0.003 A 
ATOM     26  C   UNL d   1       8.113  -8.704   0.000  0.00  0.00     0.000 A 
ATOM     27  C   UNL d   1       8.829  -8.292   0.000  0.00  0.00     0.000 A 
ATOM     28  C   UNL d   1       8.838  -7.467   0.000  0.00  0.00     0.000 A 
ATOM     29  C   UNL d   1       8.117  -7.054   0.000  0.00  0.00     0.003 A 
ENDBRANCH  22  24
ENDBRANCH   1  22
BRANCH   9  30
ATOM     30  C   UNL d   1       2.392  -7.050   0.000  0.00  0.00     0.000 C 
ATOM     31  C   UNL d   1       2.400  -6.225   0.000  0.00  0.00     0.000 C 
ENDBRANCH   9  30
TORSDOF 7
