REMARK  5 active torsions:
REMARK  status: ('A' for Active; 'I' for Inactive)
REMARK       I    between atoms: N_2  and  C_1 
REMARK    1  A    between atoms: C_4  and  C_1 
REMARK    2  A    between atoms: C_3  and  N_2 
REMARK    3  A    between atoms: N_5  and  C_3 
REMARK    4  A    between atoms: C_7  and  N_5 
REMARK    5  A    between atoms: O_14  and  C_11 
ROOT
ATOM      1  C   UNL d   1       2.944  -0.029   0.000  0.00  0.00     0.283 C 
ATOM      2  N   UNL d   1       2.227   0.375   0.000  0.00  0.00    -0.179 NA
ATOM      3  O   UNL d   1       2.944  -0.855   0.000  0.00  0.00    -0.265 OA
ENDROOT
BRANCH   2   4
ATOM      4  C   UNL d   1       1.514  -0.029   0.000  0.00  0.00     0.224 C 
ATOM      5  S   UNL d   1       1.514  -0.863   0.000  0.00  0.00    -0.037 SA
BRANCH   4   6
ATOM      6  N   UNL d   1       0.792   0.371   0.000  0.00  0.00    -0.215 NA
BRANCH   6   7
ATOM      7  C   UNL d   1       0.079  -0.042   0.000  0.00  0.00     0.112 A 
ATOM      8  C   UNL d   1       0.079  -0.876   0.000  0.00  0.00     0.156 A 
ATOM      9  N   UNL d   1      -0.634  -1.288   0.000  0.00  0.00    -0.231 NA
ATOM     10 CL   UNL d   1       0.801  -1.288   0.000  0.00  0.00    -0.060 Cl
ATOM     11  C   UNL d   1      -1.347  -0.876   0.000  0.00  0.00     0.100 A 
ATOM     12  C   UNL d   1      -1.347  -0.050   0.000  0.00  0.00     0.022 A 
ATOM     13  C   UNL d   1      -0.634   0.371   0.000  0.00  0.00     0.023 A 
ENDBRANCH   6   7
ENDBRANCH   4   6
ENDBRANCH   2   4
BRANCH   1  14
ATOM     14  C   UNL d   1       3.657   0.384   0.000  0.00  0.00     0.080 A 
ATOM     15  C   UNL d   1       4.370  -0.029   0.000  0.00  0.00     0.099 A 
ATOM     16  C   UNL d   1       5.083   0.384   0.000  0.00  0.00     0.024 A 
ATOM     17  C   UNL d   1       5.079   1.214   0.000  0.00  0.00     0.002 A 
ATOM     18  C   UNL d   1       4.358   1.622   0.000  0.00  0.00     0.000 A 
ATOM     19  C   UNL d   1       3.645   1.209   0.000  0.00  0.00     0.007 A 
BRANCH  15  20
ATOM     20  O   UNL d   1       4.370  -0.851   0.000  0.00  0.00    -0.328 OA
ATOM     21  C   UNL d   1       5.083  -1.264   0.000  0.00  0.00     0.181 C 
ENDBRANCH  15  20
ENDBRANCH   1  14
TORSDOF 5
