REMARK  1 active torsions:
REMARK  status: ('A' for Active; 'I' for Inactive)
REMARK    1  A    between atoms: C_10  and  C_4 
ROOT
ATOM      1  C   UNL d   1       7.333  -3.115   0.000  0.00  0.00     0.186 A 
ATOM      2  N   UNL d   1       6.612  -3.539   0.000  0.00  0.00    -0.193 N 
ATOM      3  N   UNL d   1       7.324  -2.290   0.000  0.00  0.00    -0.214 NA
ATOM      4  C   UNL d   1       7.945  -3.677   0.000  0.00  0.00     0.140 A 
ATOM      5  N   UNL d   1       6.787  -4.351   0.000  0.00  0.00    -0.058 NA
ATOM      6  N   UNL d   1       7.612  -4.426   0.000  0.00  0.00    -0.127 NA
ATOM      7  C   UNL d   1       6.608  -1.878   0.000  0.00  0.00     0.142 A 
ATOM      8  C   UNL d   1       5.896  -2.303   0.000  0.00  0.00     0.046 A 
ATOM      9  C   UNL d   1       5.900  -3.127   0.000  0.00  0.00     0.088 A 
ATOM     10 CL   UNL d   1       6.600  -1.054   0.000  0.00  0.00    -0.061 Cl
ATOM     11  C   UNL d   1       5.184  -1.891   0.000  0.00  0.00     0.004 A 
ATOM     12  C   UNL d   1       5.184  -3.539   0.000  0.00  0.00     0.019 A 
ATOM     13  C   UNL d   1       4.472  -2.303   0.000  0.00  0.00     0.000 A 
ATOM     14  C   UNL d   1       4.472  -3.127   0.000  0.00  0.00     0.002 A 
ENDROOT
BRANCH   4  15
ATOM     15  C   UNL d   1       8.744  -3.502   0.000  0.00  0.00     0.022 A 
ATOM     16  C   UNL d   1       9.298  -4.114   0.000  0.00  0.00     0.002 A 
ATOM     17  C   UNL d   1      10.106  -3.939   0.000  0.00  0.00     0.000 A 
ATOM     18  C   UNL d   1      10.356  -3.152   0.000  0.00  0.00     0.000 A 
ATOM     19  C   UNL d   1       9.798  -2.540   0.000  0.00  0.00     0.000 A 
ATOM     20  C   UNL d   1      11.160  -2.977   0.000  0.00  0.00     0.000 C 
ATOM     21  C   UNL d   1       8.994  -2.715   0.000  0.00  0.00     0.002 A 
ENDBRANCH   4  15
TORSDOF 1
