REMARK  7 active torsions:
REMARK  status: ('A' for Active; 'I' for Inactive)
REMARK    1  A    between atoms: S_2  and  C_1 
REMARK    2  A    between atoms: C_6  and  S_2 
REMARK    3  A    between atoms: C_24  and  C_16 
REMARK    4  A    between atoms: C_25  and  C_24 
REMARK    5  A    between atoms: C_28  and  C_25 
REMARK    6  A    between atoms: C_26  and  C_27 
REMARK    7  A    between atoms: C_27  and  C_28 
ROOT
ATOM      1  C   UNL d   1       7.850  -5.554   0.000  0.00  0.00     0.151 A 
ATOM      2  C   UNL d   1       7.850  -6.379   0.000  0.00  0.00     0.311 A 
ATOM      3  C   UNL d   1       7.138  -5.142   0.000  0.00  0.00     0.019 A 
ATOM      4  O   UNL d   1       7.138  -6.792   0.000  0.00  0.00    -0.272 OA
ATOM      5  C   UNL d   1       6.425  -6.379   0.000  0.00  0.00     0.106 A 
ATOM      6  C   UNL d   1       6.425  -5.554   0.000  0.00  0.00     0.024 A 
ATOM      7  C   UNL d   1       5.713  -6.792   0.000  0.00  0.00     0.067 A 
ATOM      8  C   UNL d   1       4.987  -6.379   0.000  0.00  0.00     0.198 A 
ATOM      9  C   UNL d   1       5.713  -5.142   0.000  0.00  0.00     0.005 A 
ATOM     10  C   UNL d   1       4.987  -5.554   0.000  0.00  0.00     0.039 A 
ATOM     11  O   UNL d   1       8.575  -6.800   0.000  0.00  0.00    -0.258 OA
ATOM     12  O   UNL d   1       4.275  -6.792   0.000  0.00  0.00    -0.286 OA
ENDROOT
BRANCH   1  13
ATOM     13  S   UNL d   1       8.575  -5.142   0.000  0.00  0.00     0.215 S 
ATOM     14  O   UNL d   1       8.162  -4.417   0.000  0.00  0.00    -0.217 OA
ATOM     15  O   UNL d   1       8.988  -5.862   0.000  0.00  0.00    -0.217 OA
BRANCH  13  16
ATOM     16  C   UNL d   1       9.287  -4.729   0.000  0.00  0.00     0.089 A 
ATOM     17  C   UNL d   1      10.004  -5.142   0.000  0.00  0.00     0.025 A 
ATOM     18  C   UNL d   1      10.725  -4.729   0.000  0.00  0.00     0.086 A 
ATOM     19 CL   UNL d   1      11.438  -5.142   0.000  0.00  0.00    -0.080 Cl
ATOM     20  C   UNL d   1      10.725  -3.904   0.000  0.00  0.00     0.151 A 
ATOM     21  C   UNL d   1      10.012  -3.492   0.000  0.00  0.00     0.031 A 
ATOM     22  F   UNL d   1      11.442  -3.492   0.000  0.00  0.00    -0.203 F 
ATOM     23  C   UNL d   1       9.300  -3.904   0.000  0.00  0.00     0.014 A 
ENDBRANCH  13  16
ENDBRANCH   1  13
BRANCH  10  24
ATOM     24  C   UNL d   1       4.267  -5.142   0.000  0.00  0.00     0.003 C 
BRANCH  24  25
ATOM     25  C   UNL d   1       3.550  -5.550   0.000  0.00  0.00     0.000 C 
BRANCH  25  26
ATOM     26  C   UNL d   1       2.837  -5.138   0.000  0.00  0.00     0.000 C 
BRANCH  26  27
ATOM     27  C   UNL d   1       2.117  -5.542   0.000  0.00  0.00     0.000 C 
BRANCH  27  28
ATOM     28  C   UNL d   1       1.400  -5.129   0.000  0.00  0.00     0.000 C 
ATOM     29  C   UNL d   1       0.688  -5.537   0.000  0.00  0.00     0.000 C 
ENDBRANCH  27  28
ENDBRANCH  26  27
ENDBRANCH  25  26
ENDBRANCH  24  25
ENDBRANCH  10  24
TORSDOF 7
