REMARK  7 active torsions:
REMARK  status: ('A' for Active; 'I' for Inactive)
REMARK    1  A    between atoms: S_2  and  C_1 
REMARK    2  A    between atoms: C_9  and  S_2 
REMARK    3  A    between atoms: C_10  and  N_3 
REMARK    4  A    between atoms: C_8  and  C_10 
REMARK       I    between atoms: N_15  and  C_8 
REMARK    5  A    between atoms: C_20  and  N_15 
REMARK    6  A    between atoms: O_32  and  C_21 
REMARK    7  A    between atoms: C_33  and  C_27 
ROOT
ATOM      1  C   UNL d   1       3.688   0.733   0.000  0.00  0.00     0.144 A 
ATOM      2  N   UNL d   1       2.967  -0.504   0.000  0.00  0.00    -0.299 N 
ATOM      3  C   UNL d   1       2.967   1.146   0.000  0.00  0.00     0.209 A 
ATOM      4  C   UNL d   1       3.688  -0.092   0.000  0.00  0.00     0.095 A 
ATOM      5  C   UNL d   1       2.254   0.733   0.000  0.00  0.00     0.058 A 
ATOM      6  C   UNL d   1       2.254  -0.092   0.000  0.00  0.00     0.068 A 
ATOM      7  C   UNL d   1       1.542  -0.504   0.000  0.00  0.00     0.020 A 
ATOM      8  C   UNL d   1       1.542   1.146   0.000  0.00  0.00     0.029 A 
ATOM      9  O   UNL d   1       2.967   1.975   0.000  0.00  0.00    -0.286 OA
ATOM     10  C   UNL d   1       0.825   0.733   0.000  0.00  0.00     0.094 A 
ATOM     11  C   UNL d   1       0.825  -0.092   0.000  0.00  0.00     0.026 A 
ENDROOT
BRANCH   2  12
ATOM     12  C   UNL d   1       2.967  -1.329   0.000  0.00  0.00     0.144 C 
BRANCH  12  13
ATOM     13  C   UNL d   1       3.679  -1.742   0.000  0.00  0.00     0.297 C 
ATOM     14  N   UNL d   1       3.679  -2.567   0.000  0.00  0.00    -0.207 NA
ATOM     15  O   UNL d   1       4.392  -1.329   0.000  0.00  0.00    -0.264 OA
BRANCH  14  16
ATOM     16  C   UNL d   1       4.392  -2.979   0.000  0.00  0.00     0.085 A 
ATOM     17  C   UNL d   1       5.104  -2.567   0.000  0.00  0.00     0.019 A 
ATOM     18  C   UNL d   1       5.817  -2.979   0.000  0.00  0.00     0.002 A 
ATOM     19  C   UNL d   1       5.817  -3.804   0.000  0.00  0.00     0.000 A 
ATOM     20  C   UNL d   1       5.100  -4.217   0.000  0.00  0.00     0.002 A 
ATOM     21  C   UNL d   1       4.388  -3.804   0.000  0.00  0.00     0.019 A 
BRANCH  19  22
ATOM     22  C   UNL d   1       6.529  -4.225   0.000  0.00  0.00     0.000 C 
ATOM     23  C   UNL d   1       7.242  -3.812   0.000  0.00  0.00     0.000 C 
ENDBRANCH  19  22
ENDBRANCH  14  16
ENDBRANCH  12  13
ENDBRANCH   2  12
BRANCH   1  24
ATOM     24  S   UNL d   1       4.404   1.146   0.000  0.00  0.00     0.214 S 
ATOM     25  O   UNL d   1       4.817   0.433   0.000  0.00  0.00    -0.217 OA
ATOM     26  O   UNL d   1       3.992   1.871   0.000  0.00  0.00    -0.217 OA
BRANCH  24  27
ATOM     27  C   UNL d   1       5.125   1.558   0.000  0.00  0.00     0.088 A 
ATOM     28  C   UNL d   1       5.842   1.146   0.000  0.00  0.00     0.014 A 
ATOM     29  C   UNL d   1       6.554   1.558   0.000  0.00  0.00     0.030 A 
ATOM     30  C   UNL d   1       6.562   2.383   0.000  0.00  0.00     0.140 A 
ATOM     31  C   UNL d   1       5.842   2.796   0.000  0.00  0.00     0.030 A 
ATOM     32  F   UNL d   1       7.279   2.796   0.000  0.00  0.00    -0.204 F 
ATOM     33  C   UNL d   1       5.129   2.383   0.000  0.00  0.00     0.014 A 
ENDBRANCH  24  27
ENDBRANCH   1  24
BRANCH  10  34
ATOM     34  O   UNL d   1       0.113   1.158   0.000  0.00  0.00    -0.328 OA
ATOM     35  C   UNL d   1      -0.608   0.746   0.000  0.00  0.00     0.181 C 
ENDBRANCH  10  34
TORSDOF 7
