REMARK  6 active torsions:
REMARK  status: ('A' for Active; 'I' for Inactive)
REMARK    1  A    between atoms: C_11  and  N_3 
REMARK    2  A    between atoms: C_10  and  C_4 
REMARK    3  A    between atoms: C_18  and  C_11 
REMARK    4  A    between atoms: O_21  and  C_13 
REMARK    5  A    between atoms: O_22  and  C_15 
REMARK    6  A    between atoms: C_23  and  C_18 
ROOT
ATOM      1  N   UNL d   1       6.312  -3.892   0.000  0.00  0.00    -0.122 N 
ATOM      2  C   UNL d   1       7.029  -3.479   0.000  0.00  0.00     0.741 A 
ATOM      3  N   UNL d   1       7.029  -2.642   0.000  0.00  0.00    -0.103 N 
ATOM      4  C   UNL d   1       6.479  -4.704   0.000  0.00  0.00     0.185 A 
ATOM      5  C   UNL d   1       6.312  -2.229   0.000  0.00  0.00     0.280 A 
ATOM      6  N   UNL d   1       7.642  -4.029   0.000  0.00  0.00     0.045 NA
ATOM      7  C   UNL d   1       5.592  -3.479   0.000  0.00  0.00     0.087 A 
ATOM      8  N   UNL d   1       7.304  -4.792   0.000  0.00  0.00    -0.114 NA
ATOM      9  C   UNL d   1       5.600  -2.654   0.000  0.00  0.00     0.074 A 
ATOM     10  O   UNL d   1       6.312  -1.404   0.000  0.00  0.00    -0.266 OA
ATOM     11  C   UNL d   1       4.879  -2.242   0.000  0.00  0.00     0.006 A 
ATOM     12  C   UNL d   1       4.879  -3.892   0.000  0.00  0.00     0.018 A 
ATOM     13  C   UNL d   1       4.167  -2.654   0.000  0.00  0.00     0.000 A 
ATOM     14  C   UNL d   1       4.167  -3.479   0.000  0.00  0.00     0.002 A 
ENDROOT
BRANCH   4  15
ATOM     15  C   UNL d   1       5.925  -5.317   0.000  0.00  0.00     0.039 A 
ATOM     16  C   UNL d   1       6.175  -6.092   0.000  0.00  0.00     0.029 A 
ATOM     17  C   UNL d   1       5.625  -6.704   0.000  0.00  0.00     0.116 A 
ATOM     18  C   UNL d   1       4.812  -6.529   0.000  0.00  0.00     0.116 A 
ATOM     19  C   UNL d   1       4.562  -5.742   0.000  0.00  0.00     0.026 A 
ATOM     20  C   UNL d   1       5.117  -5.129   0.000  0.00  0.00     0.005 A 
BRANCH  17  21
ATOM     21  O   UNL d   1       5.879  -7.479   0.000  0.00  0.00    -0.326 OA
ATOM     22  C   UNL d   1       6.688  -7.654   0.000  0.00  0.00     0.181 C 
ENDBRANCH  17  21
BRANCH  18  23
ATOM     23  O   UNL d   1       4.263  -7.142   0.000  0.00  0.00    -0.326 OA
ATOM     24  C   UNL d   1       3.454  -6.967   0.000  0.00  0.00     0.181 C 
ENDBRANCH  18  23
ENDBRANCH   4  15
BRANCH   3  25
ATOM     25  C   UNL d   1       7.742  -2.229   0.000  0.00  0.00     0.101 C 
BRANCH  25  26
ATOM     26  C   UNL d   1       7.737  -1.404   0.000  0.00  0.00     0.020 C 
BRANCH  26  27
ATOM     27  C   UNL d   1       8.450  -0.979   0.000  0.00  0.00     0.002 A 
ATOM     28  C   UNL d   1       8.438  -0.154   0.000  0.00  0.00     0.000 A 
ATOM     29  C   UNL d   1       9.137   0.258   0.000  0.00  0.00     0.000 A 
ATOM     30  C   UNL d   1       9.842  -0.142   0.000  0.00  0.00     0.000 A 
ATOM     31  C   UNL d   1       9.863  -0.963   0.000  0.00  0.00     0.000 A 
ATOM     32  C   UNL d   1       9.154  -1.379   0.000  0.00  0.00     0.000 A 
ENDBRANCH  26  27
ENDBRANCH  25  26
ENDBRANCH   3  25
TORSDOF 6
