REMARK  3 active torsions:
REMARK  status: ('A' for Active; 'I' for Inactive)
REMARK       I    between atoms: C_6  and  N_1 
REMARK    1  A    between atoms: C_11  and  C_5 
REMARK    2  A    between atoms: C_12  and  C_6 
REMARK    3  A    between atoms: C_27  and  N_10 
ROOT
ATOM      1  N   UNL d   1       5.833  -6.120   0.000  0.00  0.00    -0.264 N 
ATOM      2  C   UNL d   1       6.507  -6.607   0.000  0.00  0.00     0.198 A 
ATOM      3  C   UNL d   1       6.095  -5.334   0.000  0.00  0.00     0.138 A 
ATOM      4  N   UNL d   1       7.168  -6.120   0.000  0.00  0.00    -0.243 NA
ATOM      5  C   UNL d   1       6.919  -5.334   0.000  0.00  0.00     0.105 A 
ATOM      6  C   UNL d   1       5.059  -6.370   0.000  0.00  0.00     0.263 C 
ATOM      7  C   UNL d   1       7.218  -7.027   0.000  0.00  0.00     0.041 A 
ATOM      8  C   UNL d   1       5.796  -7.006   0.000  0.00  0.00     0.041 A 
ATOM      9  S   UNL d   1       5.608  -4.660   0.000  0.00  0.00    -0.058 SA
ATOM     10  N   UNL d   1       6.482  -8.254   0.000  0.00  0.00    -0.303 N 
ATOM     11  O   UNL d   1       4.884  -7.181   0.000  0.00  0.00    -0.267 OA
ATOM     12  C   UNL d   1       5.783  -7.830   0.000  0.00  0.00     0.080 A 
ATOM     13  C   UNL d   1       7.194  -7.855   0.000  0.00  0.00     0.080 A 
ENDROOT
BRANCH   6  14
ATOM     14  C   UNL d   1       4.448  -5.821   0.000  0.00  0.00     0.056 A 
ATOM     15  C   UNL d   1       4.622  -5.022   0.000  0.00  0.00     0.005 A 
ATOM     16  C   UNL d   1       4.011  -4.468   0.000  0.00  0.00     0.000 A 
ATOM     17  C   UNL d   1       3.224  -4.718   0.000  0.00  0.00     0.000 A 
ATOM     18  C   UNL d   1       3.050  -5.529   0.000  0.00  0.00     0.000 A 
ATOM     19  C   UNL d   1       2.613  -4.160   0.000  0.00  0.00     0.000 C 
ATOM     20  C   UNL d   1       3.661  -6.078   0.000  0.00  0.00     0.005 A 
ENDBRANCH   6  14
BRANCH   5  21
ATOM     21  C   UNL d   1       7.406  -4.672   0.000  0.00  0.00     0.020 A 
ATOM     22  C   UNL d   1       7.069  -3.911   0.000  0.00  0.00     0.004 A 
ATOM     23  C   UNL d   1       7.568  -3.237   0.000  0.00  0.00     0.030 A 
ATOM     24  C   UNL d   1       8.392  -3.337   0.000  0.00  0.00     0.140 A 
ATOM     25  C   UNL d   1       8.716  -4.086   0.000  0.00  0.00     0.030 A 
ATOM     26  F   UNL d   1       8.879  -2.671   0.000  0.00  0.00    -0.204 F 
ATOM     27  C   UNL d   1       8.242  -4.760   0.000  0.00  0.00     0.004 A 
ENDBRANCH   5  21
BRANCH  10  28
ATOM     28  C   UNL d   1       6.470  -9.086   0.000  0.00  0.00     0.080 C 
ATOM     29  C   UNL d   1       5.746  -9.486   0.000  0.00  0.00     0.021 C 
ENDBRANCH  10  28
TORSDOF 3
