REMARK  3 active torsions:
REMARK  status: ('A' for Active; 'I' for Inactive)
REMARK    1  A    between atoms: S_2  and  C_1 
REMARK    2  A    between atoms: C_8  and  S_2 
REMARK    3  A    between atoms: C_20  and  C_13 
ROOT
ATOM      1  C   UNL d   1       6.092  -4.379   0.000  0.00  0.00     0.151 A 
ATOM      2  C   UNL d   1       6.092  -5.213   0.000  0.00  0.00     0.311 A 
ATOM      3  C   UNL d   1       5.375  -3.975   0.000  0.00  0.00     0.019 A 
ATOM      4  O   UNL d   1       5.375  -5.625   0.000  0.00  0.00    -0.273 OA
ATOM      5  C   UNL d   1       4.662  -4.379   0.000  0.00  0.00     0.024 A 
ATOM      6  C   UNL d   1       4.662  -5.213   0.000  0.00  0.00     0.103 A 
ATOM      7  O   UNL d   1       6.812  -5.629   0.000  0.00  0.00    -0.258 OA
ATOM      8  C   UNL d   1       3.950  -3.975   0.000  0.00  0.00     0.009 A 
ATOM      9  C   UNL d   1       3.950  -5.625   0.000  0.00  0.00     0.025 A 
ATOM     10  C   UNL d   1       3.229  -4.379   0.000  0.00  0.00     0.035 A 
ATOM     11  C   UNL d   1       3.229  -5.213   0.000  0.00  0.00     0.009 A 
ATOM     12 BR   UNL d   1       2.504  -3.962   0.000  0.00  0.00    -0.049 Br
ENDROOT
BRANCH   1  13
ATOM     13  S   UNL d   1       6.812  -3.975   0.000  0.00  0.00     0.215 S 
ATOM     14  O   UNL d   1       7.225  -4.692   0.000  0.00  0.00    -0.217 OA
ATOM     15  O   UNL d   1       6.400  -3.250   0.000  0.00  0.00    -0.217 OA
BRANCH  13  16
ATOM     16  C   UNL d   1       7.529  -3.562   0.000  0.00  0.00     0.088 A 
ATOM     17  C   UNL d   1       8.250  -3.975   0.000  0.00  0.00     0.011 A 
ATOM     18  C   UNL d   1       8.963  -3.562   0.000  0.00  0.00     0.001 A 
ATOM     19  C   UNL d   1       8.967  -2.737   0.000  0.00  0.00     0.000 A 
ATOM     20  C   UNL d   1       8.250  -2.325   0.000  0.00  0.00     0.001 A 
ATOM     21  C   UNL d   1       7.537  -2.737   0.000  0.00  0.00     0.011 A 
BRANCH  19  22
ATOM     22  C   UNL d   1       9.688  -2.325   0.000  0.00  0.00     0.000 C 
ATOM     23  C   UNL d   1      10.392  -2.737   0.000  0.00  0.00     0.000 C 
ATOM     24  C   UNL d   1       9.688  -1.500   0.000  0.00  0.00     0.000 C 
ENDBRANCH  19  22
ENDBRANCH  13  16
ENDBRANCH   1  13
TORSDOF 3
