REMARK  10 active torsions:
REMARK  status: ('A' for Active; 'I' for Inactive)
REMARK    1  A    between atoms: C_14  and  N_1 
REMARK    2  A    between atoms: C_7  and  N_3 
REMARK    3  A    between atoms: C_9  and  C_7 
REMARK       I    between atoms: N_18  and  C_9 
REMARK    4  A    between atoms: C_11  and  C_24 
REMARK       I    between atoms: N_12  and  C_11 
REMARK    5  A    between atoms: C_21  and  N_12 
REMARK    6  A    between atoms: C_13  and  C_25 
REMARK    7  A    between atoms: C_23  and  C_14 
REMARK    8  A    between atoms: C_22  and  N_18 
REMARK    9  A    between atoms: C_25  and  C_22 
REMARK   10  A    between atoms: C_24  and  C_23 
ROOT
ATOM      1  N   UNL d   1       5.037  -7.150   0.000  0.00  0.00    -0.226 N 
ATOM      2  C   UNL d   1       5.037  -7.975   0.000  0.00  0.00     0.342 A 
ATOM      3  N   UNL d   1       4.317  -8.387   0.000  0.00  0.00    -0.254 N 
ATOM      4  C   UNL d   1       4.317  -6.737   0.000  0.00  0.00     0.270 A 
ATOM      5  C   UNL d   1       3.604  -7.150   0.000  0.00  0.00     0.073 A 
ATOM      6  C   UNL d   1       3.604  -7.975   0.000  0.00  0.00     0.073 A 
ATOM      7  O   UNL d   1       5.754  -8.392   0.000  0.00  0.00    -0.245 OA
ATOM      8  O   UNL d   1       4.317  -5.912   0.000  0.00  0.00    -0.266 OA
ATOM      9  C   UNL d   1       2.892  -6.737   0.000  0.00  0.00     0.006 A 
ATOM     10  C   UNL d   1       2.892  -8.387   0.000  0.00  0.00     0.018 A 
ATOM     11  C   UNL d   1       2.179  -7.150   0.000  0.00  0.00     0.000 A 
ATOM     12  C   UNL d   1       2.179  -7.975   0.000  0.00  0.00     0.002 A 
ENDROOT
BRANCH   3  13
ATOM     13  C   UNL d   1       4.317  -9.213   0.000  0.00  0.00     0.147 C 
BRANCH  13  14
ATOM     14  C   UNL d   1       5.037  -9.617   0.000  0.00  0.00     0.297 C 
ATOM     15  O   UNL d   1       5.750  -9.204   0.000  0.00  0.00    -0.264 OA
ATOM     16  N   UNL d   1       5.050 -10.450   0.000  0.00  0.00    -0.205 NA
BRANCH  16  17
ATOM     17  C   UNL d   1       5.767 -10.863   0.000  0.00  0.00     0.102 C 
BRANCH  17  18
ATOM     18  C   UNL d   1       5.767 -11.688   0.000  0.00  0.00     0.021 C 
BRANCH  18  19
ATOM     19  C   UNL d   1       6.479 -12.104   0.000  0.00  0.00     0.002 A 
ATOM     20  C   UNL d   1       6.479 -12.929   0.000  0.00  0.00     0.000 A 
ATOM     21  C   UNL d   1       7.188 -13.342   0.000  0.00  0.00     0.000 A 
ATOM     22  C   UNL d   1       7.904 -12.929   0.000  0.00  0.00     0.000 A 
ATOM     23  C   UNL d   1       7.904 -12.104   0.000  0.00  0.00     0.000 A 
ATOM     24  C   UNL d   1       7.192 -11.688   0.000  0.00  0.00     0.000 A 
ENDBRANCH  18  19
ENDBRANCH  17  18
ENDBRANCH  16  17
ENDBRANCH  13  14
ENDBRANCH   3  13
BRANCH   1  25
ATOM     25  C   UNL d   1       5.754  -6.737   0.000  0.00  0.00     0.088 C 
BRANCH  25  26
ATOM     26  C   UNL d   1       5.763  -5.912   0.000  0.00  0.00     0.024 C 
BRANCH  26  27
ATOM     27  C   UNL d   1       6.475  -5.500   0.000  0.00  0.00     0.064 C 
BRANCH  27  28
ATOM     28  C   UNL d   1       6.467  -4.667   0.000  0.00  0.00     0.279 C 
ATOM     29  N   UNL d   1       7.179  -4.250   0.000  0.00  0.00    -0.208 NA
ATOM     30  O   UNL d   1       5.754  -4.254   0.000  0.00  0.00    -0.265 OA
BRANCH  29  31
ATOM     31  C   UNL d   1       7.188  -3.425   0.000  0.00  0.00     0.085 A 
ATOM     32  C   UNL d   1       7.800  -2.867   0.000  0.00  0.00     0.019 A 
ATOM     33  C   UNL d   1       7.463  -2.117   0.000  0.00  0.00     0.002 A 
ATOM     34  C   UNL d   1       6.642  -2.204   0.000  0.00  0.00     0.002 A 
ATOM     35  C   UNL d   1       6.467  -3.004   0.000  0.00  0.00     0.019 A 
ENDBRANCH  29  31
ENDBRANCH  27  28
ENDBRANCH  26  27
ENDBRANCH  25  26
ENDBRANCH   1  25
TORSDOF 10
