REMARK  6 active torsions:
REMARK  status: ('A' for Active; 'I' for Inactive)
REMARK    1  A    between atoms: C_7  and  C_1 
REMARK    2  A    between atoms: C_9  and  N_2 
REMARK    3  A    between atoms: C_15  and  C_7 
REMARK    4  A    between atoms: C_8  and  C_9 
REMARK       I    between atoms: N_14  and  C_8 
REMARK    5  A    between atoms: C_20  and  N_14 
REMARK    6  A    between atoms: C_34  and  C_33 
ROOT
ATOM      1  C   UNL d   1       0.893   1.303   0.000  0.00  0.00     0.095 A 
ATOM      2  N   UNL d   1       0.154   0.075   0.000  0.00  0.00    -0.300 N 
ATOM      3  C   UNL d   1       0.154   1.729   0.000  0.00  0.00     0.202 A 
ATOM      4  C   UNL d   1       0.893   0.484   0.000  0.00  0.00     0.087 A 
ATOM      5  C   UNL d   1      -0.564   1.303   0.000  0.00  0.00     0.056 A 
ATOM      6  C   UNL d   1      -0.576   0.484   0.000  0.00  0.00     0.067 A 
ATOM      7  C   UNL d   1      -1.298   0.084   0.000  0.00  0.00     0.018 A 
ATOM      8  C   UNL d   1      -1.298   1.712   0.000  0.00  0.00     0.016 A 
ATOM      9  O   UNL d   1       0.154   2.539   0.000  0.00  0.00    -0.286 OA
ATOM     10  C   UNL d   1      -2.017   1.303   0.000  0.00  0.00     0.058 A 
ATOM     11  C   UNL d   1      -2.017   0.488   0.000  0.00  0.00     0.013 A 
ATOM     12 CL   UNL d   1      -2.739   1.716   0.000  0.00  0.00    -0.082 Cl
ENDROOT
BRANCH   2  13
ATOM     13  C   UNL d   1       0.154  -0.739   0.000  0.00  0.00     0.144 C 
BRANCH  13  14
ATOM     14  C   UNL d   1       0.869  -1.152   0.000  0.00  0.00     0.297 C 
ATOM     15  N   UNL d   1       0.869  -1.971   0.000  0.00  0.00    -0.207 NA
ATOM     16  O   UNL d   1       1.578  -0.739   0.000  0.00  0.00    -0.264 OA
BRANCH  15  17
ATOM     17  C   UNL d   1       1.583  -2.384   0.000  0.00  0.00     0.087 A 
ATOM     18  C   UNL d   1       2.284  -1.971   0.000  0.00  0.00     0.045 A 
ATOM     19  C   UNL d   1       2.998  -2.380   0.000  0.00  0.00     0.121 A 
ATOM     20  O   UNL d   1       3.787  -2.104   0.000  0.00  0.00    -0.299 OA
ATOM     21  C   UNL d   1       2.998  -3.207   0.000  0.00  0.00     0.119 A 
ATOM     22  C   UNL d   1       4.288  -2.772   0.000  0.00  0.00     0.304 A 
ATOM     23  O   UNL d   1       3.800  -3.457   0.000  0.00  0.00    -0.300 OA
ATOM     24  C   UNL d   1       2.292  -3.620   0.000  0.00  0.00     0.028 A 
ATOM     25  C   UNL d   1       1.578  -3.207   0.000  0.00  0.00     0.021 A 
ENDBRANCH  15  17
ENDBRANCH  13  14
ENDBRANCH   2  13
BRANCH   1  26
ATOM     26  C   UNL d   1       1.607   1.712   0.000  0.00  0.00     0.200 C 
ATOM     27  O   UNL d   1       1.607   2.530   0.000  0.00  0.00    -0.286 OA
BRANCH  26  28
ATOM     28  C   UNL d   1       2.321   1.303   0.000  0.00  0.00     0.039 A 
ATOM     29  C   UNL d   1       3.048   1.712   0.000  0.00  0.00     0.003 A 
ATOM     30  C   UNL d   1       3.775   1.303   0.000  0.00  0.00     0.000 A 
ATOM     31  C   UNL d   1       3.775   0.484   0.000  0.00  0.00     0.000 A 
ATOM     32  C   UNL d   1       3.035   0.084   0.000  0.00  0.00     0.000 A 
ATOM     33  C   UNL d   1       2.309   0.488   0.000  0.00  0.00     0.003 A 
BRANCH  31  34
ATOM     34  C   UNL d   1       4.497   0.075   0.000  0.00  0.00     0.000 C 
ATOM     35  C   UNL d   1       4.484  -0.739   0.000  0.00  0.00     0.000 C 
ENDBRANCH  31  34
ENDBRANCH  26  28
ENDBRANCH   1  26
TORSDOF 6
