REMARK  9 active torsions:
REMARK  status: ('A' for Active; 'I' for Inactive)
REMARK    1  A    between atoms: C_7  and  C_1 
REMARK    2  A    between atoms: C_9  and  N_2 
REMARK    3  A    between atoms: C_14  and  C_7 
REMARK    4  A    between atoms: C_8  and  C_9 
REMARK       I    between atoms: N_11  and  C_8 
REMARK    5  A    between atoms: C_10  and  N_11 
REMARK    6  A    between atoms: O_30  and  C_19 
REMARK    7  A    between atoms: O_31  and  C_20 
REMARK    8  A    between atoms: C_32  and  C_25 
REMARK    9  A    between atoms: C_33  and  C_29 
ROOT
ATOM      1  C   UNL d   1       1.239   1.916   0.000  0.00  0.00     0.095 A 
ATOM      2  N   UNL d   1       0.503   0.694   0.000  0.00  0.00    -0.300 N 
ATOM      3  C   UNL d   1       0.503   2.340   0.000  0.00  0.00     0.202 A 
ATOM      4  C   UNL d   1       1.239   1.093   0.000  0.00  0.00     0.087 A 
ATOM      5  C   UNL d   1      -0.220   1.916   0.000  0.00  0.00     0.055 A 
ATOM      6  C   UNL d   1      -0.233   1.093   0.000  0.00  0.00     0.067 A 
ATOM      7  C   UNL d   1      -0.956   0.694   0.000  0.00  0.00     0.018 A 
ATOM      8  C   UNL d   1      -0.956   2.328   0.000  0.00  0.00     0.005 A 
ATOM      9  O   UNL d   1       0.503   3.151   0.000  0.00  0.00    -0.286 OA
ATOM     10  C   UNL d   1      -1.671   1.916   0.000  0.00  0.00     0.000 A 
ATOM     11  C   UNL d   1      -1.671   1.106   0.000  0.00  0.00     0.002 A 
ENDROOT
BRANCH   2  12
ATOM     12  C   UNL d   1       0.503  -0.129   0.000  0.00  0.00     0.144 C 
BRANCH  12  13
ATOM     13  C   UNL d   1       1.214  -0.540   0.000  0.00  0.00     0.297 C 
ATOM     14  N   UNL d   1       1.214  -1.363   0.000  0.00  0.00    -0.207 NA
ATOM     15  O   UNL d   1       1.925  -0.129   0.000  0.00  0.00    -0.264 OA
BRANCH  14  16
ATOM     16  C   UNL d   1       1.933  -1.775   0.000  0.00  0.00     0.089 A 
ATOM     17  C   UNL d   1       2.635  -1.363   0.000  0.00  0.00     0.043 A 
ATOM     18  C   UNL d   1       3.346  -1.763   0.000  0.00  0.00     0.098 A 
ATOM     19  C   UNL d   1       3.355  -2.598   0.000  0.00  0.00     0.049 A 
ATOM     20  C   UNL d   1       2.644  -3.010   0.000  0.00  0.00     0.098 A 
ATOM     21  C   UNL d   1       1.925  -2.598   0.000  0.00  0.00     0.043 A 
BRANCH  18  22
ATOM     22  O   UNL d   1       4.053  -1.351   0.000  0.00  0.00    -0.328 OA
ATOM     23  C   UNL d   1       4.045  -0.528   0.000  0.00  0.00     0.181 C 
ENDBRANCH  18  22
BRANCH  20  24
ATOM     24  O   UNL d   1       2.644  -3.820   0.000  0.00  0.00    -0.328 OA
ATOM     25  C   UNL d   1       3.355  -4.232   0.000  0.00  0.00     0.181 C 
ENDBRANCH  20  24
ENDBRANCH  14  16
ENDBRANCH  12  13
ENDBRANCH   2  12
BRANCH   1  26
ATOM     26  C   UNL d   1       1.958   2.328   0.000  0.00  0.00     0.200 C 
ATOM     27  O   UNL d   1       1.958   3.151   0.000  0.00  0.00    -0.286 OA
BRANCH  26  28
ATOM     28  C   UNL d   1       2.673   1.916   0.000  0.00  0.00     0.039 A 
ATOM     29  C   UNL d   1       3.396   2.328   0.000  0.00  0.00     0.003 A 
ATOM     30  C   UNL d   1       4.120   1.916   0.000  0.00  0.00     0.000 A 
ATOM     31  C   UNL d   1       4.120   1.093   0.000  0.00  0.00     0.000 A 
ATOM     32  C   UNL d   1       3.384   0.694   0.000  0.00  0.00     0.000 A 
ATOM     33  C   UNL d   1       2.660   1.106   0.000  0.00  0.00     0.003 A 
BRANCH  31  34
ATOM     34  C   UNL d   1       4.843   0.694   0.000  0.00  0.00     0.000 C 
ATOM     35  C   UNL d   1       4.830  -0.129   0.000  0.00  0.00     0.000 C 
ENDBRANCH  31  34
ENDBRANCH  26  28
ENDBRANCH   1  26
BRANCH  10  36
ATOM     36  C   UNL d   1      -2.382   2.332   0.000  0.00  0.00     0.000 C 
ATOM     37  C   UNL d   1      -2.378   3.163   0.000  0.00  0.00     0.000 C 
ENDBRANCH  10  36
TORSDOF 9
