REMARK  7 active torsions:
REMARK  status: ('A' for Active; 'I' for Inactive)
REMARK    1  A    between atoms: C_7  and  C_1 
REMARK    2  A    between atoms: C_9  and  N_2 
REMARK    3  A    between atoms: C_15  and  C_7 
REMARK    4  A    between atoms: C_8  and  C_9 
REMARK       I    between atoms: N_14  and  C_8 
REMARK    5  A    between atoms: C_20  and  N_14 
REMARK    6  A    between atoms: C_33  and  C_27 
REMARK    7  A    between atoms: C_34  and  C_32 
ROOT
ATOM      1  C   UNL d   1       1.244   1.303   0.000  0.00  0.00     0.095 A 
ATOM      2  N   UNL d   1       0.505   0.075   0.000  0.00  0.00    -0.300 N 
ATOM      3  C   UNL d   1       0.505   1.729   0.000  0.00  0.00     0.202 A 
ATOM      4  C   UNL d   1       1.244   0.484   0.000  0.00  0.00     0.087 A 
ATOM      5  C   UNL d   1      -0.209   1.303   0.000  0.00  0.00     0.055 A 
ATOM      6  C   UNL d   1      -0.221   0.484   0.000  0.00  0.00     0.067 A 
ATOM      7  C   UNL d   1      -0.948   0.084   0.000  0.00  0.00     0.018 A 
ATOM      8  C   UNL d   1      -0.948   1.712   0.000  0.00  0.00     0.005 A 
ATOM      9  O   UNL d   1       0.505   2.539   0.000  0.00  0.00    -0.286 OA
ATOM     10  C   UNL d   1      -1.662   1.303   0.000  0.00  0.00     0.000 A 
ATOM     11  C   UNL d   1      -1.662   0.488   0.000  0.00  0.00     0.002 A 
ENDROOT
BRANCH   2  12
ATOM     12  C   UNL d   1       0.505  -0.739   0.000  0.00  0.00     0.144 C 
BRANCH  12  13
ATOM     13  C   UNL d   1       1.219  -1.152   0.000  0.00  0.00     0.297 C 
ATOM     14  N   UNL d   1       1.219  -1.971   0.000  0.00  0.00    -0.207 NA
ATOM     15  O   UNL d   1       1.933  -0.739   0.000  0.00  0.00    -0.264 OA
BRANCH  14  16
ATOM     16  C   UNL d   1       1.933  -2.384   0.000  0.00  0.00     0.087 A 
ATOM     17  C   UNL d   1       2.635  -1.971   0.000  0.00  0.00     0.045 A 
ATOM     18  C   UNL d   1       3.349  -2.380   0.000  0.00  0.00     0.121 A 
ATOM     19  O   UNL d   1       4.138  -2.104   0.000  0.00  0.00    -0.299 OA
ATOM     20  C   UNL d   1       3.349  -3.207   0.000  0.00  0.00     0.119 A 
ATOM     21  C   UNL d   1       4.639  -2.772   0.000  0.00  0.00     0.304 A 
ATOM     22  O   UNL d   1       4.150  -3.457   0.000  0.00  0.00    -0.300 OA
ATOM     23  C   UNL d   1       2.647  -3.620   0.000  0.00  0.00     0.028 A 
ATOM     24  C   UNL d   1       1.933  -3.207   0.000  0.00  0.00     0.021 A 
ENDBRANCH  14  16
ENDBRANCH  12  13
ENDBRANCH   2  12
BRANCH   1  25
ATOM     25  C   UNL d   1       1.958   1.712   0.000  0.00  0.00     0.200 C 
ATOM     26  O   UNL d   1       1.958   2.530   0.000  0.00  0.00    -0.286 OA
BRANCH  25  27
ATOM     27  C   UNL d   1       2.672   1.303   0.000  0.00  0.00     0.039 A 
ATOM     28  C   UNL d   1       3.399   1.712   0.000  0.00  0.00     0.003 A 
ATOM     29  C   UNL d   1       4.125   1.303   0.000  0.00  0.00     0.000 A 
ATOM     30  C   UNL d   1       4.125   0.484   0.000  0.00  0.00     0.000 A 
ATOM     31  C   UNL d   1       3.386   0.084   0.000  0.00  0.00     0.000 A 
ATOM     32  C   UNL d   1       2.660   0.488   0.000  0.00  0.00     0.003 A 
BRANCH  30  33
ATOM     33  C   UNL d   1       4.852   0.075   0.000  0.00  0.00     0.000 C 
ATOM     34  C   UNL d   1       4.839  -0.739   0.000  0.00  0.00     0.000 C 
ENDBRANCH  30  33
ENDBRANCH  25  27
ENDBRANCH   1  25
BRANCH  10  35
ATOM     35  C   UNL d   1      -2.376   1.724   0.000  0.00  0.00     0.000 C 
ATOM     36  C   UNL d   1      -3.102   1.311   0.000  0.00  0.00     0.000 C 
ENDBRANCH  10  35
TORSDOF 7
