REMARK  5 active torsions:
REMARK  status: ('A' for Active; 'I' for Inactive)
REMARK    1  A    between atoms: C_2  and  S_1 
REMARK    2  A    between atoms: C_9  and  S_1 
REMARK    3  A    between atoms: N_5  and  C_3 
REMARK    4  A    between atoms: O_28  and  C_23 
REMARK    5  A    between atoms: O_29  and  C_24 
ROOT
ATOM      1  C   UNL d   1       6.429  -4.763   0.000  0.00  0.00     0.123 A 
ATOM      2  C   UNL d   1       5.717  -4.350   0.000  0.00  0.00     0.078 A 
ATOM      3  C   UNL d   1       5.004  -4.763   0.000  0.00  0.00     0.036 A 
ATOM      4  C   UNL d   1       6.429  -5.588   0.000  0.00  0.00     0.112 A 
ATOM      5  N   UNL d   1       5.717  -6.000   0.000  0.00  0.00    -0.243 NA
ATOM      6  C   UNL d   1       5.004  -5.588   0.000  0.00  0.00     0.083 A 
ATOM      7  C   UNL d   1       4.292  -4.350   0.000  0.00  0.00     0.027 A 
ATOM      8  C   UNL d   1       4.292  -6.000   0.000  0.00  0.00     0.021 A 
ATOM      9  C   UNL d   1       3.579  -4.763   0.000  0.00  0.00     0.094 A 
ATOM     10  C   UNL d   1       3.579  -5.588   0.000  0.00  0.00     0.026 A 
ENDROOT
BRANCH   1  11
ATOM     11  S   UNL d   1       7.154  -4.350   0.000  0.00  0.00     0.213 S 
ATOM     12  O   UNL d   1       7.567  -5.075   0.000  0.00  0.00    -0.217 OA
ATOM     13  O   UNL d   1       6.742  -3.629   0.000  0.00  0.00    -0.217 OA
BRANCH  11  14
ATOM     14  C   UNL d   1       7.879  -3.938   0.000  0.00  0.00     0.088 A 
ATOM     15  C   UNL d   1       7.879  -3.112   0.000  0.00  0.00     0.013 A 
ATOM     16  C   UNL d   1       8.592  -2.700   0.000  0.00  0.00     0.025 A 
ATOM     17  C   UNL d   1       9.317  -3.117   0.000  0.00  0.00     0.094 A 
ATOM     18  C   UNL d   1       9.304  -3.950   0.000  0.00  0.00     0.025 A 
ATOM     19  C   UNL d   1       8.592  -4.354   0.000  0.00  0.00     0.013 A 
BRANCH  17  20
ATOM     20  O   UNL d   1      10.037  -2.704   0.000  0.00  0.00    -0.328 OA
ATOM     21  C   UNL d   1      10.042  -1.879   0.000  0.00  0.00     0.181 C 
ENDBRANCH  17  20
ENDBRANCH  11  14
ENDBRANCH   1  11
BRANCH   2  22
ATOM     22  N   UNL d   1       5.717  -3.525   0.000  0.00  0.00    -0.303 N 
ATOM     23  C   UNL d   1       5.004  -3.112   0.000  0.00  0.00     0.081 A 
ATOM     24  C   UNL d   1       5.004  -2.279   0.000  0.00  0.00     0.053 A 
ATOM     25  C   UNL d   1       5.717  -1.867   0.000  0.00  0.00     0.239 A 
ATOM     26  C   UNL d   1       6.442  -2.279   0.000  0.00  0.00     0.053 A 
ATOM     27  O   UNL d   1       6.392  -1.375   0.000  0.00  0.00    -0.298 OA
ATOM     28  O   UNL d   1       5.054  -1.379   0.000  0.00  0.00    -0.298 OA
ATOM     29  C   UNL d   1       6.442  -3.112   0.000  0.00  0.00     0.081 A 
ATOM     30  C   UNL d   1       6.129  -0.588   0.000  0.00  0.00     0.146 A 
ATOM     31  C   UNL d   1       5.304  -0.592   0.000  0.00  0.00     0.146 A 
ENDBRANCH   2  22
BRANCH   9  32
ATOM     32  O   UNL d   1       2.867  -4.342   0.000  0.00  0.00    -0.328 OA
ATOM     33  C   UNL d   1       2.150  -4.754   0.000  0.00  0.00     0.181 C 
ENDBRANCH   9  32
TORSDOF 5
