REMARK  4 active torsions:
REMARK  status: ('A' for Active; 'I' for Inactive)
REMARK    1  A    between atoms: N_3  and  C_2 
REMARK       I    between atoms: C_6  and  N_3 
REMARK    2  A    between atoms: C_8  and  C_4 
REMARK    3  A    between atoms: C_9  and  C_6 
REMARK    4  A    between atoms: C_12  and  C_8 
ROOT
ATOM      1  N   UNL d   1       5.069  -3.518   0.000  0.00  0.00    -0.181 NA
ATOM      2  C   UNL d   1       4.464  -2.955   0.000  0.00  0.00     0.281 C 
ATOM      3  O   UNL d   1       4.643  -2.155   0.000  0.00  0.00    -0.265 OA
ENDROOT
BRANCH   1   4
ATOM      4  C   UNL d   1       5.856  -3.280   0.000  0.00  0.00     0.216 A 
ATOM      5  N   UNL d   1       6.515  -3.776   0.000  0.00  0.00    -0.200 NA
ATOM      6  C   UNL d   1       7.194  -3.301   0.000  0.00  0.00     0.175 A 
ATOM      7  N   UNL d   1       6.944  -2.505   0.000  0.00  0.00    -0.187 NA
ATOM      8  S   UNL d   1       6.127  -2.501   0.000  0.00  0.00     0.054 SA
BRANCH   6   9
ATOM      9  C   UNL d   1       7.970  -3.568   0.000  0.00  0.00     0.082 C 
BRANCH   9  10
ATOM     10  C   UNL d   1       8.595  -3.026   0.000  0.00  0.00     0.199 C 
ATOM     11  O   UNL d   1       8.432  -2.217   0.000  0.00  0.00    -0.286 OA
ATOM     12  C   UNL d   1       9.379  -3.293   0.000  0.00  0.00     0.045 C 
ENDBRANCH   9  10
ENDBRANCH   6   9
ENDBRANCH   1   4
BRANCH   2  13
ATOM     13  C   UNL d   1       3.676  -3.201   0.000  0.00  0.00     0.060 A 
ATOM     14  C   UNL d   1       3.068  -2.639   0.000  0.00  0.00     0.034 A 
ATOM     15  C   UNL d   1       2.280  -2.880   0.000  0.00  0.00     0.140 A 
ATOM     16  F   UNL d   1       1.680  -2.313   0.000  0.00  0.00    -0.204 F 
ATOM     17  C   UNL d   1       2.101  -3.681   0.000  0.00  0.00     0.030 A 
ATOM     18  C   UNL d   1       2.705  -4.243   0.000  0.00  0.00     0.003 A 
ATOM     19  C   UNL d   1       3.493  -4.002   0.000  0.00  0.00     0.005 A 
ENDBRANCH   2  13
TORSDOF 4
