REMARK  2 active torsions:
REMARK  status: ('A' for Active; 'I' for Inactive)
REMARK    1  A    between atoms: C_7  and  C_1 
REMARK       I    between atoms: N_13  and  C_7 
REMARK    2  A    between atoms: C_18  and  N_13 
ROOT
ATOM      1  N   UNL d   1      -5.255   9.254   0.000  0.00  0.00    -0.191 NA
ATOM      2  C   UNL d   1      -5.973   9.675   0.000  0.00  0.00     0.101 C 
ATOM      3  C   UNL d   1      -8.122  10.939   0.000  0.00  0.00     0.085 A 
ATOM      4  C   UNL d   1      -6.692  10.096   0.000  0.00  0.00     0.068 A 
ATOM      5  C   UNL d   1      -7.403  11.336   0.000  0.00  0.00     0.020 A 
ATOM      6  C   UNL d   1      -8.122  10.096   0.000  0.00  0.00     0.020 A 
ATOM      7  C   UNL d   1      -6.684  10.931   0.000  0.00  0.00     0.012 A 
ATOM      8  C   UNL d   1      -7.403   9.691   0.000  0.00  0.00     0.012 A 
ENDROOT
BRANCH   3   9
ATOM      9  N   UNL d   1      -8.840  11.336   0.000  0.00  0.00    -0.208 NA
ATOM     10  C   UNL d   1      -8.816  12.170   0.000  0.00  0.00     0.283 C 
ATOM     11  O   UNL d   1      -8.122  12.575   0.000  0.00  0.00    -0.265 OA
BRANCH  10  12
ATOM     12  C   UNL d   1      -9.534  12.575   0.000  0.00  0.00     0.101 A 
ATOM     13  C   UNL d   1     -10.253  12.178   0.000  0.00  0.00     0.208 A 
ATOM     14  O   UNL d   1     -10.972  12.575   0.000  0.00  0.00    -0.288 OA
ATOM     15  N   UNL d   1     -10.253  11.336   0.000  0.00  0.00    -0.121 N 
ATOM     16  C   UNL d   1     -10.972  13.418   0.000  0.00  0.00     0.103 A 
ATOM     17  C   UNL d   1     -10.237  13.814   0.000  0.00  0.00     0.023 A 
ATOM     18  C   UNL d   1     -11.666  13.814   0.000  0.00  0.00     0.039 A 
ATOM     19  C   UNL d   1      -9.534  13.418   0.000  0.00  0.00     0.010 A 
ATOM     20  C   UNL d   1     -10.228  14.657   0.000  0.00  0.00     0.003 A 
ATOM     21  C   UNL d   1     -10.947  15.054   0.000  0.00  0.00     0.016 A 
ATOM     22  C   UNL d   1     -11.666  14.657   0.000  0.00  0.00     0.066 A 
ATOM     23  C   UNL d   1     -10.972  15.896   0.000  0.00  0.00     0.003 A 
ATOM     24  N   UNL d   1     -12.352  15.054   0.000  0.00  0.00    -0.304 N 
ATOM     25  C   UNL d   1     -13.071  14.657   0.000  0.00  0.00     0.080 A 
ATOM     26  C   UNL d   1     -12.352  15.896   0.000  0.00  0.00     0.080 A 
ATOM     27  C   UNL d   1     -13.071  13.814   0.000  0.00  0.00     0.019 A 
ATOM     28  C   UNL d   1     -12.377  13.418   0.000  0.00  0.00     0.005 A 
ATOM     29  C   UNL d   1     -11.649  16.293   0.000  0.00  0.00     0.019 A 
ENDBRANCH  10  12
ENDBRANCH   3   9
TORSDOF 2
