REMARK  3 active torsions:
REMARK  status: ('A' for Active; 'I' for Inactive)
REMARK       I    between atoms: C_6  and  N_1 
REMARK    1  A    between atoms: C_11  and  C_5 
REMARK    2  A    between atoms: C_12  and  C_6 
REMARK    3  A    between atoms: C_14  and  C_15 
ROOT
ATOM      1  N   UNL d   1       5.897  -6.259   0.000  0.00  0.00    -0.264 N 
ATOM      2  C   UNL d   1       6.513  -6.813   0.000  0.00  0.00     0.198 A 
ATOM      3  C   UNL d   1       6.226  -5.514   0.000  0.00  0.00     0.138 A 
ATOM      4  N   UNL d   1       7.221  -6.409   0.000  0.00  0.00    -0.243 NA
ATOM      5  C   UNL d   1       7.046  -5.601   0.000  0.00  0.00     0.105 A 
ATOM      6  C   UNL d   1       5.076  -6.413   0.000  0.00  0.00     0.263 C 
ATOM      7  C   UNL d   1       7.225  -7.225   0.000  0.00  0.00     0.041 A 
ATOM      8  C   UNL d   1       5.801  -7.225   0.000  0.00  0.00     0.041 A 
ATOM      9  S   UNL d   1       5.809  -4.797   0.000  0.00  0.00    -0.058 SA
ATOM     10  N   UNL d   1       6.513  -8.470   0.000  0.00  0.00    -0.302 N 
ATOM     11  O   UNL d   1       4.802  -7.188   0.000  0.00  0.00    -0.267 OA
ATOM     12  C   UNL d   1       5.801  -8.058   0.000  0.00  0.00     0.080 A 
ATOM     13  C   UNL d   1       7.225  -8.058   0.000  0.00  0.00     0.080 A 
ATOM     14  C   UNL d   1       6.513  -9.295   0.000  0.00  0.00     0.100 C 
ENDROOT
BRANCH   6  15
ATOM     15  C   UNL d   1       4.548  -5.788   0.000  0.00  0.00     0.056 A 
ATOM     16  C   UNL d   1       4.822  -5.014   0.000  0.00  0.00     0.004 A 
ATOM     17  C   UNL d   1       4.289  -4.389   0.000  0.00  0.00    -0.004 A 
ATOM     18  C   UNL d   1       3.477  -4.539   0.000  0.00  0.00    -0.023 A 
ATOM     19  C   UNL d   1       3.203  -5.314   0.000  0.00  0.00    -0.004 A 
ATOM     20  C   UNL d   1       3.740  -5.939   0.000  0.00  0.00     0.004 A 
BRANCH  18  21
ATOM     21  C   UNL d   1       2.940  -3.910   0.000  0.00  0.00     0.019 C 
ATOM     22  C   UNL d   1       3.573  -3.373   0.000  0.00  0.00     0.004 C 
ATOM     23  C   UNL d   1       2.315  -4.439   0.000  0.00  0.00     0.004 C 
ATOM     24  C   UNL d   1       2.403  -3.277   0.000  0.00  0.00     0.004 C 
ENDBRANCH  18  21
ENDBRANCH   6  15
BRANCH   5  25
ATOM     25  C   UNL d   1       7.563  -4.964   0.000  0.00  0.00     0.020 A 
ATOM     26  C   UNL d   1       7.271  -4.189   0.000  0.00  0.00     0.004 A 
ATOM     27  C   UNL d   1       7.796  -3.552   0.000  0.00  0.00     0.030 A 
ATOM     28  C   UNL d   1       8.612  -3.686   0.000  0.00  0.00     0.140 A 
ATOM     29  C   UNL d   1       8.899  -4.460   0.000  0.00  0.00     0.030 A 
ATOM     30  F   UNL d   1       9.137  -3.040   0.000  0.00  0.00    -0.204 F 
ATOM     31  C   UNL d   1       8.383  -5.097   0.000  0.00  0.00     0.004 A 
ENDBRANCH   5  25
TORSDOF 3
