REMARK  5 active torsions:
REMARK  status: ('A' for Active; 'I' for Inactive)
REMARK    1  A    between atoms: C_14  and  N_3 
REMARK    2  A    between atoms: C_15  and  C_9 
REMARK    3  A    between atoms: O_22  and  C_12 
REMARK    4  A    between atoms: O_23  and  C_13 
REMARK    5  A    between atoms: C_16  and  C_14 
ROOT
ATOM      1  C   UNL d   1       6.325  -2.354   0.000  0.00  0.00     0.056 A 
ATOM      2  C   UNL d   1       5.604  -1.942   0.000  0.00  0.00     0.107 A 
ATOM      3  N   UNL d   1       5.604  -3.592   0.000  0.00  0.00    -0.304 N 
ATOM      4  C   UNL d   1       4.892  -2.354   0.000  0.00  0.00     0.038 A 
ATOM      5  N   UNL d   1       5.779  -1.137   0.000  0.00  0.00    -0.148 NA
ATOM      6  C   UNL d   1       6.325  -3.179   0.000  0.00  0.00     0.083 A 
ATOM      7  N   UNL d   1       6.600  -1.054   0.000  0.00  0.00    -0.148 NA
ATOM      8  C   UNL d   1       4.892  -3.179   0.000  0.00  0.00     0.068 A 
ATOM      9  C   UNL d   1       6.942  -1.800   0.000  0.00  0.00     0.106 A 
ATOM     10  C   UNL d   1       4.179  -3.592   0.000  0.00  0.00     0.044 A 
ATOM     11  C   UNL d   1       4.179  -1.942   0.000  0.00  0.00     0.029 A 
ATOM     12  C   UNL d   1       3.467  -3.179   0.000  0.00  0.00     0.118 A 
ATOM     13  C   UNL d   1       3.467  -2.354   0.000  0.00  0.00     0.116 A 
ENDROOT
BRANCH   3  14
ATOM     14  C   UNL d   1       5.604  -4.417   0.000  0.00  0.00     0.080 C 
BRANCH  14  15
ATOM     15  C   UNL d   1       6.317  -4.829   0.000  0.00  0.00     0.020 A 
ATOM     16  C   UNL d   1       6.317  -5.662   0.000  0.00  0.00     0.031 A 
ATOM     17  C   UNL d   1       7.029  -6.075   0.000  0.00  0.00     0.140 A 
ATOM     18  F   UNL d   1       7.025  -6.900   0.000  0.00  0.00    -0.204 F 
ATOM     19  C   UNL d   1       7.754  -5.662   0.000  0.00  0.00     0.030 A 
ATOM     20  C   UNL d   1       7.754  -4.829   0.000  0.00  0.00     0.002 A 
ATOM     21  C   UNL d   1       7.037  -4.417   0.000  0.00  0.00     0.002 A 
ENDBRANCH  14  15
ENDBRANCH   3  14
BRANCH   9  22
ATOM     22  C   UNL d   1       7.763  -1.879   0.000  0.00  0.00     0.020 A 
ATOM     23  C   UNL d   1       8.242  -1.204   0.000  0.00  0.00     0.004 A 
ATOM     24  C   UNL d   1       9.067  -1.288   0.000  0.00  0.00     0.030 A 
ATOM     25  C   UNL d   1       9.404  -2.029   0.000  0.00  0.00     0.140 A 
ATOM     26  C   UNL d   1       8.929  -2.704   0.000  0.00  0.00     0.030 A 
ATOM     27  F   UNL d   1      10.229  -2.100   0.000  0.00  0.00    -0.204 F 
ATOM     28  C   UNL d   1       8.104  -2.629   0.000  0.00  0.00     0.004 A 
ENDBRANCH   9  22
BRANCH  12  29
ATOM     29  O   UNL d   1       2.742  -3.604   0.000  0.00  0.00    -0.326 OA
ATOM     30  C   UNL d   1       2.025  -3.192   0.000  0.00  0.00     0.181 C 
ENDBRANCH  12  29
BRANCH  13  31
ATOM     31  O   UNL d   1       2.742  -1.942   0.000  0.00  0.00    -0.326 OA
ATOM     32  C   UNL d   1       2.029  -2.362   0.000  0.00  0.00     0.181 C 
ENDBRANCH  13  31
TORSDOF 5
