REMARK  6 active torsions:
REMARK  status: ('A' for Active; 'I' for Inactive)
REMARK    1  A    between atoms: C_6  and  C_2 
REMARK    2  A    between atoms: C_7  and  C_6 
REMARK    3  A    between atoms: C_8  and  C_15 
REMARK       I    between atoms: N_9  and  C_8 
REMARK    4  A    between atoms: C_16  and  N_9 
REMARK    5  A    between atoms: O_13  and  C_12 
REMARK    6  A    between atoms: C_15  and  O_13 
ROOT
ATOM      1  C   UNL d   1       2.817  -2.421   0.000  0.00  0.00     0.023 A 
ATOM      2  C   UNL d   1       2.033  -2.166   0.000  0.00  0.00     0.100 A 
ATOM      3  C   UNL d   1       2.993  -3.222   0.000  0.00  0.00     0.002 A 
ATOM      4  C   UNL d   1       1.419  -2.717   0.000  0.00  0.00     0.025 A 
ATOM      5  C   UNL d   1       2.383  -3.782   0.000  0.00  0.00     0.000 A 
ATOM      6  C   UNL d   1       1.595  -3.523   0.000  0.00  0.00     0.002 A 
ENDROOT
BRANCH   2   7
ATOM      7  O   UNL d   1       1.857  -1.357   0.000  0.00  0.00    -0.300 OA
BRANCH   7   8
ATOM      8  C   UNL d   1       2.479  -0.806   0.000  0.00  0.00     0.185 C 
BRANCH   8   9
ATOM      9  C   UNL d   1       2.308   0.008   0.000  0.00  0.00     0.304 C 
ATOM     10  N   UNL d   1       1.519   0.259   0.000  0.00  0.00    -0.206 NA
ATOM     11  O   UNL d   1       2.922   0.559   0.000  0.00  0.00    -0.263 OA
BRANCH  10  12
ATOM     12  C   UNL d   1       0.906  -0.292   0.000  0.00  0.00     0.085 A 
ATOM     13  C   UNL d   1       0.117  -0.029   0.000  0.00  0.00     0.019 A 
ATOM     14  C   UNL d   1      -0.501  -0.576   0.000  0.00  0.00     0.002 A 
ATOM     15  C   UNL d   1      -0.334  -1.390   0.000  0.00  0.00     0.000 A 
ATOM     16  C   UNL d   1       0.455  -1.645   0.000  0.00  0.00     0.002 A 
ATOM     17  C   UNL d   1       1.069  -1.094   0.000  0.00  0.00     0.019 A 
ENDBRANCH  10  12
ENDBRANCH   8   9
ENDBRANCH   7   8
ENDBRANCH   2   7
BRANCH   1  18
ATOM     18  C   UNL d   1       3.435  -1.870   0.000  0.00  0.00     0.013 C 
BRANCH  18  19
ATOM     19  C   UNL d   1       4.220  -2.120   0.000  0.00  0.00     0.092 A 
ATOM     20  C   UNL d   1       4.884  -1.640   0.000  0.00  0.00     0.288 A 
ATOM     21  N   UNL d   1       5.551  -2.120   0.000  0.00  0.00    -0.163 NA
ATOM     22  O   UNL d   1       4.884  -0.814   0.000  0.00  0.00    -0.265 OA
ATOM     23  C   UNL d   1       5.297  -2.909   0.000  0.00  0.00     0.313 A 
ATOM     24  S   UNL d   1       4.470  -2.909   0.000  0.00  0.00    -0.021 SA
ATOM     25  O   UNL d   1       5.785  -3.581   0.000  0.00  0.00    -0.258 OA
ENDBRANCH  18  19
ENDBRANCH   1  18
TORSDOF 6
