REMARK  10 active torsions:
REMARK  status: ('A' for Active; 'I' for Inactive)
REMARK    1  A    between atoms: C_9  and  S_1 
REMARK    2  A    between atoms: N_20  and  S_1 
REMARK    3  A    between atoms: S_2  and  C_10 
REMARK    4  A    between atoms: N_19  and  S_2 
REMARK    5  A    between atoms: C_28  and  N_19 
REMARK    6  A    between atoms: C_29  and  N_20 
REMARK    7  A    between atoms: C_24  and  C_28 
REMARK    8  A    between atoms: C_30  and  C_24 
REMARK    9  A    between atoms: C_25  and  C_29 
REMARK   10  A    between atoms: C_31  and  C_25 
ROOT
ATOM      1  C   UNL d   1       4.328  -1.105   0.000  0.00  0.00     0.300 A 
ATOM      2  C   UNL d   1       4.729  -0.392   0.000  0.00  0.00     0.064 A 
ATOM      3  C   UNL d   1       3.082  -0.413   0.000  0.00  0.00     0.104 A 
ATOM      4  O   UNL d   1       3.507  -1.118   0.000  0.00  0.00    -0.273 OA
ATOM      5  C   UNL d   1       4.308   0.313   0.000  0.00  0.00     0.007 A 
ATOM      6  C   UNL d   1       3.482   0.308   0.000  0.00  0.00     0.023 A 
ATOM      7  C   UNL d   1       5.955   0.334   0.000  0.00  0.00     0.105 A 
ATOM      8  C   UNL d   1       1.831   0.271   0.000  0.00  0.00     0.107 A 
ATOM      9  C   UNL d   1       5.546  -0.380   0.000  0.00  0.00     0.018 A 
ATOM     10  C   UNL d   1       2.256  -0.429   0.000  0.00  0.00     0.038 A 
ATOM     11  C   UNL d   1       4.708   1.034   0.000  0.00  0.00     0.001 A 
ATOM     12  C   UNL d   1       3.057   1.013   0.000  0.00  0.00     0.003 A 
ATOM     13  O   UNL d   1       4.745  -1.818   0.000  0.00  0.00    -0.259 OA
ATOM     14  C   UNL d   1       5.529   1.047   0.000  0.00  0.00     0.013 A 
ATOM     15  C   UNL d   1       2.231   0.997   0.000  0.00  0.00     0.013 A 
ENDROOT
BRANCH   7  16
ATOM     16  S   UNL d   1       6.780   0.346   0.000  0.00  0.00     0.285 S 
ATOM     17  O   UNL d   1       7.197  -0.363   0.000  0.00  0.00    -0.198 OA
ATOM     18  O   UNL d   1       7.185   1.072   0.000  0.00  0.00    -0.198 OA
BRANCH  16  19
ATOM     19  N   UNL d   1       7.606   0.346   0.000  0.00  0.00    -0.157 NA
BRANCH  19  20
ATOM     20  C   UNL d   1       8.019  -0.367   0.000  0.00  0.00     0.116 C 
BRANCH  20  21
ATOM     21  C   UNL d   1       8.845  -0.363   0.000  0.00  0.00     0.067 C 
BRANCH  21  22
ATOM     22  C   UNL d   1       9.261  -1.076   0.000  0.00  0.00     0.236 C 
ATOM     23  O   UNL d   1      10.087  -1.067   0.000  0.00  0.00    -0.283 OA
ENDBRANCH  21  22
ENDBRANCH  20  21
ENDBRANCH  19  20
ENDBRANCH  16  19
ENDBRANCH   7  16
BRANCH   8  24
ATOM     24  S   UNL d   1       1.005   0.263   0.000  0.00  0.00     0.285 S 
ATOM     25  O   UNL d   1       0.601  -0.455   0.000  0.00  0.00    -0.198 OA
ATOM     26  O   UNL d   1       0.588   0.972   0.000  0.00  0.00    -0.198 OA
BRANCH  24  27
ATOM     27  N   UNL d   1       0.179   0.263   0.000  0.00  0.00    -0.157 NA
BRANCH  27  28
ATOM     28  C   UNL d   1      -0.234   0.976   0.000  0.00  0.00     0.116 C 
BRANCH  28  29
ATOM     29  C   UNL d   1      -1.059   0.984   0.000  0.00  0.00     0.067 C 
BRANCH  29  30
ATOM     30  C   UNL d   1      -1.472   1.697   0.000  0.00  0.00     0.236 C 
ATOM     31  O   UNL d   1      -2.298   1.697   0.000  0.00  0.00    -0.283 OA
ENDBRANCH  29  30
ENDBRANCH  28  29
ENDBRANCH  27  28
ENDBRANCH  24  27
ENDBRANCH   8  24
TORSDOF 10
