REMARK  6 active torsions:
REMARK  status: ('A' for Active; 'I' for Inactive)
REMARK    1  A    between atoms: C_8  and  N_1 
REMARK    2  A    between atoms: C_6  and  C_3 
REMARK    3  A    between atoms: C_7  and  C_6 
REMARK       I    between atoms: N_11  and  C_7 
REMARK    4  A    between atoms: C_9  and  C_8 
REMARK       I    between atoms: N_12  and  C_9 
REMARK    5  A    between atoms: C_17  and  N_11 
REMARK    6  A    between atoms: C_16  and  N_12 
ROOT
ATOM      1  N   UNL d   1       7.181  -3.724   0.000  0.00  0.00    -0.230 N 
ATOM      2  C   UNL d   1       7.439  -2.937   0.000  0.00  0.00     0.299 A 
ATOM      3  C   UNL d   1       6.108  -2.937   0.000  0.00  0.00     0.095 A 
ATOM      4  C   UNL d   1       6.357  -3.724   0.000  0.00  0.00     0.274 A 
ATOM      5  S   UNL d   1       6.769  -2.459   0.000  0.00  0.00    -0.022 SA
ATOM      6  O   UNL d   1       8.225  -2.688   0.000  0.00  0.00    -0.259 OA
ATOM      7  O   UNL d   1       5.870  -4.393   0.000  0.00  0.00    -0.266 OA
ENDROOT
BRANCH   1   8
ATOM      8  C   UNL d   1       7.668  -4.393   0.000  0.00  0.00     0.149 C 
BRANCH   8   9
ATOM      9  C   UNL d   1       7.331  -5.146   0.000  0.00  0.00     0.297 C 
ATOM     10  N   UNL d   1       7.813  -5.808   0.000  0.00  0.00    -0.207 NA
ATOM     11  O   UNL d   1       6.507  -5.230   0.000  0.00  0.00    -0.264 OA
BRANCH  10  12
ATOM     12  C   UNL d   1       7.476  -6.565   0.000  0.00  0.00     0.085 A 
ATOM     13  C   UNL d   1       7.963  -7.227   0.000  0.00  0.00     0.019 A 
ATOM     14  C   UNL d   1       7.630  -7.980   0.000  0.00  0.00     0.002 A 
ATOM     15  C   UNL d   1       6.807  -8.067   0.000  0.00  0.00     0.000 A 
ATOM     16  C   UNL d   1       6.320  -7.393   0.000  0.00  0.00     0.002 A 
ATOM     17  C   UNL d   1       6.470  -8.816   0.000  0.00  0.00     0.000 C 
ATOM     18  C   UNL d   1       6.657  -6.644   0.000  0.00  0.00     0.019 A 
ENDBRANCH  10  12
ENDBRANCH   8   9
ENDBRANCH   1   8
BRANCH   3  19
ATOM     19  C   UNL d   1       5.321  -2.688   0.000  0.00  0.00     0.074 C 
BRANCH  19  20
ATOM     20  C   UNL d   1       5.146  -1.885   0.000  0.00  0.00     0.280 C 
ATOM     21  N   UNL d   1       4.369  -1.627   0.000  0.00  0.00    -0.208 NA
ATOM     22  O   UNL d   1       5.758  -1.327   0.000  0.00  0.00    -0.265 OA
BRANCH  21  23
ATOM     23  C   UNL d   1       4.198  -0.824   0.000  0.00  0.00     0.085 A 
ATOM     24  C   UNL d   1       4.809  -0.275   0.000  0.00  0.00     0.020 A 
ATOM     25  C   UNL d   1       4.635   0.532   0.000  0.00  0.00     0.013 A 
ATOM     26  C   UNL d   1       3.857   0.786   0.000  0.00  0.00     0.058 A 
ATOM     27  C   UNL d   1       3.237   0.233   0.000  0.00  0.00     0.013 A 
ATOM     28 CL   UNL d   1       3.682   1.593   0.000  0.00  0.00    -0.082 Cl
ATOM     29  C   UNL d   1       3.412  -0.574   0.000  0.00  0.00     0.020 A 
ENDBRANCH  21  23
ENDBRANCH  19  20
ENDBRANCH   3  19
TORSDOF 6
