REMARK  6 active torsions:
REMARK  status: ('A' for Active; 'I' for Inactive)
REMARK    1  A    between atoms: C_6  and  C_2 
REMARK    2  A    between atoms: C_7  and  C_6 
REMARK    3  A    between atoms: C_8  and  C_15 
REMARK       I    between atoms: N_9  and  C_8 
REMARK    4  A    between atoms: C_16  and  N_9 
REMARK    5  A    between atoms: O_13  and  C_12 
REMARK    6  A    between atoms: C_15  and  O_13 
ROOT
ATOM      1  C   UNL d   1       2.808  -2.413   0.000  0.00  0.00     0.023 A 
ATOM      2  C   UNL d   1       2.026  -2.159   0.000  0.00  0.00     0.100 A 
ATOM      3  C   UNL d   1       2.983  -3.212   0.000  0.00  0.00     0.002 A 
ATOM      4  C   UNL d   1       1.415  -2.708   0.000  0.00  0.00     0.025 A 
ATOM      5  C   UNL d   1       2.376  -3.769   0.000  0.00  0.00     0.000 A 
ATOM      6  C   UNL d   1       1.589  -3.511   0.000  0.00  0.00     0.002 A 
ENDROOT
BRANCH   2   7
ATOM      7  O   UNL d   1       1.851  -1.352   0.000  0.00  0.00    -0.300 OA
BRANCH   7   8
ATOM      8  C   UNL d   1       2.471  -0.803   0.000  0.00  0.00     0.185 C 
BRANCH   8   9
ATOM      9  C   UNL d   1       2.301   0.008   0.000  0.00  0.00     0.304 C 
ATOM     10  N   UNL d   1       1.514   0.258   0.000  0.00  0.00    -0.206 NA
ATOM     11  O   UNL d   1       2.912   0.557   0.000  0.00  0.00    -0.263 OA
BRANCH  10  12
ATOM     12  C   UNL d   1       0.903  -0.291   0.000  0.00  0.00     0.085 A 
ATOM     13  C   UNL d   1       1.065  -1.098   0.000  0.00  0.00     0.021 A 
ATOM     14  C   UNL d   1       0.449  -1.652   0.000  0.00  0.00     0.031 A 
ATOM     15  C   UNL d   1      -0.337  -1.390   0.000  0.00  0.00     0.140 A 
ATOM     16  C   UNL d   1      -0.499  -0.578   0.000  0.00  0.00     0.031 A 
ATOM     17  F   UNL d   1      -0.957  -1.935   0.000  0.00  0.00    -0.204 F 
ATOM     18  C   UNL d   1       0.117  -0.029   0.000  0.00  0.00     0.021 A 
ENDBRANCH  10  12
ENDBRANCH   8   9
ENDBRANCH   7   8
ENDBRANCH   2   7
BRANCH   1  19
ATOM     19  C   UNL d   1       3.424  -1.864   0.000  0.00  0.00     0.013 C 
BRANCH  19  20
ATOM     20  C   UNL d   1       4.206  -2.114   0.000  0.00  0.00     0.092 A 
ATOM     21  C   UNL d   1       4.868  -1.635   0.000  0.00  0.00     0.288 A 
ATOM     22  N   UNL d   1       5.533  -2.114   0.000  0.00  0.00    -0.163 NA
ATOM     23  O   UNL d   1       4.868  -0.811   0.000  0.00  0.00    -0.265 OA
ATOM     24  C   UNL d   1       5.280  -2.900   0.000  0.00  0.00     0.313 A 
ATOM     25  S   UNL d   1       4.456  -2.900   0.000  0.00  0.00    -0.021 SA
ATOM     26  O   UNL d   1       5.766  -3.570   0.000  0.00  0.00    -0.258 OA
ENDBRANCH  19  20
ENDBRANCH   1  19
TORSDOF 6
