REMARK  6 active torsions:
REMARK  status: ('A' for Active; 'I' for Inactive)
REMARK    1  A    between atoms: N_2  and  S_1 
REMARK    2  A    between atoms: C_4  and  S_1 
REMARK    3  A    between atoms: C_3  and  N_2 
REMARK    4  A    between atoms: N_7  and  C_3 
REMARK    5  A    between atoms: C_14  and  N_7 
REMARK    6  A    between atoms: C_15  and  C_13 
ROOT
ATOM      1  S   UNL d   1       5.138  -4.179   0.000  0.00  0.00     0.287 S 
ATOM      2  O   UNL d   1       5.125  -5.013   0.000  0.00  0.00    -0.198 OA
ATOM      3  O   UNL d   1       5.150  -3.354   0.000  0.00  0.00    -0.198 OA
ENDROOT
BRANCH   1   4
ATOM      4  N   UNL d   1       5.967  -4.192   0.000  0.00  0.00    -0.128 NA
BRANCH   4   5
ATOM      5  C   UNL d   1       6.679  -3.779   0.000  0.00  0.00     0.232 C 
ATOM      6  S   UNL d   1       6.679  -2.954   0.000  0.00  0.00    -0.036 SA
BRANCH   5   7
ATOM      7  N   UNL d   1       7.392  -4.192   0.000  0.00  0.00    -0.217 NA
BRANCH   7   8
ATOM      8  C   UNL d   1       8.104  -3.775   0.000  0.00  0.00     0.084 A 
ATOM      9  C   UNL d   1       8.817  -4.188   0.000  0.00  0.00     0.019 A 
ATOM     10  C   UNL d   1       9.529  -3.775   0.000  0.00  0.00     0.002 A 
ATOM     11  C   UNL d   1       9.529  -2.954   0.000  0.00  0.00     0.000 A 
ATOM     12  C   UNL d   1       8.817  -2.542   0.000  0.00  0.00     0.002 A 
ATOM     13  C   UNL d   1       8.104  -2.950   0.000  0.00  0.00     0.019 A 
ENDBRANCH   7   8
ENDBRANCH   5   7
ENDBRANCH   4   5
ENDBRANCH   1   4
BRANCH   1  14
ATOM     14  C   UNL d   1       4.304  -4.167   0.000  0.00  0.00     0.105 A 
ATOM     15  C   UNL d   1       3.888  -4.879   0.000  0.00  0.00     0.013 A 
ATOM     16  C   UNL d   1       3.054  -4.875   0.000  0.00  0.00     0.001 A 
ATOM     17  C   UNL d   1       2.642  -4.150   0.000  0.00  0.00     0.000 A 
ATOM     18  C   UNL d   1       3.067  -3.438   0.000  0.00  0.00     0.001 A 
ATOM     19  C   UNL d   1       3.892  -3.442   0.000  0.00  0.00     0.013 A 
BRANCH  17  20
ATOM     20  C   UNL d   1       1.817  -4.142   0.000  0.00  0.00     0.000 C 
ATOM     21  C   UNL d   1       1.229  -3.554   0.000  0.00  0.00     0.000 C 
ENDBRANCH  17  20
ENDBRANCH   1  14
TORSDOF 6
