REMARK  6 active torsions:
REMARK  status: ('A' for Active; 'I' for Inactive)
REMARK       I    between atoms: N_2  and  C_1 
REMARK    1  A    between atoms: C_5  and  C_1 
REMARK    2  A    between atoms: C_3  and  N_2 
REMARK    3  A    between atoms: O_16  and  C_6 
REMARK    4  A    between atoms: O_17  and  C_11 
REMARK    5  A    between atoms: O_18  and  C_12 
REMARK    6  A    between atoms: C_19  and  O_18 
ROOT
ATOM      1  C   UNL d   1       1.518   0.703   0.000  0.00  0.00     0.279 C 
ATOM      2  N   UNL d   1       1.108   1.422   0.000  0.00  0.00    -0.206 NA
ATOM      3  O   UNL d   1       1.108  -0.005   0.000  0.00  0.00    -0.265 OA
ENDROOT
BRANCH   1   4
ATOM      4  C   UNL d   1       2.364   0.703   0.000  0.00  0.00     0.058 A 
ATOM      5  C   UNL d   1       2.769   1.422   0.000  0.00  0.00     0.007 A 
ATOM      6  C   UNL d   1       3.584   1.422   0.000  0.00  0.00     0.025 A 
ATOM      7  C   UNL d   1       3.999   0.703   0.000  0.00  0.00     0.100 A 
ATOM      8  C   UNL d   1       3.584  -0.005   0.000  0.00  0.00     0.025 A 
ATOM      9  C   UNL d   1       2.769  -0.005   0.000  0.00  0.00     0.007 A 
BRANCH   7  10
ATOM     10  O   UNL d   1       4.840   0.703   0.000  0.00  0.00    -0.305 OA
BRANCH  10  11
ATOM     11  C   UNL d   1       5.245   1.422   0.000  0.00  0.00     0.123 C 
ATOM     12  C   UNL d   1       6.071   1.422   0.000  0.00  0.00     0.029 C 
ENDBRANCH  10  11
ENDBRANCH   7  10
ENDBRANCH   1   4
BRANCH   2  13
ATOM     13  C   UNL d   1       0.293   1.422   0.000  0.00  0.00     0.109 A 
ATOM     14  C   UNL d   1      -0.106   0.703   0.000  0.00  0.00     0.045 A 
ATOM     15  C   UNL d   1      -0.921   0.698   0.000  0.00  0.00     0.096 A 
ATOM     16  C   UNL d   1      -1.358   1.406   0.000  0.00  0.00     0.026 A 
ATOM     17  C   UNL d   1      -0.959   2.109   0.000  0.00  0.00     0.028 A 
ATOM     18  C   UNL d   1      -0.128   2.135   0.000  0.00  0.00     0.112 A 
BRANCH  15  19
ATOM     19  O   UNL d   1      -1.305  -0.037   0.000  0.00  0.00    -0.328 OA
ATOM     20  C   UNL d   1      -2.135  -0.064   0.000  0.00  0.00     0.181 C 
ENDBRANCH  15  19
BRANCH  18  21
ATOM     21  O   UNL d   1       0.261   2.854   0.000  0.00  0.00    -0.327 OA
ATOM     22  C   UNL d   1       1.092   2.870   0.000  0.00  0.00     0.181 C 
ENDBRANCH  18  21
ENDBRANCH   2  13
TORSDOF 6
