REMARK  5 active torsions:
REMARK  status: ('A' for Active; 'I' for Inactive)
REMARK       I    between atoms: C_2  and  N_1 
REMARK    1  A    between atoms: C_4  and  N_1 
REMARK    2  A    between atoms: C_14  and  C_2 
REMARK       I    between atoms: C_3  and  N_6 
REMARK    3  A    between atoms: C_5  and  C_3 
REMARK    4  A    between atoms: N_8  and  C_4 
REMARK    5  A    between atoms: N_6  and  N_8 
ROOT
ATOM      1  C   UNL d   1       1.674  -0.796   0.000  0.00  0.00     0.243 C 
ATOM      2  S   UNL d   1       2.005  -0.048   0.000  0.00  0.00    -0.035 SA
ENDROOT
BRANCH   1   3
ATOM      3  N   UNL d   1       2.158  -1.467   0.000  0.00  0.00    -0.177 NA
ATOM      4  C   UNL d   1       2.978  -1.381   0.000  0.00  0.00     0.281 C 
ATOM      5  O   UNL d   1       3.314  -0.623   0.000  0.00  0.00    -0.265 OA
BRANCH   4   6
ATOM      6  C   UNL d   1       3.457  -2.048   0.000  0.00  0.00     0.058 A 
ATOM      7  C   UNL d   1       3.122  -2.796   0.000  0.00  0.00     0.005 A 
ATOM      8  C   UNL d   1       3.601  -3.467   0.000  0.00  0.00     0.000 A 
ATOM      9  C   UNL d   1       4.421  -3.381   0.000  0.00  0.00     0.000 A 
ATOM     10  C   UNL d   1       4.762  -2.623   0.000  0.00  0.00     0.000 A 
ATOM     11  C   UNL d   1       4.277  -1.956   0.000  0.00  0.00     0.005 A 
ENDBRANCH   4   6
ENDBRANCH   1   3
BRANCH   1  12
ATOM     12  N   UNL d   1       0.854  -0.882   0.000  0.00  0.00    -0.114 NA
BRANCH  12  13
ATOM     13  N   UNL d   1       0.364  -0.221   0.000  0.00  0.00    -0.103 NA
ATOM     14  C   UNL d   1      -0.456  -0.307   0.000  0.00  0.00     0.303 C 
ATOM     15  O   UNL d   1      -0.786  -1.055   0.000  0.00  0.00    -0.263 OA
BRANCH  14  16
ATOM     16  C   UNL d   1      -0.935   0.360   0.000  0.00  0.00     0.089 A 
ATOM     17  S   UNL d   1      -1.798   0.360   0.000  0.00  0.00    -0.082 SA
ATOM     18  C   UNL d   1      -2.067   1.189   0.000  0.00  0.00     0.036 A 
ATOM     19  C   UNL d   1      -1.367   1.693   0.000  0.00  0.00     0.008 A 
ATOM     20  C   UNL d   1      -0.671   1.189   0.000  0.00  0.00     0.012 A 
ENDBRANCH  14  16
ENDBRANCH  12  13
ENDBRANCH   1  12
TORSDOF 5
