REMARK  5 active torsions:
REMARK  status: ('A' for Active; 'I' for Inactive)
REMARK    1  A    between atoms: N_4  and  C_2 
REMARK    2  A    between atoms: S_8  and  C_3 
REMARK    3  A    between atoms: C_11  and  S_8 
REMARK    4  A    between atoms: C_9  and  C_11 
REMARK    5  A    between atoms: C_10  and  C_9 
ROOT
ATOM      1  N   UNL d   1       0.692  -1.292   0.000  0.00  0.00    -0.203 NA
ATOM      2  C   UNL d   1      -0.021  -0.879   0.000  0.00  0.00     0.152 A 
ATOM      3  C   UNL d   1       0.692  -2.125   0.000  0.00  0.00     0.196 A 
ATOM      4  C   UNL d   1      -0.733  -1.300   0.000  0.00  0.00     0.057 A 
ATOM      5  N   UNL d   1      -0.021  -2.538   0.000  0.00  0.00    -0.221 NA
ATOM      6  C   UNL d   1      -0.733  -2.125   0.000  0.00  0.00     0.087 A 
ATOM      7  C   UNL d   1      -1.450  -2.538   0.000  0.00  0.00     0.021 C 
ENDROOT
BRANCH   3   8
ATOM      8  S   UNL d   1       1.413  -2.538   0.000  0.00  0.00    -0.045 SA
BRANCH   8   9
ATOM      9  C   UNL d   1       2.125  -2.117   0.000  0.00  0.00     0.080 C 
BRANCH   9  10
ATOM     10  C   UNL d   1       2.842  -2.525   0.000  0.00  0.00     0.202 C 
ATOM     11  O   UNL d   1       2.842  -3.350   0.000  0.00  0.00    -0.286 OA
BRANCH  10  12
ATOM     12  C   UNL d   1       3.550  -2.104   0.000  0.00  0.00     0.040 A 
ATOM     13  C   UNL d   1       4.267  -2.517   0.000  0.00  0.00     0.004 A 
ATOM     14  C   UNL d   1       4.979  -2.100   0.000  0.00  0.00     0.011 A 
ATOM     15  C   UNL d   1       4.967  -1.275   0.000  0.00  0.00     0.058 A 
ATOM     16  C   UNL d   1       4.250  -0.867   0.000  0.00  0.00     0.011 A 
ATOM     17 CL   UNL d   1       5.679  -0.854   0.000  0.00  0.00    -0.082 Cl
ATOM     18  C   UNL d   1       3.542  -1.288   0.000  0.00  0.00     0.004 A 
ENDBRANCH  10  12
ENDBRANCH   9  10
ENDBRANCH   8   9
ENDBRANCH   3   8
BRANCH   2  19
ATOM     19  N   UNL d   1      -0.025  -0.054   0.000  0.00  0.00    -0.285 N 
ATOM     20  C   UNL d   1      -0.738   0.350   0.000  0.00  0.00     0.108 A 
ATOM     21  C   UNL d   1      -0.738   1.175   0.000  0.00  0.00     0.142 A 
ATOM     22  O   UNL d   1      -0.021   1.587   0.000  0.00  0.00    -0.300 OA
ATOM     23  C   UNL d   1       0.692   1.175   0.000  0.00  0.00     0.142 A 
ATOM     24  C   UNL d   1       0.692   0.358   0.000  0.00  0.00     0.108 A 
ENDBRANCH   2  19
TORSDOF 5
