REMARK  4 active torsions:
REMARK  status: ('A' for Active; 'I' for Inactive)
REMARK    1  A    between atoms: C_7  and  C_3 
REMARK    2  A    between atoms: S_6  and  C_7 
REMARK    3  A    between atoms: C_9  and  S_6 
REMARK    4  A    between atoms: C_8  and  C_9 
ROOT
ATOM      1  N   UNL d   1      -3.591   3.278   0.000  0.00  0.00    -0.225 NA
ATOM      2  N   UNL d   1      -3.578   1.917   0.000  0.00  0.00    -0.225 NA
ATOM      3  C   UNL d   1      -3.094   2.601   0.000  0.00  0.00     0.169 A 
ATOM      4  C   UNL d   1      -4.380   3.002   0.000  0.00  0.00     0.101 A 
ATOM      5  C   UNL d   1      -4.380   2.167   0.000  0.00  0.00     0.101 A 
ATOM      6  C   UNL d   1      -5.106   3.415   0.000  0.00  0.00     0.021 A 
ATOM      7  C   UNL d   1      -5.106   1.762   0.000  0.00  0.00     0.021 A 
ATOM      8  C   UNL d   1      -5.812   2.175   0.000  0.00  0.00     0.002 A 
ATOM      9  C   UNL d   1      -5.812   3.002   0.000  0.00  0.00     0.002 A 
ENDROOT
BRANCH   3  10
ATOM     10  C   UNL d   1      -2.380   3.014   0.000  0.00  0.00     0.074 C 
BRANCH  10  11
ATOM     11  S   UNL d   1      -1.666   2.601   0.000  0.00  0.00    -0.083 SA
BRANCH  11  12
ATOM     12  C   UNL d   1      -0.952   3.014   0.000  0.00  0.00     0.035 C 
BRANCH  12  13
ATOM     13  C   UNL d   1      -0.238   2.601   0.000  0.00  0.00     0.006 A 
ATOM     14  C   UNL d   1      -0.246   1.774   0.000  0.00  0.00     0.001 A 
ATOM     15  C   UNL d   1       0.468   1.361   0.000  0.00  0.00     0.000 A 
ATOM     16  C   UNL d   1       1.182   1.774   0.000  0.00  0.00     0.000 A 
ATOM     17  C   UNL d   1       1.182   2.601   0.000  0.00  0.00     0.000 A 
ATOM     18  C   UNL d   1       0.468   3.014   0.000  0.00  0.00     0.001 A 
ENDBRANCH  12  13
ENDBRANCH  11  12
ENDBRANCH  10  11
ENDBRANCH   3  10
TORSDOF 4
