REMARK  3 active torsions:
REMARK  status: ('A' for Active; 'I' for Inactive)
REMARK    1  A    between atoms: S_3  and  N_1 
REMARK    2  A    between atoms: C_8  and  C_4 
REMARK    3  A    between atoms: C_7  and  C_5 
ROOT
ATOM      1  N   UNL d   1       2.721   1.596   0.000  0.00  0.00    -0.155 N 
ATOM      2  N   UNL d   1       1.923   1.841   0.000  0.00  0.00    -0.155 NA
ATOM      3  C   UNL d   1       3.185   2.259   0.000  0.00  0.00     0.096 A 
ATOM      4  C   UNL d   1       1.923   2.662   0.000  0.00  0.00     0.110 A 
ATOM      5  C   UNL d   1       2.721   2.934   0.000  0.00  0.00     0.041 A 
ENDROOT
BRANCH   3   6
ATOM      6  C   UNL d   1       4.010   2.259   0.000  0.00  0.00     0.018 A 
ATOM      7  C   UNL d   1       4.422   2.964   0.000  0.00  0.00     0.002 A 
ATOM      8  C   UNL d   1       4.010   3.678   0.000  0.00  0.00     0.000 C 
ATOM      9  C   UNL d   1       5.247   2.964   0.000  0.00  0.00     0.000 A 
ATOM     10  C   UNL d   1       5.660   2.259   0.000  0.00  0.00     0.000 A 
ATOM     11  C   UNL d   1       5.247   1.540   0.000  0.00  0.00     0.000 A 
ATOM     12  C   UNL d   1       4.422   1.540   0.000  0.00  0.00     0.002 A 
ENDBRANCH   3   6
BRANCH   1  13
ATOM     13  S   UNL d   1       2.964   0.825   0.000  0.00  0.00     0.266 S 
ATOM     14  O   UNL d   1       3.737   1.073   0.000  0.00  0.00    -0.203 OA
ATOM     15  O   UNL d   1       2.168   0.550   0.000  0.00  0.00    -0.203 OA
ATOM     16  C   UNL d   1       3.214   0.000   0.000  0.00  0.00     0.165 C 
ENDBRANCH   1  13
BRANCH   4  17
ATOM     17  C   UNL d   1       1.262   3.155   0.000  0.00  0.00     0.049 A 
ATOM     18  S   UNL d   1       0.493   2.883   0.000  0.00  0.00    -0.085 SA
ATOM     19  C   UNL d   1       0.000   3.546   0.000  0.00  0.00     0.035 A 
ATOM     20  C   UNL d   1       0.467   4.231   0.000  0.00  0.00     0.007 A 
ATOM     21  C   UNL d   1       1.233   3.985   0.000  0.00  0.00     0.009 A 
ENDBRANCH   4  17
TORSDOF 3
