REMARK  2 active torsions:
REMARK  status: ('A' for Active; 'I' for Inactive)
REMARK    1  A    between atoms: C_6  and  N_1 
REMARK    2  A    between atoms: C_14  and  C_13 
ROOT
ATOM      1  C   UNL d   1       0.345   0.144   0.000  0.00  0.00     0.070 A 
ATOM      2  C   UNL d   1      -0.369   0.556   0.000  0.00  0.00     0.018 A 
ATOM      3  C   UNL d   1       0.345  -0.681   0.000  0.00  0.00     0.018 A 
ATOM      4  C   UNL d   1      -1.089   0.144   0.000  0.00  0.00     0.002 A 
ATOM      5  C   UNL d   1      -0.369  -1.098   0.000  0.00  0.00     0.002 A 
ATOM      6  C   UNL d   1      -1.089  -0.681   0.000  0.00  0.00     0.000 A 
ENDROOT
BRANCH   1   7
ATOM      7  N   UNL d   1       1.050   0.561   0.000  0.00  0.00    -0.242 N 
ATOM      8  C   UNL d   1       1.803   0.225   0.000  0.00  0.00     0.267 A 
ATOM      9  C   UNL d   1       2.350   0.844   0.000  0.00  0.00     0.066 A 
ATOM     10  O   UNL d   1       1.976  -0.580   0.000  0.00  0.00    -0.267 OA
ATOM     11  C   UNL d   1       1.942   1.554   0.000  0.00  0.00     0.066 A 
ATOM     12  C   UNL d   1       1.137   1.381   0.000  0.00  0.00     0.267 A 
ATOM     13  O   UNL d   1       0.523   1.937   0.000  0.00  0.00    -0.267 OA
ENDBRANCH   1   7
BRANCH   6  14
ATOM     14  C   UNL d   1      -1.798  -1.098   0.000  0.00  0.00     0.000 C 
ATOM     15  C   UNL d   1      -2.513  -0.681   0.000  0.00  0.00     0.000 C 
ENDBRANCH   6  14
TORSDOF 2
