REMARK  2 active torsions:
REMARK  status: ('A' for Active; 'I' for Inactive)
REMARK    1  A    between atoms: C_6  and  N_2 
REMARK    2  A    between atoms: C_8  and  C_5 
ROOT
ATOM      1  C   UNL d   1       1.319   0.008   0.000  0.00  0.00     0.265 A 
ATOM      2  N   UNL d   1       0.768  -0.606   0.000  0.00  0.00    -0.275 N 
ATOM      3  C   UNL d   1       0.100   0.547   0.000  0.00  0.00     0.021 A 
ATOM      4  C   UNL d   1       0.906   0.722   0.000  0.00  0.00     0.063 A 
ATOM      5  C   UNL d   1       0.017  -0.276   0.000  0.00  0.00     0.067 A 
ATOM      6  O   UNL d   1       2.146  -0.075   0.000  0.00  0.00    -0.267 OA
ATOM      7  C   UNL d   1      -0.514   1.098   0.000  0.00  0.00     0.002 C 
ENDROOT
BRANCH   2   8
ATOM      8  C   UNL d   1       0.952  -1.415   0.000  0.00  0.00     0.067 A 
ATOM      9  C   UNL d   1       0.338  -1.971   0.000  0.00  0.00     0.018 A 
ATOM     10  C   UNL d   1       0.505  -2.772   0.000  0.00  0.00     0.002 A 
ATOM     11  C   UNL d   1       1.294  -3.031   0.000  0.00  0.00     0.000 A 
ATOM     12  C   UNL d   1       1.908  -2.468   0.000  0.00  0.00     0.002 A 
ATOM     13  C   UNL d   1       1.470  -3.837   0.000  0.00  0.00     0.000 C 
ATOM     14  C   UNL d   1       1.733  -1.666   0.000  0.00  0.00     0.018 A 
ENDBRANCH   2   8
BRANCH   5  15
ATOM     15  C   UNL d   1      -0.697  -0.689   0.000  0.00  0.00     0.016 A 
ATOM     16  C   UNL d   1      -1.415  -0.276   0.000  0.00  0.00     0.002 A 
ATOM     17  C   UNL d   1      -2.129  -0.689   0.000  0.00  0.00     0.011 A 
ATOM     18  C   UNL d   1      -2.129  -1.520   0.000  0.00  0.00     0.058 A 
ATOM     19  C   UNL d   1      -1.415  -1.933   0.000  0.00  0.00     0.011 A 
ATOM     20 CL   UNL d   1      -2.852  -1.933   0.000  0.00  0.00    -0.082 Cl
ATOM     21  C   UNL d   1      -0.697  -1.520   0.000  0.00  0.00     0.002 A 
ENDBRANCH   5  15
TORSDOF 2
