REMARK  5 active torsions:
REMARK  status: ('A' for Active; 'I' for Inactive)
REMARK    1  A    between atoms: S_3  and  N_1 
REMARK    2  A    between atoms: C_7  and  C_4 
REMARK    3  A    between atoms: C_8  and  C_5 
REMARK    4  A    between atoms: O_17  and  C_12 
REMARK    5  A    between atoms: C_20  and  O_17 
ROOT
ATOM      1  N   UNL d   1       2.720   1.569   0.000  0.00  0.00    -0.155 N 
ATOM      2  N   UNL d   1       1.923   1.817   0.000  0.00  0.00    -0.155 NA
ATOM      3  C   UNL d   1       3.184   2.229   0.000  0.00  0.00     0.098 A 
ATOM      4  C   UNL d   1       1.923   2.632   0.000  0.00  0.00     0.110 A 
ATOM      5  C   UNL d   1       2.720   2.912   0.000  0.00  0.00     0.041 A 
ENDROOT
BRANCH   3   6
ATOM      6  C   UNL d   1       4.010   2.229   0.000  0.00  0.00     0.041 A 
ATOM      7  C   UNL d   1       4.422   2.934   0.000  0.00  0.00     0.102 A 
ATOM      8  C   UNL d   1       5.247   2.934   0.000  0.00  0.00     0.025 A 
ATOM      9  C   UNL d   1       5.659   2.229   0.000  0.00  0.00     0.002 A 
ATOM     10  C   UNL d   1       5.247   1.515   0.000  0.00  0.00     0.000 A 
ATOM     11  C   UNL d   1       4.422   1.515   0.000  0.00  0.00     0.004 A 
BRANCH   7  12
ATOM     12  O   UNL d   1       4.010   3.653   0.000  0.00  0.00    -0.305 OA
BRANCH  12  13
ATOM     13  C   UNL d   1       4.422   4.363   0.000  0.00  0.00     0.123 C 
ATOM     14  C   UNL d   1       4.010   5.082   0.000  0.00  0.00     0.029 C 
ENDBRANCH  12  13
ENDBRANCH   7  12
ENDBRANCH   3   6
BRANCH   1  15
ATOM     15  S   UNL d   1       2.963   0.800   0.000  0.00  0.00     0.266 S 
ATOM     16  O   UNL d   1       3.764   1.046   0.000  0.00  0.00    -0.203 OA
ATOM     17  O   UNL d   1       2.197   0.523   0.000  0.00  0.00    -0.203 OA
ATOM     18  C   UNL d   1       3.241   0.000   0.000  0.00  0.00     0.165 C 
ENDBRANCH   1  15
BRANCH   4  19
ATOM     19  C   UNL d   1       1.262   3.133   0.000  0.00  0.00     0.049 A 
ATOM     20  S   UNL d   1       0.493   2.853   0.000  0.00  0.00    -0.085 SA
ATOM     21  C   UNL d   1       0.000   3.516   0.000  0.00  0.00     0.035 A 
ATOM     22  C   UNL d   1       0.467   4.201   0.000  0.00  0.00     0.007 A 
ATOM     23  C   UNL d   1       1.262   3.955   0.000  0.00  0.00     0.009 A 
ENDBRANCH   4  19
TORSDOF 5
