REMARK  5 active torsions:
REMARK  status: ('A' for Active; 'I' for Inactive)
REMARK    1  A    between atoms: N_2  and  C_1 
REMARK    2  A    between atoms: C_4  and  C_8 
REMARK    3  A    between atoms: N_15  and  C_5 
REMARK    4  A    between atoms: C_19  and  N_15 
REMARK    5  A    between atoms: C_20  and  N_15 
ROOT
ATOM      1  C   UNL d   1       2.152  -1.174   0.000  0.00  0.00     0.143 A 
ATOM      2  C   UNL d   1       1.440  -0.762   0.000  0.00  0.00     0.086 A 
ATOM      3  C   UNL d   1       2.872  -0.762   0.000  0.00  0.00     0.027 A 
ATOM      4  C   UNL d   1       2.872   0.071   0.000  0.00  0.00     0.021 A 
ATOM      5  C   UNL d   1       1.440   0.062   0.000  0.00  0.00     0.019 A 
ATOM      6  C   UNL d   1       2.152   0.483   0.000  0.00  0.00     0.003 A 
ENDROOT
BRANCH   4   7
ATOM      7  C   UNL d   1       3.583   0.483   0.000  0.00  0.00     0.103 A 
ATOM      8  N   UNL d   1       4.299   0.071   0.000  0.00  0.00    -0.145 NA
ATOM      9  N   UNL d   1       5.011   0.483   0.000  0.00  0.00    -0.106 NA
ATOM     10  C   UNL d   1       5.011   1.307   0.000  0.00  0.00     0.297 A 
ATOM     11  C   UNL d   1       4.295   1.719   0.000  0.00  0.00     0.066 A 
ATOM     12  O   UNL d   1       5.722   1.719   0.000  0.00  0.00    -0.264 OA
ATOM     13  C   UNL d   1       3.575   1.307   0.000  0.00  0.00     0.024 A 
ATOM     14  C   UNL d   1       2.863   1.719   0.000  0.00  0.00     0.002 C 
ENDBRANCH   4   7
BRANCH   1  15
ATOM     15  N   UNL d   1       2.160  -2.002   0.000  0.00  0.00    -0.112 N 
ATOM     16  O   UNL d   1       1.440  -2.414   0.000  0.00  0.00    -0.532 OA
ATOM     17  O   UNL d   1       2.872  -2.414   0.000  0.00  0.00    -0.532 OA
ENDBRANCH   1  15
BRANCH   2  18
ATOM     18  N   UNL d   1       0.728  -1.174   0.000  0.00  0.00    -0.302 N 
BRANCH  18  19
ATOM     19  C   UNL d   1       0.017  -0.762   0.000  0.00  0.00     0.080 C 
ATOM     20  C   UNL d   1      -0.699  -1.174   0.000  0.00  0.00     0.021 C 
ENDBRANCH  18  19
BRANCH  18  21
ATOM     21  C   UNL d   1       0.728  -1.998   0.000  0.00  0.00     0.080 C 
ATOM     22  C   UNL d   1       0.017  -2.410   0.000  0.00  0.00     0.021 C 
ENDBRANCH  18  21
ENDBRANCH   2  18
TORSDOF 5
