REMARK  4 active torsions:
REMARK  status: ('A' for Active; 'I' for Inactive)
REMARK    1  A    between atoms: S_3  and  N_1 
REMARK    2  A    between atoms: C_7  and  C_4 
REMARK    3  A    between atoms: C_8  and  C_5 
REMARK    4  A    between atoms: O_19  and  C_17 
ROOT
ATOM      1  N   UNL d   1       2.721   1.569   0.000  0.00  0.00    -0.155 N 
ATOM      2  N   UNL d   1       1.923   1.817   0.000  0.00  0.00    -0.155 NA
ATOM      3  C   UNL d   1       1.923   2.632   0.000  0.00  0.00     0.110 A 
ATOM      4  C   UNL d   1       3.214   2.229   0.000  0.00  0.00     0.096 A 
ATOM      5  C   UNL d   1       2.721   2.912   0.000  0.00  0.00     0.041 A 
ENDROOT
BRANCH   4   6
ATOM      6  C   UNL d   1       4.039   2.229   0.000  0.00  0.00     0.021 A 
ATOM      7  C   UNL d   1       4.452   2.934   0.000  0.00  0.00     0.026 A 
ATOM      8  C   UNL d   1       5.277   2.934   0.000  0.00  0.00     0.094 A 
ATOM      9  C   UNL d   1       5.689   2.229   0.000  0.00  0.00     0.024 A 
ATOM     10  C   UNL d   1       5.277   1.515   0.000  0.00  0.00     0.002 A 
ATOM     11  C   UNL d   1       4.452   1.515   0.000  0.00  0.00     0.002 A 
BRANCH   8  12
ATOM     12  O   UNL d   1       5.689   3.654   0.000  0.00  0.00    -0.328 OA
ATOM     13  C   UNL d   1       5.277   4.363   0.000  0.00  0.00     0.181 C 
ENDBRANCH   8  12
ENDBRANCH   4   6
BRANCH   1  14
ATOM     14  S   UNL d   1       2.964   0.800   0.000  0.00  0.00     0.266 S 
ATOM     15  O   UNL d   1       3.764   1.046   0.000  0.00  0.00    -0.203 OA
ATOM     16  O   UNL d   1       2.198   0.523   0.000  0.00  0.00    -0.203 OA
ATOM     17  C   UNL d   1       3.241   0.000   0.000  0.00  0.00     0.165 C 
ENDBRANCH   1  14
BRANCH   3  18
ATOM     18  C   UNL d   1       1.262   3.133   0.000  0.00  0.00     0.049 A 
ATOM     19  S   UNL d   1       0.493   2.853   0.000  0.00  0.00    -0.085 SA
ATOM     20  C   UNL d   1       0.000   3.516   0.000  0.00  0.00     0.035 A 
ATOM     21  C   UNL d   1       0.493   4.201   0.000  0.00  0.00     0.007 A 
ATOM     22  C   UNL d   1       1.262   3.956   0.000  0.00  0.00     0.009 A 
ENDBRANCH   3  18
TORSDOF 4
