REMARK  5 active torsions:
REMARK  status: ('A' for Active; 'I' for Inactive)
REMARK    1  A    between atoms: C_2  and  N_1 
REMARK    2  A    between atoms: N_5  and  C_3 
REMARK       I    between atoms: C_4  and  N_5 
REMARK       I    between atoms: N_9  and  C_4 
REMARK    3  A    between atoms: O_11  and  N_9 
REMARK    4  A    between atoms: C_13  and  O_11 
REMARK    5  A    between atoms: C_14  and  C_13 
ROOT
ATOM      1  C   UNL d   1       3.429  -5.929   0.000  0.00  0.00     0.156 A 
ATOM      2  C   UNL d   1       3.844  -6.642   0.000  0.00  0.00     0.160 A 
ATOM      3  C   UNL d   1       2.610  -5.929   0.000  0.00  0.00     0.026 A 
ATOM      4  C   UNL d   1       3.429  -7.365   0.000  0.00  0.00     0.034 A 
ATOM      5  C   UNL d   1       2.196  -6.647   0.000  0.00  0.00     0.002 A 
ATOM      6  C   UNL d   1       2.615  -7.365   0.000  0.00  0.00     0.003 A 
ENDROOT
BRANCH   2   7
ATOM      7  N   UNL d   1       4.672  -6.642   0.000  0.00  0.00    -0.335 NA
ATOM      8  C   UNL d   1       5.496  -6.642   0.000  0.00  0.00     0.499 C 
ATOM      9  O   UNL d   1       5.487  -7.462   0.000  0.00  0.00    -0.211 OA
ATOM     10  N   UNL d   1       6.316  -6.642   0.000  0.00  0.00    -0.199 NA
BRANCH  10  11
ATOM     11  O   UNL d   1       7.144  -6.642   0.000  0.00  0.00    -0.156 OA
BRANCH  11  12
ATOM     12  C   UNL d   1       7.724  -6.053   0.000  0.00  0.00     0.163 C 
BRANCH  12  13
ATOM     13  C   UNL d   1       8.304  -6.633   0.000  0.00  0.00     0.030 C 
ATOM     14  C   UNL d   1       8.884  -6.053   0.000  0.00  0.00     0.002 C 
ENDBRANCH  12  13
ENDBRANCH  11  12
ENDBRANCH  10  11
ENDBRANCH   2   7
BRANCH   1  15
ATOM     15  N   UNL d   1       3.844  -5.211   0.000  0.00  0.00    -0.111 N 
ATOM     16  O   UNL d   1       4.668  -5.197   0.000  0.00  0.00    -0.532 OA
ATOM     17  O   UNL d   1       3.416  -4.493   0.000  0.00  0.00    -0.532 OA
ENDBRANCH   1  15
TORSDOF 5
