REMARK  7 active torsions:
REMARK  status: ('A' for Active; 'I' for Inactive)
REMARK    1  A    between atoms: O_9  and  N_1 
REMARK    2  A    between atoms: C_8  and  O_11 
REMARK    3  A    between atoms: C_15  and  O_9 
REMARK    4  A    between atoms: O_11  and  C_16 
REMARK    5  A    between atoms: C_18  and  C_15 
REMARK    6  A    between atoms: C_16  and  C_17 
REMARK    7  A    between atoms: C_17  and  C_18 
ROOT
ATOM      1  N   UNL d   1       2.091  -0.075   0.000  0.00  0.00    -0.139 N 
ATOM      2  C   UNL d   1       1.603  -0.750   0.000  0.00  0.00     0.287 A 
ATOM      3  C   UNL d   1       1.603   0.596   0.000  0.00  0.00     0.287 A 
ATOM      4  C   UNL d   1       0.816  -0.491   0.000  0.00  0.00     0.063 A 
ATOM      5  C   UNL d   1       0.816   0.337   0.000  0.00  0.00     0.063 A 
ATOM      6  O   UNL d   1       1.816   1.395   0.000  0.00  0.00    -0.265 OA
ATOM      7  O   UNL d   1       1.816  -1.541   0.000  0.00  0.00    -0.265 OA
ATOM      8  C   UNL d   1       0.100   0.750   0.000  0.00  0.00     0.005 A 
ATOM      9  C   UNL d   1       0.100  -0.904   0.000  0.00  0.00     0.005 A 
ATOM     10  C   UNL d   1      -0.612   0.337   0.000  0.00  0.00     0.000 A 
ATOM     11  C   UNL d   1      -0.612  -0.491   0.000  0.00  0.00     0.000 A 
ENDROOT
BRANCH   1  12
ATOM     12  O   UNL d   1       2.915  -0.075   0.000  0.00  0.00    -0.221 OA
BRANCH  12  13
ATOM     13  C   UNL d   1       3.627   0.346   0.000  0.00  0.00     0.148 C 
BRANCH  13  14
ATOM     14  C   UNL d   1       4.340  -0.067   0.000  0.00  0.00     0.031 C 
BRANCH  14  15
ATOM     15  C   UNL d   1       5.052   0.346   0.000  0.00  0.00     0.029 C 
BRANCH  15  16
ATOM     16  C   UNL d   1       5.764  -0.067   0.000  0.00  0.00     0.126 C 
BRANCH  16  17
ATOM     17  O   UNL d   1       6.476   0.350   0.000  0.00  0.00    -0.271 OA
BRANCH  17  18
ATOM     18  C   UNL d   1       7.188  -0.062   0.000  0.00  0.00     0.300 C 
ATOM     19  O   UNL d   1       7.188  -0.887   0.000  0.00  0.00    -0.259 OA
ATOM     20  C   UNL d   1       7.900   0.350   0.000  0.00  0.00     0.074 C 
ENDBRANCH  17  18
ENDBRANCH  16  17
ENDBRANCH  15  16
ENDBRANCH  14  15
ENDBRANCH  13  14
ENDBRANCH  12  13
ENDBRANCH   1  12
TORSDOF 7
