REMARK  2 active torsions:
REMARK  status: ('A' for Active; 'I' for Inactive)
REMARK    1  A    between atoms: C_6  and  N_1 
REMARK    2  A    between atoms: C_11  and  C_6 
ROOT
ATOM      1  N   UNL d   1       5.630  -5.131   0.000  0.00  0.00    -0.251 N 
ATOM      2  C   UNL d   1       6.117  -5.805   0.000  0.00  0.00     0.378 A 
ATOM      3  C   UNL d   1       4.844  -5.393   0.000  0.00  0.00     0.092 A 
ATOM      4  O   UNL d   1       5.639  -6.479   0.000  0.00  0.00    -0.258 OA
ATOM      5  C   UNL d   1       4.844  -6.225   0.000  0.00  0.00     0.121 A 
ATOM      6  O   UNL d   1       6.940  -5.793   0.000  0.00  0.00    -0.237 OA
ATOM      7  C   UNL d   1       4.129  -4.982   0.000  0.00  0.00     0.020 A 
ATOM      8  C   UNL d   1       4.129  -6.636   0.000  0.00  0.00     0.026 A 
ATOM      9  C   UNL d   1       3.418  -5.402   0.000  0.00  0.00     0.002 A 
ATOM     10  C   UNL d   1       3.418  -6.225   0.000  0.00  0.00     0.002 A 
ATOM     11  C   UNL d   1       2.699  -4.982   0.000  0.00  0.00     0.000 C 
ENDROOT
BRANCH   1  12
ATOM     12  C   UNL d   1       5.842  -4.333   0.000  0.00  0.00     0.085 C 
BRANCH  12  13
ATOM     13  C   UNL d   1       6.636  -4.121   0.000  0.00  0.00     0.018 A 
ATOM     14  C   UNL d   1       7.215  -4.703   0.000  0.00  0.00     0.002 A 
ATOM     15  C   UNL d   1       8.013  -4.483   0.000  0.00  0.00     0.000 A 
ATOM     16  C   UNL d   1       8.221  -3.684   0.000  0.00  0.00     0.000 A 
ATOM     17  C   UNL d   1       7.635  -3.106   0.000  0.00  0.00     0.000 A 
ATOM     18  C   UNL d   1       6.840  -3.322   0.000  0.00  0.00     0.002 A 
ENDBRANCH  12  13
ENDBRANCH   1  12
TORSDOF 2
