REMARK  3 active torsions:
REMARK  status: ('A' for Active; 'I' for Inactive)
REMARK    1  A    between atoms: N_2  and  C_1 
REMARK    2  A    between atoms: C_4  and  C_8 
REMARK    3  A    between atoms: N_14  and  C_5 
ROOT
ATOM      1  C   UNL d   1       1.802  -1.174   0.000  0.00  0.00     0.143 A 
ATOM      2  C   UNL d   1       1.090  -0.762   0.000  0.00  0.00     0.086 A 
ATOM      3  C   UNL d   1       2.522  -0.762   0.000  0.00  0.00     0.027 A 
ATOM      4  C   UNL d   1       2.522   0.071   0.000  0.00  0.00     0.021 A 
ATOM      5  C   UNL d   1       1.090   0.062   0.000  0.00  0.00     0.019 A 
ATOM      6  C   UNL d   1       1.802   0.483   0.000  0.00  0.00     0.003 A 
ENDROOT
BRANCH   4   7
ATOM      7  C   UNL d   1       3.234   0.483   0.000  0.00  0.00     0.103 A 
ATOM      8  N   UNL d   1       3.950   0.071   0.000  0.00  0.00    -0.145 NA
ATOM      9  N   UNL d   1       4.661   0.483   0.000  0.00  0.00    -0.106 NA
ATOM     10  C   UNL d   1       4.661   1.307   0.000  0.00  0.00     0.297 A 
ATOM     11  C   UNL d   1       3.945   1.719   0.000  0.00  0.00     0.066 A 
ATOM     12  O   UNL d   1       5.373   1.719   0.000  0.00  0.00    -0.264 OA
ATOM     13  C   UNL d   1       3.225   1.307   0.000  0.00  0.00     0.024 A 
ATOM     14  C   UNL d   1       2.514   1.719   0.000  0.00  0.00     0.002 C 
ENDBRANCH   4   7
BRANCH   1  15
ATOM     15  N   UNL d   1       1.810  -2.002   0.000  0.00  0.00    -0.112 N 
ATOM     16  O   UNL d   1       1.090  -2.414   0.000  0.00  0.00    -0.532 OA
ATOM     17  O   UNL d   1       2.522  -2.414   0.000  0.00  0.00    -0.532 OA
ENDBRANCH   1  15
BRANCH   2  18
ATOM     18  N   UNL d   1       0.379  -1.174   0.000  0.00  0.00    -0.300 N 
ATOM     19  C   UNL d   1      -0.333  -0.762   0.000  0.00  0.00     0.100 C 
ATOM     20  C   UNL d   1       0.379  -1.998   0.000  0.00  0.00     0.100 C 
ENDBRANCH   2  18
TORSDOF 3
