REMARK  5 active torsions:
REMARK  status: ('A' for Active; 'I' for Inactive)
REMARK    1  A    between atoms: C_6  and  N_1 
REMARK    2  A    between atoms: C_10  and  C_6 
REMARK    3  A    between atoms: O_18  and  C_12 
REMARK    4  A    between atoms: C_20  and  O_18 
REMARK    5  A    between atoms: C_21  and  C_20 
ROOT
ATOM      1  N   UNL d   1       6.123  -4.428   0.000  0.00  0.00    -0.251 N 
ATOM      2  C   UNL d   1       6.618  -5.101   0.000  0.00  0.00     0.378 A 
ATOM      3  C   UNL d   1       5.338  -4.690   0.000  0.00  0.00     0.092 A 
ATOM      4  O   UNL d   1       6.136  -5.774   0.000  0.00  0.00    -0.258 OA
ATOM      5  C   UNL d   1       5.346  -5.521   0.000  0.00  0.00     0.121 A 
ATOM      6  O   UNL d   1       7.440  -5.089   0.000  0.00  0.00    -0.237 OA
ATOM      7  C   UNL d   1       4.628  -4.279   0.000  0.00  0.00     0.020 A 
ATOM      8  C   UNL d   1       4.628  -5.932   0.000  0.00  0.00     0.026 A 
ATOM      9  C   UNL d   1       3.917  -4.698   0.000  0.00  0.00     0.002 A 
ATOM     10  C   UNL d   1       3.917  -5.521   0.000  0.00  0.00     0.002 A 
ATOM     11  C   UNL d   1       3.203  -4.279   0.000  0.00  0.00     0.000 C 
ENDROOT
BRANCH   1  12
ATOM     12  C   UNL d   1       6.335  -3.631   0.000  0.00  0.00     0.085 C 
BRANCH  12  13
ATOM     13  C   UNL d   1       7.133  -3.419   0.000  0.00  0.00     0.018 A 
ATOM     14  C   UNL d   1       7.714  -3.992   0.000  0.00  0.00     0.004 A 
ATOM     15  C   UNL d   1       8.504  -3.780   0.000  0.00  0.00     0.025 A 
ATOM     16  C   UNL d   1       8.716  -2.983   0.000  0.00  0.00     0.100 A 
ATOM     17  C   UNL d   1       8.130  -2.405   0.000  0.00  0.00     0.025 A 
ATOM     18  C   UNL d   1       7.332  -2.621   0.000  0.00  0.00     0.004 A 
BRANCH  16  19
ATOM     19  O   UNL d   1       9.509  -2.771   0.000  0.00  0.00    -0.305 OA
BRANCH  19  20
ATOM     20  C   UNL d   1      10.086  -3.352   0.000  0.00  0.00     0.123 C 
BRANCH  20  21
ATOM     21  C   UNL d   1       9.874  -4.142   0.000  0.00  0.00     0.027 C 
ATOM     22  C   UNL d   1      10.456  -4.728   0.000  0.00  0.00     0.002 C 
ENDBRANCH  20  21
ENDBRANCH  19  20
ENDBRANCH  16  19
ENDBRANCH  12  13
ENDBRANCH   1  12
TORSDOF 5
