REMARK  6 active torsions:
REMARK  status: ('A' for Active; 'I' for Inactive)
REMARK    1  A    between atoms: C_11  and  N_2 
REMARK    2  A    between atoms: O_15  and  C_9 
REMARK    3  A    between atoms: C_10  and  O_14 
REMARK    4  A    between atoms: C_16  and  C_11 
REMARK    5  A    between atoms: O_14  and  C_17 
REMARK    6  A    between atoms: C_17  and  C_16 
ROOT
ATOM      1  C   UNL d   1       5.998  -5.473   0.000  0.00  0.00     0.087 C 
ENDROOT
BRANCH   1   2
ATOM      2  N   UNL d   1       5.785  -6.273   0.000  0.00  0.00    -0.251 N 
ATOM      3  C   UNL d   1       6.277  -6.939   0.000  0.00  0.00     0.378 A 
ATOM      4  O   UNL d   1       5.790  -7.614   0.000  0.00  0.00    -0.258 OA
ATOM      5  O   UNL d   1       7.102  -6.935   0.000  0.00  0.00    -0.237 OA
ATOM      6  C   UNL d   1       5.002  -7.364   0.000  0.00  0.00     0.121 A 
ATOM      7  C   UNL d   1       4.278  -7.776   0.000  0.00  0.00     0.026 A 
ATOM      8  C   UNL d   1       4.998  -6.535   0.000  0.00  0.00     0.092 A 
ATOM      9  C   UNL d   1       3.565  -7.364   0.000  0.00  0.00     0.002 A 
ATOM     10  C   UNL d   1       3.565  -6.535   0.000  0.00  0.00     0.002 A 
ATOM     11  C   UNL d   1       4.278  -6.123   0.000  0.00  0.00     0.020 A 
ATOM     12  C   UNL d   1       2.853  -6.123   0.000  0.00  0.00     0.000 C 
ENDBRANCH   1   2
BRANCH   1  13
ATOM     13  C   UNL d   1       6.789  -5.252   0.000  0.00  0.00     0.046 C 
BRANCH  13  14
ATOM     14  C   UNL d   1       7.002  -4.453   0.000  0.00  0.00     0.124 C 
BRANCH  14  15
ATOM     15  O   UNL d   1       7.789  -4.236   0.000  0.00  0.00    -0.303 OA
BRANCH  15  16
ATOM     16  C   UNL d   1       7.939  -3.428   0.000  0.00  0.00     0.122 A 
ATOM     17  C   UNL d   1       8.722  -3.153   0.000  0.00  0.00     0.117 A 
ATOM     18  C   UNL d   1       8.872  -2.341   0.000  0.00  0.00     0.026 A 
ATOM     19  C   UNL d   1       8.239  -1.812   0.000  0.00  0.00     0.002 A 
ATOM     20  C   UNL d   1       7.464  -2.091   0.000  0.00  0.00     0.002 A 
ATOM     21  C   UNL d   1       7.314  -2.899   0.000  0.00  0.00     0.027 A 
BRANCH  17  22
ATOM     22  O   UNL d   1       9.347  -3.690   0.000  0.00  0.00    -0.326 OA
ATOM     23  C   UNL d   1      10.138  -3.474   0.000  0.00  0.00     0.181 C 
ENDBRANCH  17  22
ENDBRANCH  15  16
ENDBRANCH  14  15
ENDBRANCH  13  14
ENDBRANCH   1  13
TORSDOF 6
