REMARK  5 active torsions:
REMARK  status: ('A' for Active; 'I' for Inactive)
REMARK    1  A    between atoms: C_2  and  N_1 
REMARK    2  A    between atoms: C_4  and  C_7 
REMARK    3  A    between atoms: N_17  and  C_10 
REMARK    4  A    between atoms: C_20  and  N_17 
REMARK    5  A    between atoms: C_21  and  C_20 
ROOT
ATOM      1  C   UNL d   1       1.804  -1.175   0.000  0.00  0.00     0.144 A 
ATOM      2  C   UNL d   1       2.525  -0.762   0.000  0.00  0.00     0.027 A 
ATOM      3  C   UNL d   1       2.525   0.071   0.000  0.00  0.00     0.021 A 
ATOM      4  C   UNL d   1       1.092  -0.762   0.000  0.00  0.00     0.103 A 
ATOM      5  C   UNL d   1       1.804   0.483   0.000  0.00  0.00     0.003 A 
ATOM      6  C   UNL d   1       1.092   0.062   0.000  0.00  0.00     0.021 A 
ENDROOT
BRANCH   3   7
ATOM      7  C   UNL d   1       3.237   0.483   0.000  0.00  0.00     0.103 A 
ATOM      8  N   UNL d   1       3.954   0.071   0.000  0.00  0.00    -0.145 NA
ATOM      9  N   UNL d   1       4.667   0.483   0.000  0.00  0.00    -0.106 NA
ATOM     10  C   UNL d   1       4.667   1.308   0.000  0.00  0.00     0.297 A 
ATOM     11  C   UNL d   1       3.950   1.721   0.000  0.00  0.00     0.066 A 
ATOM     12  O   UNL d   1       5.379   1.721   0.000  0.00  0.00    -0.264 OA
ATOM     13  C   UNL d   1       3.229   1.308   0.000  0.00  0.00     0.024 A 
ATOM     14  C   UNL d   1       2.517   1.721   0.000  0.00  0.00     0.002 C 
ENDBRANCH   3   7
BRANCH   1  15
ATOM     15  N   UNL d   1       1.812  -2.004   0.000  0.00  0.00    -0.112 N 
ATOM     16  O   UNL d   1       1.092  -2.417   0.000  0.00  0.00    -0.532 OA
ATOM     17  O   UNL d   1       2.525  -2.417   0.000  0.00  0.00    -0.532 OA
ENDBRANCH   1  15
BRANCH   4  18
ATOM     18  N   UNL d   1       0.379  -1.175   0.000  0.00  0.00    -0.239 NA
BRANCH  18  19
ATOM     19  C   UNL d   1      -0.338  -0.762   0.000  0.00  0.00     0.144 C 
BRANCH  19  20
ATOM     20  C   UNL d   1      -0.346   0.062   0.000  0.00  0.00     0.255 C 
ATOM     21  O   UNL d   1      -1.058   0.475   0.000  0.00  0.00    -0.281 OA
ENDBRANCH  19  20
ENDBRANCH  18  19
ENDBRANCH   4  18
TORSDOF 5
