REMARK  3 active torsions:
REMARK  status: ('A' for Active; 'I' for Inactive)
REMARK    1  A    between atoms: N_3  and  S_1 
REMARK    2  A    between atoms: C_10  and  S_1 
REMARK    3  A    between atoms: C_2  and  N_3 
ROOT
ATOM      1  N   UNL d   1       3.491   1.434   0.000  0.00  0.00     0.034 NA
ENDROOT
BRANCH   1   2
ATOM      2  C   UNL d   1       2.667   1.434   0.000  0.00  0.00     0.760 A 
ATOM      3  N   UNL d   1       2.168   2.092   0.000  0.00  0.00    -0.057 NA
ATOM      4  C   UNL d   1       1.402   1.846   0.000  0.00  0.00     0.118 A 
ATOM      5  C   UNL d   1       0.688   2.259   0.000  0.00  0.00     0.021 A 
ATOM      6  C   UNL d   1       1.402   1.021   0.000  0.00  0.00     0.118 A 
ATOM      7  C   UNL d   1       0.000   1.846   0.000  0.00  0.00     0.002 A 
ATOM      8  C   UNL d   1       0.000   1.021   0.000  0.00  0.00     0.002 A 
ATOM      9  C   UNL d   1       0.688   0.609   0.000  0.00  0.00     0.021 A 
ATOM     10  N   UNL d   1       2.168   0.771   0.000  0.00  0.00    -0.057 NA
ENDBRANCH   1   2
BRANCH   1  11
ATOM     11  S   UNL d   1       3.904   0.719   0.000  0.00  0.00     0.300 S 
ATOM     12  O   UNL d   1       4.316   0.000   0.000  0.00  0.00    -0.198 OA
ATOM     13  O   UNL d   1       3.189   0.307   0.000  0.00  0.00    -0.198 OA
BRANCH  11  14
ATOM     14  C   UNL d   1       4.619   1.132   0.000  0.00  0.00     0.106 A 
ATOM     15  C   UNL d   1       5.333   0.719   0.000  0.00  0.00     0.013 A 
ATOM     16  C   UNL d   1       6.050   1.132   0.000  0.00  0.00     0.001 A 
ATOM     17  C   UNL d   1       6.050   1.957   0.000  0.00  0.00     0.000 A 
ATOM     18  C   UNL d   1       5.333   2.340   0.000  0.00  0.00     0.001 A 
ATOM     19  C   UNL d   1       4.619   1.957   0.000  0.00  0.00     0.013 A 
ENDBRANCH  11  14
ENDBRANCH   1  11
TORSDOF 3
