REMARK  3 active torsions:
REMARK  status: ('A' for Active; 'I' for Inactive)
REMARK    1  A    between atoms: N_2  and  S_1 
REMARK    2  A    between atoms: C_4  and  S_1 
REMARK    3  A    between atoms: C_11  and  C_3 
ROOT
ATOM      1  N   UNL d   1       1.568  -1.684   0.000  0.00  0.00    -0.213 N 
ATOM      2  C   UNL d   1       1.083  -1.012   0.000  0.00  0.00     0.157 A 
ATOM      3  N   UNL d   1       0.299  -1.273   0.000  0.00  0.00    -0.224 NA
ATOM      4  C   UNL d   1       1.083  -2.352   0.000  0.00  0.00     0.114 A 
ATOM      5  C   UNL d   1       0.299  -2.095   0.000  0.00  0.00     0.120 A 
ENDROOT
BRANCH   1   6
ATOM      6  S   UNL d   1       2.393  -1.684   0.000  0.00  0.00     0.273 S 
ATOM      7  O   UNL d   1       2.393  -0.859   0.000  0.00  0.00    -0.200 OA
ATOM      8  O   UNL d   1       2.393  -2.505   0.000  0.00  0.00    -0.200 OA
BRANCH   6   9
ATOM      9  C   UNL d   1       3.215  -1.684   0.000  0.00  0.00     0.104 A 
ATOM     10  C   UNL d   1       3.633  -0.971   0.000  0.00  0.00     0.015 A 
ATOM     11  C   UNL d   1       4.459  -0.962   0.000  0.00  0.00     0.028 A 
ATOM     12  C   UNL d   1       4.869  -0.253   0.000  0.00  0.00     0.002 C 
ATOM     13  C   UNL d   1       4.869  -1.684   0.000  0.00  0.00     0.140 A 
ATOM     14  C   UNL d   1       4.459  -2.393   0.000  0.00  0.00     0.030 A 
ATOM     15  F   UNL d   1       5.691  -1.684   0.000  0.00  0.00    -0.204 F 
ATOM     16  C   UNL d   1       3.633  -2.393   0.000  0.00  0.00     0.015 A 
ENDBRANCH   6   9
ENDBRANCH   1   6
BRANCH   2  17
ATOM     17  C   UNL d   1       1.336  -0.228   0.000  0.00  0.00     0.035 A 
ATOM     18  C   UNL d   1       2.144  -0.054   0.000  0.00  0.00     0.003 A 
ATOM     19  C   UNL d   1       2.401   0.730   0.000  0.00  0.00     0.000 A 
ATOM     20  C   UNL d   1       1.846   1.340   0.000  0.00  0.00     0.000 A 
ATOM     21  C   UNL d   1       1.037   1.165   0.000  0.00  0.00     0.000 A 
ATOM     22  C   UNL d   1       0.784   0.382   0.000  0.00  0.00     0.003 A 
ENDBRANCH   2  17
TORSDOF 3
