REMARK  2 active torsions:
REMARK  status: ('A' for Active; 'I' for Inactive)
REMARK    1  A    between atoms: C_2  and  N_1 
REMARK    2  A    between atoms: C_4  and  C_7 
ROOT
ATOM      1  C   UNL d   1       0.693  -1.407   0.000  0.00  0.00     0.146 A 
ATOM      2  C   UNL d   1       1.407  -0.994   0.000  0.00  0.00     0.027 A 
ATOM      3  C   UNL d   1       1.407  -0.154   0.000  0.00  0.00     0.021 A 
ATOM      4  C   UNL d   1      -0.021  -0.994   0.000  0.00  0.00     0.125 A 
ATOM      5  C   UNL d   1       0.693   0.251   0.000  0.00  0.00     0.003 A 
ATOM      6  C   UNL d   1      -0.021  -0.154   0.000  0.00  0.00     0.023 A 
ATOM      7  N   UNL d   1      -0.739  -1.407   0.000  0.00  0.00    -0.146 N 
ENDROOT
BRANCH   3   8
ATOM      8  C   UNL d   1       2.121   0.251   0.000  0.00  0.00     0.103 A 
ATOM      9  N   UNL d   1       2.843  -0.154   0.000  0.00  0.00    -0.145 NA
ATOM     10  N   UNL d   1       3.557   0.251   0.000  0.00  0.00    -0.106 NA
ATOM     11  C   UNL d   1       3.557   1.077   0.000  0.00  0.00     0.297 A 
ATOM     12  C   UNL d   1       2.835   1.491   0.000  0.00  0.00     0.066 A 
ATOM     13  O   UNL d   1       4.271   1.491   0.000  0.00  0.00    -0.264 OA
ATOM     14  C   UNL d   1       2.121   1.077   0.000  0.00  0.00     0.024 A 
ATOM     15  C   UNL d   1       1.403   1.491   0.000  0.00  0.00     0.002 C 
ENDBRANCH   3   8
BRANCH   1  16
ATOM     16  N   UNL d   1       0.693  -2.234   0.000  0.00  0.00    -0.112 N 
ATOM     17  O   UNL d   1      -0.021  -2.647   0.000  0.00  0.00    -0.532 OA
ATOM     18  O   UNL d   1       1.407  -2.647   0.000  0.00  0.00    -0.532 OA
ENDBRANCH   1  16
TORSDOF 2
