REMARK  4 active torsions:
REMARK  status: ('A' for Active; 'I' for Inactive)
REMARK    1  A    between atoms: C_2  and  C_1 
REMARK    2  A    between atoms: C_3  and  C_2 
REMARK    3  A    between atoms: C_5  and  C_3 
REMARK    4  A    between atoms: O_12  and  C_7 
ROOT
ATOM      1  C   UNL d   1       0.548   0.000   0.000  0.00  0.00     0.000 A 
ATOM      2  C   UNL d   1      -0.881  -0.827   0.000  0.00  0.00     0.094 A 
ATOM      3  C   UNL d   1      -0.170   0.411   0.000  0.00  0.00     0.002 A 
ATOM      4  C   UNL d   1       0.548  -0.827   0.000  0.00  0.00     0.002 A 
ATOM      5  C   UNL d   1      -0.881   0.000   0.000  0.00  0.00     0.024 A 
ATOM      6  C   UNL d   1      -0.170  -1.238   0.000  0.00  0.00     0.024 A 
ENDROOT
BRANCH   1   7
ATOM      7  C   UNL d   1       1.259   0.420   0.000  0.00  0.00     0.006 C 
BRANCH   7   8
ATOM      8  C   UNL d   1       1.974   0.008   0.000  0.00  0.00     0.070 C 
BRANCH   8   9
ATOM      9  C   UNL d   1       2.684   0.420   0.000  0.00  0.00     0.211 C 
ATOM     10  O   UNL d   1       2.680   1.242   0.000  0.00  0.00    -0.644 OA
ATOM     11  O   UNL d   1       3.395   0.013   0.000  0.00  0.00    -0.644 OA
ENDBRANCH   8   9
ENDBRANCH   7   8
ENDBRANCH   1   7
BRANCH   2  12
ATOM     12  O   UNL d   1      -1.591  -1.238   0.000  0.00  0.00    -0.328 OA
ATOM     13  C   UNL d   1      -1.591  -2.061   0.000  0.00  0.00     0.181 C 
ENDBRANCH   2  12
TORSDOF 4
