REMARK  4 active torsions:
REMARK  status: ('A' for Active; 'I' for Inactive)
REMARK    1  A    between atoms: C_30  and  N_11 
REMARK    2  A    between atoms: C_29  and  N_12 
REMARK    3  A    between atoms: C_16  and  C_13 
REMARK    4  A    between atoms: C_15  and  C_14 
ROOT
ATOM      1  N   UNL d   1       3.529  -0.106   0.000  0.00  0.00    -0.240 N 
ATOM      2  N   UNL d   1       3.793  -0.927   0.000  0.00  0.00    -0.240 N 
ATOM      3  C   UNL d   1       2.684  -0.106   0.000  0.00  0.00     0.144 A 
ATOM      4  C   UNL d   1       4.638  -0.927   0.000  0.00  0.00     0.144 A 
ATOM      5  C   UNL d   1       4.912  -0.106   0.000  0.00  0.00     0.097 A 
ATOM      6  C   UNL d   1       2.420  -0.922   0.000  0.00  0.00     0.097 A 
ATOM      7  C   UNL d   1       1.993   0.389   0.000  0.00  0.00     0.285 A 
ATOM      8  C   UNL d   1       5.320  -1.440   0.000  0.00  0.00     0.285 A 
ATOM      9  C   UNL d   1       1.570  -0.922   0.000  0.00  0.00     0.270 A 
ATOM     10  C   UNL d   1       5.767  -0.120   0.000  0.00  0.00     0.270 A 
ATOM     11  N   UNL d   1       6.021  -0.941   0.000  0.00  0.00    -0.239 N 
ATOM     12  N   UNL d   1       1.311  -0.106   0.000  0.00  0.00    -0.239 N 
ATOM     13  C   UNL d   1       4.226   0.389   0.000  0.00  0.00     0.094 A 
ATOM     14  C   UNL d   1       3.102  -1.417   0.000  0.00  0.00     0.094 A 
ATOM     15  O   UNL d   1       5.316  -2.252   0.000  0.00  0.00    -0.265 OA
ATOM     16  O   UNL d   1       6.257   0.528   0.000  0.00  0.00    -0.266 OA
ATOM     17  O   UNL d   1       1.085  -1.575   0.000  0.00  0.00    -0.266 OA
ATOM     18  O   UNL d   1       1.993   1.205   0.000  0.00  0.00    -0.265 OA
ENDROOT
BRANCH  13  19
ATOM     19  C   UNL d   1       4.235   1.205   0.000  0.00  0.00     0.047 A 
ATOM     20  S   UNL d   1       3.577   1.681   0.000  0.00  0.00    -0.085 SA
ATOM     21  C   UNL d   1       3.837   2.449   0.000  0.00  0.00     0.035 A 
ATOM     22  C   UNL d   1       4.653   2.444   0.000  0.00  0.00     0.007 A 
ATOM     23  C   UNL d   1       4.888   1.666   0.000  0.00  0.00     0.009 A 
ENDBRANCH  13  19
BRANCH  11  24
ATOM     24  C   UNL d   1       6.790  -1.200   0.000  0.00  0.00     0.086 C 
ATOM     25  C   UNL d   1       7.409  -0.653   0.000  0.00  0.00     0.021 C 
ENDBRANCH  11  24
BRANCH  14  26
ATOM     26  C   UNL d   1       3.102  -2.223   0.000  0.00  0.00     0.047 A 
ATOM     27  S   UNL d   1       3.765  -2.699   0.000  0.00  0.00    -0.085 SA
ATOM     28  C   UNL d   1       3.515  -3.462   0.000  0.00  0.00     0.035 A 
ATOM     29  C   UNL d   1       2.708  -3.462   0.000  0.00  0.00     0.007 A 
ATOM     30  C   UNL d   1       2.454  -2.699   0.000  0.00  0.00     0.009 A 
ENDBRANCH  14  26
BRANCH  12  31
ATOM     31  C   UNL d   1       0.533   0.144   0.000  0.00  0.00     0.086 C 
ATOM     32  C   UNL d   1       0.360   0.951   0.000  0.00  0.00     0.021 C 
ENDBRANCH  12  31
TORSDOF 4
