REMARK  9 active torsions:
REMARK  status: ('A' for Active; 'I' for Inactive)
REMARK    1  A    between atoms: N_9  and  C_3 
REMARK    2  A    between atoms: S_14  and  C_6 
REMARK       I    between atoms: C_11  and  N_9 
REMARK    3  A    between atoms: C_18  and  C_11 
REMARK    4  A    between atoms: C_12  and  C_15 
REMARK    5  A    between atoms: O_25  and  C_12 
REMARK    6  A    between atoms: C_13  and  C_23 
REMARK       I    between atoms: N_16  and  C_13 
REMARK    7  A    between atoms: C_23  and  S_14 
REMARK    8  A    between atoms: C_24  and  N_16 
REMARK    9  A    between atoms: C_32  and  O_25 
ROOT
ATOM      1  C   UNL d   1       0.345  -0.249   0.000  0.00  0.00     0.079 A 
ATOM      2  C   UNL d   1       0.345  -1.084   0.000  0.00  0.00     0.187 A 
ATOM      3  C   UNL d   1       1.055   0.153   0.000  0.00  0.00     0.171 A 
ATOM      4  N   UNL d   1       1.055  -1.501   0.000  0.00  0.00    -0.197 NA
ATOM      5  N   UNL d   1       1.775  -0.249   0.000  0.00  0.00    -0.202 NA
ATOM      6  C   UNL d   1       1.775  -1.084   0.000  0.00  0.00     0.198 A 
ATOM      7  C   UNL d   1      -0.441   0.000   0.000  0.00  0.00     0.029 A 
ATOM      8  O   UNL d   1      -0.446  -1.343   0.000  0.00  0.00    -0.289 OA
ATOM      9  C   UNL d   1      -0.930  -0.667   0.000  0.00  0.00     0.102 A 
ATOM     10  C   UNL d   1      -0.700   0.786   0.000  0.00  0.00     0.002 C 
ATOM     11  C   UNL d   1      -1.755  -0.667   0.000  0.00  0.00     0.027 C 
ENDROOT
BRANCH   6  12
ATOM     12  S   UNL d   1       2.494  -1.501   0.000  0.00  0.00    -0.043 SA
BRANCH  12  13
ATOM     13  C   UNL d   1       2.494  -2.321   0.000  0.00  0.00     0.101 C 
BRANCH  13  14
ATOM     14  C   UNL d   1       3.209  -2.734   0.000  0.00  0.00     0.286 C 
ATOM     15  N   UNL d   1       3.918  -2.321   0.000  0.00  0.00    -0.208 NA
ATOM     16  O   UNL d   1       3.213  -3.559   0.000  0.00  0.00    -0.265 OA
BRANCH  15  17
ATOM     17  C   UNL d   1       4.638  -2.724   0.000  0.00  0.00     0.085 A 
ATOM     18  C   UNL d   1       5.343  -2.307   0.000  0.00  0.00     0.019 A 
ATOM     19  C   UNL d   1       6.058  -2.719   0.000  0.00  0.00     0.007 A 
ATOM     20  C   UNL d   1       6.062  -3.544   0.000  0.00  0.00     0.064 A 
ATOM     21  C   UNL d   1       5.343  -3.962   0.000  0.00  0.00     0.007 A 
ATOM     22  C   UNL d   1       4.633  -3.554   0.000  0.00  0.00     0.019 A 
BRANCH  20  23
ATOM     23  C   UNL d   1       6.782  -3.957   0.000  0.00  0.00     0.300 C 
ATOM     24  O   UNL d   1       7.497  -3.544   0.000  0.00  0.00    -0.259 OA
BRANCH  23  25
ATOM     25  O   UNL d   1       6.782  -4.782   0.000  0.00  0.00    -0.271 OA
BRANCH  25  26
ATOM     26  C   UNL d   1       6.072  -5.199   0.000  0.00  0.00     0.126 C 
ATOM     27  C   UNL d   1       6.077  -6.019   0.000  0.00  0.00     0.029 C 
ENDBRANCH  25  26
ENDBRANCH  23  25
ENDBRANCH  20  23
ENDBRANCH  15  17
ENDBRANCH  13  14
ENDBRANCH  12  13
ENDBRANCH   6  12
BRANCH   3  28
ATOM     28  N   UNL d   1       1.055   0.978   0.000  0.00  0.00    -0.189 NA
ATOM     29  C   UNL d   1       1.775   1.391   0.000  0.00  0.00     0.281 C 
ATOM     30  O   UNL d   1       2.489   0.978   0.000  0.00  0.00    -0.265 OA
BRANCH  29  31
ATOM     31  C   UNL d   1       1.770   2.216   0.000  0.00  0.00     0.058 A 
ATOM     32  C   UNL d   1       2.480   2.628   0.000  0.00  0.00     0.005 A 
ATOM     33  C   UNL d   1       2.480   3.448   0.000  0.00  0.00     0.000 A 
ATOM     34  C   UNL d   1       1.770   3.866   0.000  0.00  0.00     0.000 A 
ATOM     35  C   UNL d   1       1.055   3.448   0.000  0.00  0.00     0.000 A 
ATOM     36  C   UNL d   1       1.055   2.619   0.000  0.00  0.00     0.005 A 
ENDBRANCH  29  31
ENDBRANCH   3  28
TORSDOF 9
