REMARK  5 active torsions:
REMARK  status: ('A' for Active; 'I' for Inactive)
REMARK    1  A    between atoms: C_6  and  N_1 
REMARK    2  A    between atoms: C_13  and  C_6 
REMARK    3  A    between atoms: O_11  and  C_7 
REMARK    4  A    between atoms: O_19  and  C_8 
REMARK    5  A    between atoms: C_20  and  O_11 
ROOT
ATOM      1  C   UNL d   1       7.631  -2.983   0.000  0.00  0.00     0.122 A 
ATOM      2  C   UNL d   1       7.045  -2.405   0.000  0.00  0.00     0.117 A 
ATOM      3  C   UNL d   1       6.248  -2.621   0.000  0.00  0.00     0.028 A 
ATOM      4  C   UNL d   1       6.048  -3.419   0.000  0.00  0.00     0.020 A 
ATOM      5  C   UNL d   1       7.419  -3.780   0.000  0.00  0.00     0.027 A 
ATOM      6  C   UNL d   1       6.630  -3.992   0.000  0.00  0.00     0.004 A 
ENDROOT
BRANCH   4   7
ATOM      7  C   UNL d   1       5.251  -3.631   0.000  0.00  0.00     0.085 C 
BRANCH   7   8
ATOM      8  N   UNL d   1       5.039  -4.428   0.000  0.00  0.00    -0.251 N 
ATOM      9  C   UNL d   1       5.533  -5.101   0.000  0.00  0.00     0.378 A 
ATOM     10  O   UNL d   1       5.051  -5.774   0.000  0.00  0.00    -0.258 OA
ATOM     11  O   UNL d   1       6.356  -5.089   0.000  0.00  0.00    -0.237 OA
ATOM     12  C   UNL d   1       4.262  -5.521   0.000  0.00  0.00     0.121 A 
ATOM     13  C   UNL d   1       4.254  -4.690   0.000  0.00  0.00     0.092 A 
ATOM     14  C   UNL d   1       3.543  -5.932   0.000  0.00  0.00     0.026 A 
ATOM     15  C   UNL d   1       3.543  -4.279   0.000  0.00  0.00     0.020 A 
ATOM     16  C   UNL d   1       2.833  -4.698   0.000  0.00  0.00     0.002 A 
ATOM     17  C   UNL d   1       2.833  -5.521   0.000  0.00  0.00     0.002 A 
ATOM     18  C   UNL d   1       2.119  -4.279   0.000  0.00  0.00     0.000 C 
ENDBRANCH   7   8
ENDBRANCH   4   7
BRANCH   2  19
ATOM     19  O   UNL d   1       7.245  -1.612   0.000  0.00  0.00    -0.326 OA
ATOM     20  C   UNL d   1       8.043  -1.396   0.000  0.00  0.00     0.181 C 
ENDBRANCH   2  19
BRANCH   1  21
ATOM     21  O   UNL d   1       8.425  -2.771   0.000  0.00  0.00    -0.305 OA
BRANCH  21  22
ATOM     22  C   UNL d   1       9.002  -3.352   0.000  0.00  0.00     0.100 C 
ATOM     23  C   UNL d   1       8.790  -4.142   0.000  0.00  0.00     0.027 C 
ATOM     24  C   UNL d   1       9.800  -3.140   0.000  0.00  0.00     0.027 C 
ENDBRANCH  21  22
ENDBRANCH   1  21
TORSDOF 5
