REMARK  3 active torsions:
REMARK  status: ('A' for Active; 'I' for Inactive)
REMARK    1  A    between atoms: C_7  and  C_8 
REMARK       I    between atoms: N_10  and  C_7 
REMARK    2  A    between atoms: C_19  and  N_10 
REMARK    3  A    between atoms: C_11  and  C_19 
ROOT
ATOM      1  C   UNL d   1       2.661  -0.092   0.000  0.00  0.00     0.039 A 
ATOM      2  C   UNL d   1       2.003  -0.591   0.000  0.00  0.00     0.196 A 
ATOM      3  C   UNL d   1       2.390   0.687   0.000  0.00  0.00     0.003 A 
ATOM      4  C   UNL d   1       1.324  -0.117   0.000  0.00  0.00     0.039 A 
ATOM      5  C   UNL d   1       1.566   0.670   0.000  0.00  0.00     0.003 A 
ATOM      6  C   UNL d   1       3.465  -0.242   0.000  0.00  0.00     0.008 A 
ATOM      7  C   UNL d   1       4.002   0.375   0.000  0.00  0.00     0.058 A 
ATOM      8  C   UNL d   1       2.927   1.320   0.000  0.00  0.00     0.000 A 
ATOM      9  O   UNL d   1       2.015  -1.416   0.000  0.00  0.00    -0.287 OA
ATOM     10  C   UNL d   1       3.739   1.158   0.000  0.00  0.00     0.005 A 
ATOM     11  C   UNL d   1       0.525  -0.304   0.000  0.00  0.00     0.003 A 
ATOM     12  C   UNL d   1       1.004   1.274   0.000  0.00  0.00     0.000 A 
ATOM     13  C   UNL d   1      -0.037   0.296   0.000  0.00  0.00     0.000 A 
ATOM     14  C   UNL d   1       0.200   1.087   0.000  0.00  0.00     0.000 A 
ENDROOT
BRANCH   7  15
ATOM     15  C   UNL d   1       4.814   0.221   0.000  0.00  0.00     0.279 C 
ATOM     16  N   UNL d   1       5.084  -0.554   0.000  0.00  0.00    -0.204 NA
ATOM     17  O   UNL d   1       5.351   0.845   0.000  0.00  0.00    -0.265 OA
BRANCH  16  18
ATOM     18  C   UNL d   1       5.896  -0.716   0.000  0.00  0.00     0.127 C 
BRANCH  18  19
ATOM     19  C   UNL d   1       6.163  -1.491   0.000  0.00  0.00     0.119 A 
ATOM     20  O   UNL d   1       6.950  -1.728   0.000  0.00  0.00    -0.304 OA
ATOM     21  C   UNL d   1       6.971  -2.553   0.000  0.00  0.00     0.123 A 
ATOM     22  C   UNL d   1       6.188  -2.823   0.000  0.00  0.00     0.029 A 
ATOM     23  C   UNL d   1       5.688  -2.165   0.000  0.00  0.00     0.028 A 
ENDBRANCH  18  19
ENDBRANCH  16  18
ENDBRANCH   7  15
TORSDOF 3
