REMARK  6 active torsions:
REMARK  status: ('A' for Active; 'I' for Inactive)
REMARK    1  A    between atoms: C_2  and  S_1 
REMARK    2  A    between atoms: N_4  and  S_1 
REMARK    3  A    between atoms: C_12  and  N_4 
REMARK    4  A    between atoms: O_14  and  C_6 
REMARK    5  A    between atoms: C_13  and  C_12 
REMARK    6  A    between atoms: C_18  and  O_14 
ROOT
ATOM      1  C   UNL d   1       4.029   0.263   0.000  0.00  0.00     0.107 A 
ATOM      2  C   UNL d   1       4.442  -0.454   0.000  0.00  0.00     0.038 A 
ATOM      3  C   UNL d   1       4.442   0.975   0.000  0.00  0.00     0.012 A 
ATOM      4  C   UNL d   1       5.275  -0.454   0.000  0.00  0.00     0.101 A 
ATOM      5  C   UNL d   1       5.275   0.975   0.000  0.00  0.00     0.003 A 
ATOM      6  C   UNL d   1       5.688   0.263   0.000  0.00  0.00     0.023 A 
ATOM      7  C   UNL d   1       4.029   1.696   0.000  0.00  0.00     0.001 C 
ATOM      8  C   UNL d   1       6.513   0.263   0.000  0.00  0.00     0.002 C 
ENDROOT
BRANCH   1   9
ATOM      9  S   UNL d   1       3.204   0.263   0.000  0.00  0.00     0.285 S 
ATOM     10  O   UNL d   1       3.204   1.087   0.000  0.00  0.00    -0.198 OA
ATOM     11  O   UNL d   1       3.204  -0.567   0.000  0.00  0.00    -0.198 OA
BRANCH   9  12
ATOM     12  N   UNL d   1       2.379   0.263   0.000  0.00  0.00    -0.155 NA
BRANCH  12  13
ATOM     13  C   UNL d   1       1.967  -0.454   0.000  0.00  0.00     0.131 C 
BRANCH  13  14
ATOM     14  C   UNL d   1       1.142  -0.454   0.000  0.00  0.00     0.101 A 
ATOM     15  N   UNL d   1       0.729  -1.167   0.000  0.00  0.00    -0.242 NA
ATOM     16  C   UNL d   1      -0.096  -1.167   0.000  0.00  0.00     0.099 A 
ATOM     17  C   UNL d   1      -0.508  -0.454   0.000  0.00  0.00     0.021 A 
ATOM     18  C   UNL d   1      -0.096   0.263   0.000  0.00  0.00     0.003 A 
ATOM     19  C   UNL d   1       0.729   0.263   0.000  0.00  0.00     0.021 A 
ENDBRANCH  13  14
ENDBRANCH  12  13
ENDBRANCH   9  12
ENDBRANCH   1   9
BRANCH   4  20
ATOM     20  O   UNL d   1       5.688  -1.167   0.000  0.00  0.00    -0.305 OA
BRANCH  20  21
ATOM     21  C   UNL d   1       5.275  -1.879   0.000  0.00  0.00     0.123 C 
ATOM     22  C   UNL d   1       5.688  -2.592   0.000  0.00  0.00     0.029 C 
ENDBRANCH  20  21
ENDBRANCH   4  20
TORSDOF 6
