REMARK  6 active torsions:
REMARK  status: ('A' for Active; 'I' for Inactive)
REMARK    1  A    between atoms: C_2  and  S_1 
REMARK    2  A    between atoms: N_3  and  S_1 
REMARK    3  A    between atoms: C_10  and  N_3 
REMARK    4  A    between atoms: O_15  and  C_5 
REMARK    5  A    between atoms: C_13  and  C_10 
REMARK    6  A    between atoms: C_17  and  O_15 
ROOT
ATOM      1  S   UNL d   1       3.204   0.263   0.000  0.00  0.00     0.285 S 
ATOM      2  O   UNL d   1       3.204  -0.567   0.000  0.00  0.00    -0.198 OA
ATOM      3  O   UNL d   1       3.204   1.087   0.000  0.00  0.00    -0.198 OA
ENDROOT
BRANCH   1   4
ATOM      4  C   UNL d   1       4.029   0.263   0.000  0.00  0.00     0.107 A 
ATOM      5  C   UNL d   1       4.442  -0.454   0.000  0.00  0.00     0.038 A 
ATOM      6  C   UNL d   1       5.275  -0.454   0.000  0.00  0.00     0.111 A 
ATOM      7  C   UNL d   1       5.688   0.263   0.000  0.00  0.00     0.081 A 
ATOM      8  C   UNL d   1       5.275   0.975   0.000  0.00  0.00     0.014 A 
ATOM      9 CL   UNL d   1       6.513   0.263   0.000  0.00  0.00    -0.080 Cl
ATOM     10  C   UNL d   1       4.442   0.975   0.000  0.00  0.00     0.014 A 
BRANCH   6  11
ATOM     11  O   UNL d   1       5.688  -1.167   0.000  0.00  0.00    -0.304 OA
BRANCH  11  12
ATOM     12  C   UNL d   1       5.275  -1.879   0.000  0.00  0.00     0.123 C 
ATOM     13  C   UNL d   1       5.688  -2.592   0.000  0.00  0.00     0.029 C 
ENDBRANCH  11  12
ENDBRANCH   6  11
ENDBRANCH   1   4
BRANCH   1  14
ATOM     14  N   UNL d   1       2.379   0.263   0.000  0.00  0.00    -0.155 NA
BRANCH  14  15
ATOM     15  C   UNL d   1       1.967  -0.454   0.000  0.00  0.00     0.131 C 
BRANCH  15  16
ATOM     16  C   UNL d   1       1.142  -0.454   0.000  0.00  0.00     0.101 A 
ATOM     17  N   UNL d   1       0.729  -1.167   0.000  0.00  0.00    -0.242 NA
ATOM     18  C   UNL d   1      -0.096  -1.167   0.000  0.00  0.00     0.099 A 
ATOM     19  C   UNL d   1      -0.508  -0.454   0.000  0.00  0.00     0.021 A 
ATOM     20  C   UNL d   1      -0.096   0.263   0.000  0.00  0.00     0.003 A 
ATOM     21  C   UNL d   1       0.729   0.263   0.000  0.00  0.00     0.021 A 
ENDBRANCH  15  16
ENDBRANCH  14  15
ENDBRANCH   1  14
TORSDOF 6
