REMARK  4 active torsions:
REMARK  status: ('A' for Active; 'I' for Inactive)
REMARK    1  A    between atoms: N_2  and  S_1 
REMARK    2  A    between atoms: C_6  and  S_1 
REMARK    3  A    between atoms: O_17  and  C_12 
REMARK    4  A    between atoms: C_19  and  O_17 
ROOT
ATOM      1  S   UNL d   1       2.717   0.174   0.000  0.00  0.00     0.271 S 
ATOM      2  O   UNL d   1       2.717   1.005   0.000  0.00  0.00    -0.200 OA
ATOM      3  O   UNL d   1       2.717  -0.652   0.000  0.00  0.00    -0.200 OA
ENDROOT
BRANCH   1   4
ATOM      4  N   UNL d   1       1.886   0.174   0.000  0.00  0.00    -0.232 N 
ATOM      5  C   UNL d   1       1.400   0.843   0.000  0.00  0.00     0.075 A 
ATOM      6  C   UNL d   1       0.615   0.594   0.000  0.00  0.00     0.020 A 
ATOM      7  C   UNL d   1       1.662   1.628   0.000  0.00  0.00     0.020 C 
ATOM      8  C   UNL d   1       0.615  -0.237   0.000  0.00  0.00     0.018 A 
ATOM      9  C   UNL d   1       1.400  -0.490   0.000  0.00  0.00     0.075 A 
ATOM     10  C   UNL d   1       0.004  -0.789   0.000  0.00  0.00     0.002 A 
ATOM     11  C   UNL d   1       1.574  -1.300   0.000  0.00  0.00     0.018 A 
ATOM     12  C   UNL d   1       0.964  -1.849   0.000  0.00  0.00     0.002 A 
ATOM     13  C   UNL d   1       0.179  -1.599   0.000  0.00  0.00     0.000 A 
ENDBRANCH   1   4
BRANCH   1  14
ATOM     14  C   UNL d   1       3.543   0.174   0.000  0.00  0.00     0.104 A 
ATOM     15  C   UNL d   1       3.955   0.893   0.000  0.00  0.00     0.015 A 
ATOM     16  C   UNL d   1       4.777   0.893   0.000  0.00  0.00     0.025 A 
ATOM     17  C   UNL d   1       5.197   0.174   0.000  0.00  0.00     0.100 A 
ATOM     18  C   UNL d   1       4.777  -0.540   0.000  0.00  0.00     0.025 A 
ATOM     19  C   UNL d   1       3.955  -0.540   0.000  0.00  0.00     0.015 A 
BRANCH  17  20
ATOM     20  O   UNL d   1       6.019   0.174   0.000  0.00  0.00    -0.305 OA
BRANCH  20  21
ATOM     21  C   UNL d   1       6.430  -0.536   0.000  0.00  0.00     0.123 C 
ATOM     22  C   UNL d   1       7.253  -0.536   0.000  0.00  0.00     0.029 C 
ENDBRANCH  20  21
ENDBRANCH  17  20
ENDBRANCH   1  14
TORSDOF 4
