REMARK  4 active torsions:
REMARK  status: ('A' for Active; 'I' for Inactive)
REMARK    1  A    between atoms: C_6  and  N_1 
REMARK    2  A    between atoms: C_11  and  C_6 
REMARK    3  A    between atoms: O_14  and  C_8 
REMARK    4  A    between atoms: O_15  and  C_9 
ROOT
ATOM      1  C   UNL d   1       5.974  -4.736   0.000  0.00  0.00     0.084 C 
ENDROOT
BRANCH   1   2
ATOM      2  N   UNL d   1       5.726  -5.523   0.000  0.00  0.00    -0.268 N 
ATOM      3  C   UNL d   1       6.221  -6.187   0.000  0.00  0.00     0.296 A 
ATOM      4  S   UNL d   1       5.736  -6.862   0.000  0.00  0.00    -0.025 SA
ATOM      5  O   UNL d   1       7.046  -6.178   0.000  0.00  0.00    -0.259 OA
ATOM      6  C   UNL d   1       4.950  -6.610   0.000  0.00  0.00     0.050 A 
ATOM      7  C   UNL d   1       4.940  -5.785   0.000  0.00  0.00     0.073 A 
ATOM      8  C   UNL d   1       4.227  -7.022   0.000  0.00  0.00     0.008 A 
ATOM      9  C   UNL d   1       4.227  -5.372   0.000  0.00  0.00     0.018 A 
ATOM     10  C   UNL d   1       3.514  -5.785   0.000  0.00  0.00     0.002 A 
ATOM     11  C   UNL d   1       3.514  -6.614   0.000  0.00  0.00     0.001 A 
ENDBRANCH   1   2
BRANCH   1  12
ATOM     12  C   UNL d   1       6.784  -4.557   0.000  0.00  0.00     0.020 A 
ATOM     13  C   UNL d   1       7.022  -3.776   0.000  0.00  0.00     0.028 A 
ATOM     14  C   UNL d   1       7.823  -3.596   0.000  0.00  0.00     0.116 A 
ATOM     15  C   UNL d   1       8.391  -4.207   0.000  0.00  0.00     0.116 A 
ATOM     16  C   UNL d   1       8.138  -4.994   0.000  0.00  0.00     0.026 A 
ATOM     17  C   UNL d   1       7.328  -5.168   0.000  0.00  0.00     0.004 A 
BRANCH  14  18
ATOM     18  O   UNL d   1       8.070  -2.810   0.000  0.00  0.00    -0.326 OA
ATOM     19  C   UNL d   1       8.881  -2.625   0.000  0.00  0.00     0.181 C 
ENDBRANCH  14  18
BRANCH  15  20
ATOM     20  O   UNL d   1       9.186  -3.994   0.000  0.00  0.00    -0.326 OA
ATOM     21  C   UNL d   1       9.769  -4.571   0.000  0.00  0.00     0.181 C 
ENDBRANCH  15  20
ENDBRANCH   1  12
TORSDOF 4
