REMARK  5 active torsions:
REMARK  status: ('A' for Active; 'I' for Inactive)
REMARK    1  A    between atoms: C_7  and  N_2 
REMARK    2  A    between atoms: C_14  and  C_7 
REMARK    3  A    between atoms: C_8  and  O_16 
REMARK    4  A    between atoms: C_18  and  C_14 
REMARK    5  A    between atoms: O_16  and  C_18 
ROOT
ATOM      1  C   UNL d   1       5.038  -3.317   0.000  0.00  0.00     0.086 C 
ENDROOT
BRANCH   1   2
ATOM      2  N   UNL d   1       4.791  -4.102   0.000  0.00  0.00    -0.268 N 
ATOM      3  C   UNL d   1       5.285  -4.762   0.000  0.00  0.00     0.296 A 
ATOM      4  S   UNL d   1       4.800  -5.440   0.000  0.00  0.00    -0.025 SA
ATOM      5  O   UNL d   1       6.109  -4.762   0.000  0.00  0.00    -0.259 OA
ATOM      6  C   UNL d   1       4.015  -5.184   0.000  0.00  0.00     0.050 A 
ATOM      7  C   UNL d   1       3.292  -5.605   0.000  0.00  0.00     0.008 A 
ATOM      8  C   UNL d   1       4.005  -4.364   0.000  0.00  0.00     0.073 A 
ATOM      9  C   UNL d   1       2.580  -5.193   0.000  0.00  0.00     0.001 A 
ATOM     10  C   UNL d   1       2.580  -4.364   0.000  0.00  0.00     0.002 A 
ATOM     11  C   UNL d   1       3.292  -3.947   0.000  0.00  0.00     0.018 A 
ENDBRANCH   1   2
BRANCH   1  12
ATOM     12  C   UNL d   1       5.848  -3.132   0.000  0.00  0.00     0.046 C 
BRANCH  12  13
ATOM     13  C   UNL d   1       6.100  -2.347   0.000  0.00  0.00     0.124 C 
BRANCH  13  14
ATOM     14  O   UNL d   1       6.900  -2.172   0.000  0.00  0.00    -0.305 OA
BRANCH  14  15
ATOM     15  C   UNL d   1       7.710  -1.998   0.000  0.00  0.00     0.100 A 
ATOM     16  C   UNL d   1       7.947  -1.222   0.000  0.00  0.00     0.025 A 
ATOM     17  C   UNL d   1       8.757  -1.038   0.000  0.00  0.00     0.002 A 
ATOM     18  C   UNL d   1       9.315  -1.649   0.000  0.00  0.00     0.000 A 
ATOM     19  C   UNL d   1       9.062  -2.434   0.000  0.00  0.00     0.002 A 
ATOM     20  C   UNL d   1      10.115  -1.474   0.000  0.00  0.00     0.000 C 
ATOM     21  C   UNL d   1       8.262  -2.609   0.000  0.00  0.00     0.025 A 
ENDBRANCH  14  15
ENDBRANCH  13  14
ENDBRANCH  12  13
ENDBRANCH   1  12
TORSDOF 5
