REMARK  5 active torsions:
REMARK  status: ('A' for Active; 'I' for Inactive)
REMARK    1  A    between atoms: C_9  and  N_2 
REMARK    2  A    between atoms: C_7  and  O_10 
REMARK    3  A    between atoms: O_11  and  C_8 
REMARK    4  A    between atoms: C_12  and  C_9 
REMARK    5  A    between atoms: O_10  and  C_12 
ROOT
ATOM      1  C   UNL d   1       5.455  -3.235   0.000  0.00  0.00     0.110 C 
ENDROOT
BRANCH   1   2
ATOM      2  N   UNL d   1       5.207  -4.022   0.000  0.00  0.00    -0.266 N 
ATOM      3  C   UNL d   1       5.697  -4.682   0.000  0.00  0.00     0.296 A 
ATOM      4  S   UNL d   1       5.207  -5.362   0.000  0.00  0.00    -0.025 SA
ATOM      5  O   UNL d   1       6.518  -4.682   0.000  0.00  0.00    -0.259 OA
ATOM      6  C   UNL d   1       4.420  -5.105   0.000  0.00  0.00     0.050 A 
ATOM      7  C   UNL d   1       3.706  -5.527   0.000  0.00  0.00     0.008 A 
ATOM      8  C   UNL d   1       4.420  -4.284   0.000  0.00  0.00     0.074 A 
ATOM      9  C   UNL d   1       2.992  -5.105   0.000  0.00  0.00     0.001 A 
ATOM     10  C   UNL d   1       2.992  -4.284   0.000  0.00  0.00     0.002 A 
ATOM     11  C   UNL d   1       3.706  -3.866   0.000  0.00  0.00     0.018 A 
ENDBRANCH   1   2
BRANCH   1  12
ATOM     12  C   UNL d   1       6.256  -3.050   0.000  0.00  0.00     0.142 C 
BRANCH  12  13
ATOM     13  O   UNL d   1       6.513  -2.264   0.000  0.00  0.00    -0.302 OA
BRANCH  13  14
ATOM     14  C   UNL d   1       7.320  -2.089   0.000  0.00  0.00     0.122 A 
ATOM     15  C   UNL d   1       7.873  -2.701   0.000  0.00  0.00     0.117 A 
ATOM     16  C   UNL d   1       8.675  -2.526   0.000  0.00  0.00     0.026 A 
ATOM     17  C   UNL d   1       8.923  -1.739   0.000  0.00  0.00     0.002 A 
ATOM     18  C   UNL d   1       8.364  -1.127   0.000  0.00  0.00     0.002 A 
ATOM     19  C   UNL d   1       7.563  -1.311   0.000  0.00  0.00     0.027 A 
BRANCH  15  20
ATOM     20  O   UNL d   1       7.655  -3.502   0.000  0.00  0.00    -0.326 OA
ATOM     21  C   UNL d   1       6.854  -3.706   0.000  0.00  0.00     0.181 C 
ENDBRANCH  15  20
ENDBRANCH  13  14
ENDBRANCH  12  13
ENDBRANCH   1  12
TORSDOF 5
