REMARK  3 active torsions:
REMARK  status: ('A' for Active; 'I' for Inactive)
REMARK    1  A    between atoms: C_6  and  N_1 
REMARK    2  A    between atoms: C_8  and  C_6 
REMARK    3  A    between atoms: O_15  and  C_9 
ROOT
ATOM      1  N   UNL d   1       3.955  -4.028   0.000  0.00  0.00    -0.268 N 
ATOM      2  C   UNL d   1       4.445  -4.693   0.000  0.00  0.00     0.296 A 
ATOM      3  S   UNL d   1       3.955  -5.369   0.000  0.00  0.00    -0.025 SA
ATOM      4  C   UNL d   1       3.168  -4.290   0.000  0.00  0.00     0.073 A 
ATOM      5  C   UNL d   1       3.168  -5.106   0.000  0.00  0.00     0.050 A 
ATOM      6  O   UNL d   1       5.266  -4.684   0.000  0.00  0.00    -0.259 OA
ATOM      7  C   UNL d   1       2.454  -3.877   0.000  0.00  0.00     0.018 A 
ATOM      8  C   UNL d   1       2.454  -5.529   0.000  0.00  0.00     0.008 A 
ATOM      9  C   UNL d   1       1.739  -4.290   0.000  0.00  0.00     0.002 A 
ATOM     10  C   UNL d   1       1.739  -5.121   0.000  0.00  0.00     0.001 A 
ENDROOT
BRANCH   1  11
ATOM     11  C   UNL d   1       4.202  -3.241   0.000  0.00  0.00     0.084 C 
BRANCH  11  12
ATOM     12  C   UNL d   1       5.004  -3.061   0.000  0.00  0.00     0.018 A 
ATOM     13  C   UNL d   1       5.558  -3.673   0.000  0.00  0.00     0.004 A 
ATOM     14  C   UNL d   1       6.360  -3.498   0.000  0.00  0.00     0.024 A 
ATOM     15  C   UNL d   1       6.617  -2.711   0.000  0.00  0.00     0.094 A 
ATOM     16  C   UNL d   1       6.054  -2.099   0.000  0.00  0.00     0.024 A 
ATOM     17  C   UNL d   1       5.252  -2.279   0.000  0.00  0.00     0.004 A 
BRANCH  15  18
ATOM     18  O   UNL d   1       7.409  -2.497   0.000  0.00  0.00    -0.328 OA
ATOM     19  C   UNL d   1       7.992  -3.075   0.000  0.00  0.00     0.181 C 
ENDBRANCH  15  18
ENDBRANCH  11  12
ENDBRANCH   1  11
TORSDOF 3
