REMARK  6 active torsions:
REMARK  status: ('A' for Active; 'I' for Inactive)
REMARK    1  A    between atoms: C_2  and  S_1 
REMARK    2  A    between atoms: N_4  and  S_1 
REMARK    3  A    between atoms: C_18  and  N_4 
REMARK    4  A    between atoms: O_20  and  C_6 
REMARK    5  A    between atoms: C_19  and  C_18 
REMARK    6  A    between atoms: C_24  and  O_20 
ROOT
ATOM      1  S   UNL d   1       3.912  -0.488   0.000  0.00  0.00     0.327 S 
ATOM      2  O   UNL d   1       3.494   0.232   0.000  0.00  0.00    -0.186 OA
ATOM      3  O   UNL d   1       4.325  -1.204   0.000  0.00  0.00    -0.186 OA
ENDROOT
BRANCH   1   4
ATOM      4  C   UNL d   1       4.623  -0.079   0.000  0.00  0.00     0.118 A 
ATOM      5  C   UNL d   1       5.344  -0.488   0.000  0.00  0.00     0.039 A 
ATOM      6  C   UNL d   1       6.060  -0.079   0.000  0.00  0.00     0.101 A 
ATOM      7  C   UNL d   1       6.060   0.753   0.000  0.00  0.00     0.023 A 
ATOM      8  C   UNL d   1       5.344   1.163   0.000  0.00  0.00     0.003 A 
ATOM      9  C   UNL d   1       6.768   1.167   0.000  0.00  0.00     0.002 C 
ATOM     10  C   UNL d   1       4.623   0.753   0.000  0.00  0.00     0.013 A 
ATOM     11  C   UNL d   1       3.912   1.167   0.000  0.00  0.00     0.001 C 
BRANCH   6  12
ATOM     12  O   UNL d   1       6.768  -0.488   0.000  0.00  0.00    -0.305 OA
BRANCH  12  13
ATOM     13  C   UNL d   1       6.759  -1.308   0.000  0.00  0.00     0.123 C 
ATOM     14  C   UNL d   1       7.475  -1.718   0.000  0.00  0.00     0.029 C 
ENDBRANCH  12  13
ENDBRANCH   6  12
ENDBRANCH   1   4
BRANCH   1  15
ATOM     15  N   UNL d   1       3.204  -0.898   0.000  0.00  0.00    -0.314 NA
BRANCH  15  16
ATOM     16  C   UNL d   1       2.488  -1.308   0.000  0.00  0.00     0.176 C 
BRANCH  16  17
ATOM     17  C   UNL d   1       1.767  -0.898   0.000  0.00  0.00     0.035 A 
ATOM     18  C   UNL d   1       1.056  -1.308   0.000  0.00  0.00     0.029 A 
ATOM     19  C   UNL d   1       0.339  -0.898   0.000  0.00  0.00     0.119 A 
ATOM     20  O   UNL d   1      -0.447  -1.159   0.000  0.00  0.00    -0.300 OA
ATOM     21  C   UNL d   1       0.339  -0.066   0.000  0.00  0.00     0.119 A 
ATOM     22  C   UNL d   1      -0.931  -0.488   0.000  0.00  0.00     0.304 A 
ATOM     23  O   UNL d   1      -0.447   0.182   0.000  0.00  0.00    -0.300 OA
ATOM     24  C   UNL d   1       1.056   0.344   0.000  0.00  0.00     0.026 A 
ATOM     25  C   UNL d   1       1.767  -0.066   0.000  0.00  0.00     0.005 A 
ENDBRANCH  16  17
ENDBRANCH  15  16
ENDBRANCH   1  15
TORSDOF 6
