REMARK  5 active torsions:
REMARK  status: ('A' for Active; 'I' for Inactive)
REMARK    1  A    between atoms: C_7  and  N_2 
REMARK    2  A    between atoms: C_8  and  C_7 
REMARK    3  A    between atoms: C_13  and  C_8 
REMARK    4  A    between atoms: C_9  and  O_11 
REMARK    5  A    between atoms: O_11  and  C_13 
ROOT
ATOM      1  C   UNL d   1       3.814  -4.934   0.000  0.00  0.00     0.296 A 
ATOM      2  N   UNL d   1       3.320  -4.265   0.000  0.00  0.00    -0.268 N 
ATOM      3  S   UNL d   1       3.330  -5.603   0.000  0.00  0.00    -0.025 SA
ATOM      4  C   UNL d   1       2.535  -4.527   0.000  0.00  0.00     0.073 A 
ATOM      5  C   UNL d   1       2.544  -5.356   0.000  0.00  0.00     0.050 A 
ATOM      6  O   UNL d   1       4.638  -4.929   0.000  0.00  0.00    -0.259 OA
ATOM      7  C   UNL d   1       1.822  -4.120   0.000  0.00  0.00     0.018 A 
ATOM      8  C   UNL d   1       1.822  -5.772   0.000  0.00  0.00     0.008 A 
ATOM      9  C   UNL d   1       1.110  -4.536   0.000  0.00  0.00     0.002 A 
ATOM     10  C   UNL d   1       1.110  -5.356   0.000  0.00  0.00     0.001 A 
ENDROOT
BRANCH   2  11
ATOM     11  C   UNL d   1       3.567  -3.480   0.000  0.00  0.00     0.086 C 
BRANCH  11  12
ATOM     12  C   UNL d   1       4.376  -3.305   0.000  0.00  0.00     0.046 C 
BRANCH  12  13
ATOM     13  C   UNL d   1       4.628  -2.520   0.000  0.00  0.00     0.124 C 
BRANCH  13  14
ATOM     14  O   UNL d   1       5.428  -2.346   0.000  0.00  0.00    -0.305 OA
BRANCH  14  15
ATOM     15  C   UNL d   1       6.237  -2.171   0.000  0.00  0.00     0.100 A 
ATOM     16  C   UNL d   1       6.475  -1.386   0.000  0.00  0.00     0.025 A 
ATOM     17  C   UNL d   1       7.284  -1.212   0.000  0.00  0.00     0.002 A 
ATOM     18  C   UNL d   1       7.842  -1.817   0.000  0.00  0.00     0.000 A 
ATOM     19  C   UNL d   1       7.590  -2.607   0.000  0.00  0.00     0.002 A 
ATOM     20  C   UNL d   1       6.790  -2.782   0.000  0.00  0.00     0.025 A 
ENDBRANCH  14  15
ENDBRANCH  13  14
ENDBRANCH  12  13
ENDBRANCH  11  12
ENDBRANCH   2  11
TORSDOF 5
