REMARK  4 active torsions:
REMARK  status: ('A' for Active; 'I' for Inactive)
REMARK    1  A    between atoms: C_7  and  N_2 
REMARK    2  A    between atoms: C_15  and  C_7 
REMARK    3  A    between atoms: C_8  and  O_14 
REMARK    4  A    between atoms: O_14  and  C_15 
ROOT
ATOM      1  C   UNL d   1       5.696  -4.681   0.000  0.00  0.00     0.296 A 
ATOM      2  N   UNL d   1       5.206  -4.021   0.000  0.00  0.00    -0.266 N 
ATOM      3  S   UNL d   1       5.206  -5.361   0.000  0.00  0.00    -0.025 SA
ATOM      4  C   UNL d   1       4.419  -4.283   0.000  0.00  0.00     0.074 A 
ATOM      5  C   UNL d   1       4.419  -5.104   0.000  0.00  0.00     0.050 A 
ATOM      6  O   UNL d   1       6.517  -4.681   0.000  0.00  0.00    -0.259 OA
ATOM      7  C   UNL d   1       3.705  -3.865   0.000  0.00  0.00     0.018 A 
ATOM      8  C   UNL d   1       3.705  -5.526   0.000  0.00  0.00     0.008 A 
ATOM      9  C   UNL d   1       2.991  -4.283   0.000  0.00  0.00     0.002 A 
ATOM     10  C   UNL d   1       2.991  -5.104   0.000  0.00  0.00     0.001 A 
ENDROOT
BRANCH   2  11
ATOM     11  C   UNL d   1       5.453  -3.234   0.000  0.00  0.00     0.110 C 
BRANCH  11  12
ATOM     12  C   UNL d   1       6.255  -3.050   0.000  0.00  0.00     0.142 C 
BRANCH  12  13
ATOM     13  O   UNL d   1       6.512  -2.263   0.000  0.00  0.00    -0.304 OA
BRANCH  13  14
ATOM     14  C   UNL d   1       7.318  -2.088   0.000  0.00  0.00     0.100 A 
ATOM     15  C   UNL d   1       7.872  -2.700   0.000  0.00  0.00     0.025 A 
ATOM     16  C   UNL d   1       8.673  -2.525   0.000  0.00  0.00     0.002 A 
ATOM     17  C   UNL d   1       8.921  -1.738   0.000  0.00  0.00     0.000 A 
ATOM     18  C   UNL d   1       8.362  -1.127   0.000  0.00  0.00     0.002 A 
ATOM     19  C   UNL d   1       9.732  -1.564   0.000  0.00  0.00     0.000 C 
ATOM     20  C   UNL d   1       7.561  -1.311   0.000  0.00  0.00     0.025 A 
ENDBRANCH  13  14
ENDBRANCH  12  13
ENDBRANCH  11  12
ENDBRANCH   2  11
TORSDOF 4
