REMARK  5 active torsions:
REMARK  status: ('A' for Active; 'I' for Inactive)
REMARK    1  A    between atoms: C_9  and  N_2 
REMARK    2  A    between atoms: C_7  and  O_10 
REMARK    3  A    between atoms: C_11  and  C_9 
REMARK    4  A    between atoms: O_10  and  C_14 
REMARK    5  A    between atoms: C_14  and  C_11 
ROOT
ATOM      1  C   UNL d   1       5.033  -3.313   0.000  0.00  0.00     0.086 C 
ENDROOT
BRANCH   1   2
ATOM      2  N   UNL d   1       4.786  -4.098   0.000  0.00  0.00    -0.268 N 
ATOM      3  C   UNL d   1       5.280  -4.757   0.000  0.00  0.00     0.296 A 
ATOM      4  S   UNL d   1       4.796  -5.435   0.000  0.00  0.00    -0.025 SA
ATOM      5  O   UNL d   1       6.104  -4.757   0.000  0.00  0.00    -0.259 OA
ATOM      6  C   UNL d   1       4.011  -5.179   0.000  0.00  0.00     0.050 A 
ATOM      7  C   UNL d   1       3.289  -5.600   0.000  0.00  0.00     0.008 A 
ATOM      8  C   UNL d   1       4.001  -4.360   0.000  0.00  0.00     0.073 A 
ATOM      9  C   UNL d   1       2.577  -5.188   0.000  0.00  0.00     0.001 A 
ATOM     10  C   UNL d   1       2.577  -4.360   0.000  0.00  0.00     0.002 A 
ATOM     11  C   UNL d   1       3.289  -3.943   0.000  0.00  0.00     0.018 A 
ENDBRANCH   1   2
BRANCH   1  12
ATOM     12  C   UNL d   1       5.842  -3.129   0.000  0.00  0.00     0.046 C 
BRANCH  12  13
ATOM     13  C   UNL d   1       6.094  -2.345   0.000  0.00  0.00     0.124 C 
BRANCH  13  14
ATOM     14  O   UNL d   1       6.893  -2.170   0.000  0.00  0.00    -0.305 OA
BRANCH  14  15
ATOM     15  C   UNL d   1       7.702  -1.996   0.000  0.00  0.00     0.100 A 
ATOM     16  C   UNL d   1       8.255  -2.606   0.000  0.00  0.00     0.023 A 
ATOM     17  C   UNL d   1       7.998  -3.391   0.000  0.00  0.00     0.002 C 
ATOM     18  C   UNL d   1       9.054  -2.432   0.000  0.00  0.00     0.002 A 
ATOM     19  C   UNL d   1       9.306  -1.647   0.000  0.00  0.00     0.000 A 
ATOM     20  C   UNL d   1       8.749  -1.037   0.000  0.00  0.00     0.002 A 
ATOM     21  C   UNL d   1       7.940  -1.221   0.000  0.00  0.00     0.025 A 
ENDBRANCH  14  15
ENDBRANCH  13  14
ENDBRANCH  12  13
ENDBRANCH   1  12
TORSDOF 5
