REMARK  4 active torsions:
REMARK  status: ('A' for Active; 'I' for Inactive)
REMARK    1  A    between atoms: C_5  and  N_1 
REMARK    2  A    between atoms: C_7  and  C_5 
REMARK    3  A    between atoms: O_10  and  C_9 
REMARK    4  A    between atoms: C_15  and  O_10 
ROOT
ATOM      1  N   UNL d   1       5.716  -4.132   0.000  0.00  0.00    -0.268 N 
ATOM      2  C   UNL d   1       6.210  -4.801   0.000  0.00  0.00     0.296 A 
ATOM      3  S   UNL d   1       5.726  -5.469   0.000  0.00  0.00    -0.025 SA
ATOM      4  C   UNL d   1       4.931  -4.394   0.000  0.00  0.00     0.073 A 
ATOM      5  C   UNL d   1       4.941  -5.222   0.000  0.00  0.00     0.050 A 
ATOM      6  O   UNL d   1       7.034  -4.796   0.000  0.00  0.00    -0.259 OA
ATOM      7  C   UNL d   1       4.219  -3.987   0.000  0.00  0.00     0.018 A 
ATOM      8  C   UNL d   1       4.219  -5.639   0.000  0.00  0.00     0.008 A 
ATOM      9  C   UNL d   1       3.507  -4.403   0.000  0.00  0.00     0.002 A 
ATOM     10  C   UNL d   1       3.507  -5.222   0.000  0.00  0.00     0.001 A 
ENDROOT
BRANCH   1  11
ATOM     11  C   UNL d   1       5.963  -3.347   0.000  0.00  0.00     0.086 C 
BRANCH  11  12
ATOM     12  C   UNL d   1       6.772  -3.173   0.000  0.00  0.00     0.040 A 
ATOM     13  C   UNL d   1       7.010  -2.388   0.000  0.00  0.00     0.102 A 
ATOM     14  C   UNL d   1       7.809  -2.214   0.000  0.00  0.00     0.025 A 
ATOM     15  C   UNL d   1       8.376  -2.824   0.000  0.00  0.00     0.002 A 
ATOM     16  C   UNL d   1       8.124  -3.609   0.000  0.00  0.00     0.000 A 
ATOM     17  C   UNL d   1       7.315  -3.783   0.000  0.00  0.00     0.004 A 
BRANCH  13  18
ATOM     18  O   UNL d   1       6.428  -1.807   0.000  0.00  0.00    -0.305 OA
BRANCH  18  19
ATOM     19  C   UNL d   1       6.641  -1.008   0.000  0.00  0.00     0.123 C 
ATOM     20  C   UNL d   1       6.051  -0.426   0.000  0.00  0.00     0.029 C 
ENDBRANCH  18  19
ENDBRANCH  13  18
ENDBRANCH  11  12
ENDBRANCH   1  11
TORSDOF 4
