REMARK  4 active torsions:
REMARK  status: ('A' for Active; 'I' for Inactive)
REMARK    1  A    between atoms: C_2  and  S_1 
REMARK    2  A    between atoms: N_3  and  S_1 
REMARK    3  A    between atoms: C_5  and  C_11 
REMARK    4  A    between atoms: O_20  and  C_8 
ROOT
ATOM      1  S   UNL d   1       2.825  -0.092   0.000  0.00  0.00     0.273 S 
ATOM      2  O   UNL d   1       2.838   0.737   0.000  0.00  0.00    -0.200 OA
ATOM      3  O   UNL d   1       2.817  -0.921   0.000  0.00  0.00    -0.200 OA
ENDROOT
BRANCH   1   4
ATOM      4  C   UNL d   1       3.646  -0.092   0.000  0.00  0.00     0.128 A 
ATOM      5  C   UNL d   1       4.060  -0.804   0.000  0.00  0.00     0.044 A 
ATOM      6  C   UNL d   1       4.885  -0.804   0.000  0.00  0.00     0.141 A 
ATOM      7  F   UNL d   1       5.299  -1.520   0.000  0.00  0.00    -0.204 F 
ATOM      8  C   UNL d   1       5.291  -0.088   0.000  0.00  0.00     0.032 A 
ATOM      9  C   UNL d   1       4.877   0.628   0.000  0.00  0.00     0.027 A 
ATOM     10  C   UNL d   1       4.056   0.624   0.000  0.00  0.00     0.106 A 
BRANCH  10  11
ATOM     11  O   UNL d   1       3.633   1.339   0.000  0.00  0.00    -0.327 OA
ATOM     12  C   UNL d   1       4.044   2.059   0.000  0.00  0.00     0.181 C 
ENDBRANCH  10  11
ENDBRANCH   1   4
BRANCH   1  13
ATOM     13  N   UNL d   1       1.997  -0.092   0.000  0.00  0.00    -0.229 N 
ATOM     14  C   UNL d   1       1.574   0.624   0.000  0.00  0.00     0.092 A 
ATOM     15  C   UNL d   1       0.745   0.624   0.000  0.00  0.00     0.025 A 
ATOM     16  C   UNL d   1       0.339  -0.092   0.000  0.00  0.00     0.062 A 
ATOM     17  C   UNL d   1       0.745  -0.808   0.000  0.00  0.00     0.025 A 
ATOM     18  C   UNL d   1       1.574  -0.808   0.000  0.00  0.00     0.092 A 
BRANCH  16  19
ATOM     19  C   UNL d   1      -0.490  -0.092   0.000  0.00  0.00     0.297 C 
ATOM     20  O   UNL d   1      -0.904  -0.808   0.000  0.00  0.00    -0.264 OA
ATOM     21  N   UNL d   1      -0.912   0.624   0.000  0.00  0.00    -0.102 N 
ENDBRANCH  16  19
ENDBRANCH   1  13
TORSDOF 4
