REMARK  4 active torsions:
REMARK  status: ('A' for Active; 'I' for Inactive)
REMARK    1  A    between atoms: C_2  and  C_1 
REMARK    2  A    between atoms: C_15  and  C_8 
REMARK    3  A    between atoms: C_9  and  C_15 
REMARK    4  A    between atoms: C_18  and  C_10 
ROOT
ATOM      1  C   UNL d   1       3.567   1.650   0.000  0.00  0.00     0.094 A 
ATOM      2  N   UNL d   1       3.656   2.470   0.000  0.00  0.00    -0.238 NA
ATOM      3  C   UNL d   1       4.464   2.639   0.000  0.00  0.00     0.113 A 
ATOM      4  S   UNL d   1       4.876   1.930   0.000  0.00  0.00    -0.066 SA
ATOM      5  C   UNL d   1       4.324   1.316   0.000  0.00  0.00     0.056 A 
ENDROOT
BRANCH   3   6
ATOM      6  C   UNL d   1       4.798   3.396   0.000  0.00  0.00     0.051 C 
BRANCH   6   7
ATOM      7  C   UNL d   1       5.620   3.479   0.000  0.00  0.00     0.113 A 
ATOM      8  N   UNL d   1       6.173   2.868   0.000  0.00  0.00    -0.238 NA
ATOM      9  C   UNL d   1       6.926   3.204   0.000  0.00  0.00     0.088 A 
ATOM     10  C   UNL d   1       6.838   4.024   0.000  0.00  0.00     0.056 A 
ATOM     11  S   UNL d   1       6.033   4.194   0.000  0.00  0.00    -0.066 SA
BRANCH   9  12
ATOM     12  C   UNL d   1       7.641   2.787   0.000  0.00  0.00     0.018 A 
ATOM     13  C   UNL d   1       7.641   1.972   0.000  0.00  0.00     0.002 A 
ATOM     14  C   UNL d   1       8.355   1.559   0.000  0.00  0.00     0.007 A 
ATOM     15  C   UNL d   1       9.070   1.972   0.000  0.00  0.00     0.035 A 
ATOM     16  C   UNL d   1       9.070   2.787   0.000  0.00  0.00     0.007 A 
ATOM     17 BR   UNL d   1       9.784   1.559   0.000  0.00  0.00    -0.049 Br
ATOM     18  C   UNL d   1       8.355   3.204   0.000  0.00  0.00     0.002 A 
ENDBRANCH   9  12
ENDBRANCH   6   7
ENDBRANCH   3   6
BRANCH   1  19
ATOM     19  C   UNL d   1       2.853   1.238   0.000  0.00  0.00     0.082 A 
ATOM     20  C   UNL d   1       2.853   0.412   0.000  0.00  0.00     0.302 A 
ATOM     21  O   UNL d   1       2.139   0.000   0.000  0.00  0.00    -0.273 OA
ATOM     22  O   UNL d   1       3.567   0.000   0.000  0.00  0.00    -0.259 OA
ATOM     23  C   UNL d   1       1.424   0.412   0.000  0.00  0.00     0.103 A 
ATOM     24  C   UNL d   1       1.424   1.238   0.000  0.00  0.00     0.023 A 
ATOM     25  C   UNL d   1       0.710   0.000   0.000  0.00  0.00     0.025 A 
ATOM     26  C   UNL d   1       2.139   1.650   0.000  0.00  0.00     0.009 A 
ATOM     27  C   UNL d   1       0.710   1.650   0.000  0.00  0.00     0.002 A 
ATOM     28  C   UNL d   1       0.000   1.238   0.000  0.00  0.00     0.000 A 
ATOM     29  C   UNL d   1       0.000   0.412   0.000  0.00  0.00     0.002 A 
ENDBRANCH   1  19
TORSDOF 4
