REMARK  4 active torsions:
REMARK  status: ('A' for Active; 'I' for Inactive)
REMARK    1  A    between atoms: C_5  and  N_1 
REMARK    2  A    between atoms: C_7  and  C_5 
REMARK    3  A    between atoms: O_10  and  C_8 
REMARK    4  A    between atoms: C_14  and  O_10 
ROOT
ATOM      1  C   UNL d   1       5.963  -3.638   0.000  0.00  0.00     0.086 C 
ENDROOT
BRANCH   1   2
ATOM      2  N   UNL d   1       5.716  -4.423   0.000  0.00  0.00    -0.268 N 
ATOM      3  C   UNL d   1       6.210  -5.091   0.000  0.00  0.00     0.296 A 
ATOM      4  S   UNL d   1       5.726  -5.760   0.000  0.00  0.00    -0.025 SA
ATOM      5  O   UNL d   1       7.034  -5.087   0.000  0.00  0.00    -0.259 OA
ATOM      6  C   UNL d   1       4.941  -5.513   0.000  0.00  0.00     0.050 A 
ATOM      7  C   UNL d   1       4.931  -4.684   0.000  0.00  0.00     0.073 A 
ATOM      8  C   UNL d   1       4.219  -5.929   0.000  0.00  0.00     0.008 A 
ATOM      9  C   UNL d   1       4.219  -4.277   0.000  0.00  0.00     0.018 A 
ATOM     10  C   UNL d   1       3.507  -4.694   0.000  0.00  0.00     0.002 A 
ATOM     11  C   UNL d   1       3.507  -5.513   0.000  0.00  0.00     0.001 A 
ENDBRANCH   1   2
BRANCH   1  12
ATOM     12  C   UNL d   1       6.772  -3.464   0.000  0.00  0.00     0.040 A 
ATOM     13  C   UNL d   1       7.010  -2.679   0.000  0.00  0.00     0.101 A 
ATOM     14  C   UNL d   1       7.809  -2.505   0.000  0.00  0.00     0.025 A 
ATOM     15  C   UNL d   1       8.376  -3.115   0.000  0.00  0.00     0.002 A 
ATOM     16  C   UNL d   1       8.124  -3.900   0.000  0.00  0.00     0.000 A 
ATOM     17  C   UNL d   1       7.315  -4.074   0.000  0.00  0.00     0.004 A 
BRANCH  13  18
ATOM     18  O   UNL d   1       6.428  -2.098   0.000  0.00  0.00    -0.307 OA
BRANCH  18  19
ATOM     19  C   UNL d   1       6.641  -1.298   0.000  0.00  0.00     0.100 C 
ATOM     20  C   UNL d   1       6.051  -0.717   0.000  0.00  0.00     0.027 C 
ATOM     21  C   UNL d   1       7.431  -1.080   0.000  0.00  0.00     0.027 C 
ENDBRANCH  18  19
ENDBRANCH  13  18
ENDBRANCH   1  12
TORSDOF 4
