REMARK  4 active torsions:
REMARK  status: ('A' for Active; 'I' for Inactive)
REMARK    1  A    between atoms: C_7  and  N_2 
REMARK    2  A    between atoms: C_10  and  C_7 
REMARK    3  A    between atoms: O_8  and  C_10 
REMARK    4  A    between atoms: C_9  and  O_8 
ROOT
ATOM      1  C   UNL d   1       5.698  -4.683   0.000  0.00  0.00     0.296 A 
ATOM      2  N   UNL d   1       5.207  -4.022   0.000  0.00  0.00    -0.266 N 
ATOM      3  S   UNL d   1       5.207  -5.363   0.000  0.00  0.00    -0.025 SA
ATOM      4  C   UNL d   1       4.420  -4.284   0.000  0.00  0.00     0.074 A 
ATOM      5  C   UNL d   1       4.420  -5.105   0.000  0.00  0.00     0.050 A 
ATOM      6  O   UNL d   1       6.519  -4.683   0.000  0.00  0.00    -0.259 OA
ATOM      7  C   UNL d   1       3.706  -3.867   0.000  0.00  0.00     0.018 A 
ATOM      8  C   UNL d   1       3.706  -5.528   0.000  0.00  0.00     0.008 A 
ATOM      9  C   UNL d   1       2.992  -4.284   0.000  0.00  0.00     0.002 A 
ATOM     10  C   UNL d   1       2.992  -5.105   0.000  0.00  0.00     0.001 A 
ENDROOT
BRANCH   2  11
ATOM     11  C   UNL d   1       5.455  -3.235   0.000  0.00  0.00     0.110 C 
BRANCH  11  12
ATOM     12  C   UNL d   1       6.257  -3.051   0.000  0.00  0.00     0.142 C 
BRANCH  12  13
ATOM     13  O   UNL d   1       6.514  -2.264   0.000  0.00  0.00    -0.304 OA
BRANCH  13  14
ATOM     14  C   UNL d   1       7.320  -2.089   0.000  0.00  0.00     0.100 A 
ATOM     15  C   UNL d   1       7.874  -2.701   0.000  0.00  0.00     0.025 A 
ATOM     16  C   UNL d   1       8.676  -2.526   0.000  0.00  0.00     0.002 A 
ATOM     17  C   UNL d   1       8.923  -1.739   0.000  0.00  0.00     0.000 A 
ATOM     18  C   UNL d   1       8.365  -1.127   0.000  0.00  0.00     0.002 A 
ATOM     19  C   UNL d   1       7.563  -1.312   0.000  0.00  0.00     0.025 A 
ENDBRANCH  13  14
ENDBRANCH  12  13
ENDBRANCH  11  12
ENDBRANCH   2  11
TORSDOF 4
