REMARK  2 active torsions:
REMARK  status: ('A' for Active; 'I' for Inactive)
REMARK    1  A    between atoms: C_7  and  C_4 
REMARK    2  A    between atoms: O_13  and  C_11 
ROOT
ATOM      1  N   UNL d   1       1.248   1.160   0.000  0.00  0.00    -0.211 NA
ATOM      2  C   UNL d   1       0.503   1.535   0.000  0.00  0.00     0.140 A 
ATOM      3  C   UNL d   1      -0.183   1.081   0.000  0.00  0.00     0.051 A 
ATOM      4  C   UNL d   1       1.289   0.333   0.000  0.00  0.00     0.183 A 
ATOM      5  C   UNL d   1      -0.137   0.258   0.000  0.00  0.00     0.104 A 
ATOM      6  O   UNL d   1       0.599  -0.117   0.000  0.00  0.00    -0.289 OA
ATOM      7  S   UNL d   1       0.453   2.358   0.000  0.00  0.00    -0.057 SA
ATOM      8  C   UNL d   1      -0.923   1.447   0.000  0.00  0.00     0.004 A 
ATOM      9  C   UNL d   1      -0.819  -0.200   0.000  0.00  0.00     0.025 A 
ATOM     10  C   UNL d   1      -1.618   0.994   0.000  0.00  0.00     0.000 A 
ATOM     11  C   UNL d   1      -1.560   0.171   0.000  0.00  0.00     0.002 A 
ENDROOT
BRANCH   4  12
ATOM     12  C   UNL d   1       2.026  -0.029   0.000  0.00  0.00     0.043 A 
ATOM     13  C   UNL d   1       2.712   0.412   0.000  0.00  0.00     0.028 A 
ATOM     14  C   UNL d   1       3.444   0.046   0.000  0.00  0.00     0.094 A 
ATOM     15  C   UNL d   1       3.494  -0.778   0.000  0.00  0.00     0.024 A 
ATOM     16  C   UNL d   1       2.799  -1.227   0.000  0.00  0.00     0.002 A 
ATOM     17  C   UNL d   1       2.063  -0.861   0.000  0.00  0.00     0.004 A 
BRANCH  14  18
ATOM     18  O   UNL d   1       4.134   0.495   0.000  0.00  0.00    -0.328 OA
ATOM     19  C   UNL d   1       4.870   0.125   0.000  0.00  0.00     0.181 C 
ENDBRANCH  14  18
ENDBRANCH   4  12
TORSDOF 2
