REMARK  5 active torsions:
REMARK  status: ('A' for Active; 'I' for Inactive)
REMARK    1  A    between atoms: C_2  and  S_1 
REMARK    2  A    between atoms: N_3  and  S_1 
REMARK    3  A    between atoms: C_5  and  C_6 
REMARK       I    between atoms: N_10  and  C_5 
REMARK    4  A    between atoms: C_22  and  N_10 
REMARK    5  A    between atoms: C_21  and  C_22 
ROOT
ATOM      1  C   UNL d   1       1.304  -3.054   0.000  0.00  0.00     0.104 A 
ATOM      2  C   UNL d   1       1.304  -2.229   0.000  0.00  0.00     0.018 A 
ATOM      3  C   UNL d   1       0.588  -1.817   0.000  0.00  0.00     0.059 A 
ATOM      4  C   UNL d   1       0.588  -3.467   0.000  0.00  0.00     0.012 A 
ATOM      5  C   UNL d   1      -0.125  -2.229   0.000  0.00  0.00     0.005 A 
ATOM      6  C   UNL d   1      -0.125  -3.062   0.000  0.00  0.00     0.001 A 
ATOM      7  C   UNL d   1       0.579  -4.292   0.000  0.00  0.00     0.001 C 
ENDROOT
BRANCH   3   8
ATOM      8  C   UNL d   1       0.588  -0.988   0.000  0.00  0.00     0.279 C 
ATOM      9  N   UNL d   1       1.300  -0.575   0.000  0.00  0.00    -0.206 NA
ATOM     10  O   UNL d   1      -0.133  -0.575   0.000  0.00  0.00    -0.265 OA
BRANCH   9  11
ATOM     11  C   UNL d   1       1.292   0.258   0.000  0.00  0.00     0.102 C 
BRANCH  11  12
ATOM     12  C   UNL d   1       2.017   0.675   0.000  0.00  0.00     0.021 A 
ATOM     13  C   UNL d   1       2.017   1.508   0.000  0.00  0.00     0.028 A 
ATOM     14  C   UNL d   1       2.729   1.921   0.000  0.00  0.00     0.119 A 
ATOM     15  O   UNL d   1       2.904   2.725   0.000  0.00  0.00    -0.300 OA
ATOM     16  C   UNL d   1       3.442   1.508   0.000  0.00  0.00     0.119 A 
ATOM     17  C   UNL d   1       3.725   2.808   0.000  0.00  0.00     0.304 A 
ATOM     18  O   UNL d   1       4.062   2.062   0.000  0.00  0.00    -0.300 OA
ATOM     19  C   UNL d   1       3.442   0.675   0.000  0.00  0.00     0.026 A 
ATOM     20  C   UNL d   1       2.729   0.263   0.000  0.00  0.00     0.004 A 
ENDBRANCH  11  12
ENDBRANCH   9  11
ENDBRANCH   3   8
BRANCH   1  21
ATOM     21  S   UNL d   1       2.025  -3.479   0.000  0.00  0.00     0.271 S 
ATOM     22  O   UNL d   1       2.442  -2.754   0.000  0.00  0.00    -0.200 OA
ATOM     23  O   UNL d   1       1.604  -4.192   0.000  0.00  0.00    -0.200 OA
BRANCH  21  24
ATOM     24  N   UNL d   1       2.742  -3.900   0.000  0.00  0.00    -0.229 N 
ATOM     25  C   UNL d   1       3.467  -3.487   0.000  0.00  0.00     0.092 A 
ATOM     26  C   UNL d   1       4.179  -3.904   0.000  0.00  0.00     0.020 A 
ATOM     27  C   UNL d   1       4.175  -4.729   0.000  0.00  0.00     0.003 A 
ATOM     28  C   UNL d   1       3.454  -5.138   0.000  0.00  0.00     0.020 A 
ATOM     29  C   UNL d   1       2.742  -4.725   0.000  0.00  0.00     0.092 A 
ENDBRANCH  21  24
ENDBRANCH   1  21
TORSDOF 5
