REMARK  4 active torsions:
REMARK  status: ('A' for Active; 'I' for Inactive)
REMARK    1  A    between atoms: C_10  and  C_3 
REMARK       I    between atoms: N_11  and  C_10 
REMARK    2  A    between atoms: C_15  and  N_11 
REMARK    3  A    between atoms: C_17  and  C_15 
REMARK    4  A    between atoms: O_25  and  C_18 
ROOT
ATOM      1  C   UNL d   1      -3.618   0.473   0.000  0.00  0.00     0.071 A 
ATOM      2  C   UNL d   1      -3.618  -0.374   0.000  0.00  0.00     0.142 A 
ATOM      3  C   UNL d   1      -2.835   0.733   0.000  0.00  0.00     0.086 A 
ATOM      4  C   UNL d   1      -4.327   0.881   0.000  0.00  0.00     0.198 A 
ATOM      5  O   UNL d   1      -2.835  -0.635   0.000  0.00  0.00    -0.304 OA
ATOM      6  C   UNL d   1      -2.363   0.054   0.000  0.00  0.00     0.105 A 
ATOM      7  C   UNL d   1      -4.327  -0.773   0.000  0.00  0.00     0.218 A 
ATOM      8  C   UNL d   1      -5.045   0.473   0.000  0.00  0.00     0.042 A 
ATOM      9  C   UNL d   1      -5.045  -0.374   0.000  0.00  0.00     0.044 A 
ATOM     10  O   UNL d   1      -4.327   1.708   0.000  0.00  0.00    -0.286 OA
ATOM     11  O   UNL d   1      -4.327  -1.600   0.000  0.00  0.00    -0.284 OA
ATOM     12  C   UNL d   1      -1.536   0.054   0.000  0.00  0.00     0.027 C 
ATOM     13  C   UNL d   1      -5.745   0.881   0.000  0.00  0.00     0.003 A 
ATOM     14  C   UNL d   1      -5.745  -0.773   0.000  0.00  0.00     0.003 A 
ATOM     15  C   UNL d   1      -6.478   0.473   0.000  0.00  0.00     0.000 A 
ATOM     16  C   UNL d   1      -6.478  -0.374   0.000  0.00  0.00     0.000 A 
ENDROOT
BRANCH   3  17
ATOM     17  C   UNL d   1      -2.555   1.516   0.000  0.00  0.00     0.281 C 
ATOM     18  N   UNL d   1      -1.752   1.654   0.000  0.00  0.00    -0.206 NA
ATOM     19  O   UNL d   1      -3.096   2.127   0.000  0.00  0.00    -0.265 OA
BRANCH  18  20
ATOM     20  C   UNL d   1      -1.236   1.044   0.000  0.00  0.00     0.102 C 
BRANCH  20  21
ATOM     21  C   UNL d   1      -0.428   1.206   0.000  0.00  0.00     0.019 A 
ATOM     22  C   UNL d   1       0.118   0.591   0.000  0.00  0.00     0.004 A 
ATOM     23  C   UNL d   1       0.920   0.733   0.000  0.00  0.00     0.024 A 
ATOM     24  C   UNL d   1       1.201   1.492   0.000  0.00  0.00     0.094 A 
ATOM     25  C   UNL d   1       0.655   2.127   0.000  0.00  0.00     0.024 A 
ATOM     26  C   UNL d   1      -0.143   1.964   0.000  0.00  0.00     0.004 A 
BRANCH  24  27
ATOM     27  O   UNL d   1       2.028   1.610   0.000  0.00  0.00    -0.328 OA
ATOM     28  C   UNL d   1       2.515   0.970   0.000  0.00  0.00     0.181 C 
ENDBRANCH  24  27
ENDBRANCH  20  21
ENDBRANCH  18  20
ENDBRANCH   3  17
TORSDOF 4
