REMARK  4 active torsions:
REMARK  status: ('A' for Active; 'I' for Inactive)
REMARK    1  A    between atoms: C_2  and  S_1 
REMARK    2  A    between atoms: N_3  and  S_1 
REMARK    3  A    between atoms: C_4  and  C_6 
REMARK       I    between atoms: N_5  and  C_4 
REMARK    4  A    between atoms: C_11  and  N_8 
ROOT
ATOM      1  C   UNL d   1      -0.559  -1.044   0.000  0.00  0.00     0.104 A 
ATOM      2  C   UNL d   1       0.154   0.188   0.000  0.00  0.00     0.057 A 
ATOM      3  C   UNL d   1       0.154  -0.639   0.000  0.00  0.00     0.018 A 
ATOM      4  C   UNL d   1      -1.273  -0.639   0.000  0.00  0.00     0.012 A 
ATOM      5  C   UNL d   1      -0.559   0.601   0.000  0.00  0.00     0.005 A 
ATOM      6  C   UNL d   1      -1.273   0.188   0.000  0.00  0.00     0.001 A 
ATOM      7  C   UNL d   1      -1.987  -1.044   0.000  0.00  0.00     0.001 C 
ENDROOT
BRANCH   2   8
ATOM      8  C   UNL d   1       0.864   0.610   0.000  0.00  0.00     0.265 C 
ATOM      9  N   UNL d   1       1.578   0.196   0.000  0.00  0.00    -0.269 N 
ATOM     10  C   UNL d   1       2.284   0.610   0.000  0.00  0.00     0.102 A 
ATOM     11  C   UNL d   1       1.570  -0.630   0.000  0.00  0.00     0.102 A 
ATOM     12  C   UNL d   1       2.998   0.196   0.000  0.00  0.00     0.100 A 
ATOM     13  N   UNL d   1       2.998  -0.630   0.000  0.00  0.00    -0.301 N 
ATOM     14  C   UNL d   1       2.284  -1.040   0.000  0.00  0.00     0.100 A 
ATOM     15  O   UNL d   1       0.856   1.428   0.000  0.00  0.00    -0.267 OA
BRANCH  13  16
ATOM     16  C   UNL d   1       3.712  -1.044   0.000  0.00  0.00     0.064 A 
ATOM     17  C   UNL d   1       3.708  -1.871   0.000  0.00  0.00     0.020 A 
ATOM     18  C   UNL d   1       4.422  -2.284   0.000  0.00  0.00     0.031 A 
ATOM     19  C   UNL d   1       5.140  -1.879   0.000  0.00  0.00     0.140 A 
ATOM     20  C   UNL d   1       5.140  -1.044   0.000  0.00  0.00     0.031 A 
ATOM     21  F   UNL d   1       5.854  -2.292   0.000  0.00  0.00    -0.204 F 
ATOM     22  C   UNL d   1       4.426  -0.630   0.000  0.00  0.00     0.020 A 
ENDBRANCH  13  16
ENDBRANCH   2   8
BRANCH   1  23
ATOM     23  S   UNL d   1      -0.559  -1.871   0.000  0.00  0.00     0.271 S 
ATOM     24  O   UNL d   1       0.267  -1.871   0.000  0.00  0.00    -0.200 OA
ATOM     25  O   UNL d   1      -1.511  -1.871   0.000  0.00  0.00    -0.200 OA
BRANCH  23  26
ATOM     26  N   UNL d   1      -0.622  -2.693   0.000  0.00  0.00    -0.229 N 
ATOM     27  C   UNL d   1       0.063  -3.148   0.000  0.00  0.00     0.092 A 
ATOM     28  C   UNL d   1       0.004  -3.975   0.000  0.00  0.00     0.020 A 
ATOM     29  C   UNL d   1      -0.739  -4.326   0.000  0.00  0.00     0.003 A 
ATOM     30  C   UNL d   1      -1.415  -3.870   0.000  0.00  0.00     0.020 A 
ATOM     31  C   UNL d   1      -1.361  -3.056   0.000  0.00  0.00     0.092 A 
ENDBRANCH  23  26
ENDBRANCH   1  23
TORSDOF 4
