REMARK  6 active torsions:
REMARK  status: ('A' for Active; 'I' for Inactive)
REMARK    1  A    between atoms: C_2  and  S_1 
REMARK    2  A    between atoms: N_3  and  S_1 
REMARK    3  A    between atoms: C_5  and  C_6 
REMARK    4  A    between atoms: O_13  and  C_5 
REMARK    5  A    between atoms: C_22  and  O_13 
REMARK    6  A    between atoms: C_21  and  C_22 
ROOT
ATOM      1  C   UNL d   1       0.255  -1.382   0.000  0.00  0.00     0.104 A 
ATOM      2  C   UNL d   1       0.969  -0.969   0.000  0.00  0.00     0.018 A 
ATOM      3  C   UNL d   1       0.969  -0.142   0.000  0.00  0.00     0.064 A 
ATOM      4  C   UNL d   1      -0.451  -0.969   0.000  0.00  0.00     0.012 A 
ATOM      5  C   UNL d   1       0.255   0.271   0.000  0.00  0.00     0.005 A 
ATOM      6  C   UNL d   1      -0.451  -0.150   0.000  0.00  0.00     0.001 A 
ATOM      7  C   UNL d   1      -1.165  -1.382   0.000  0.00  0.00     0.001 C 
ENDROOT
BRANCH   3   8
ATOM      8  C   UNL d   1       1.683   0.271   0.000  0.00  0.00     0.300 C 
ATOM      9  O   UNL d   1       1.679   1.098   0.000  0.00  0.00    -0.259 OA
BRANCH   8  10
ATOM     10  O   UNL d   1       2.397  -0.138   0.000  0.00  0.00    -0.271 OA
BRANCH  10  11
ATOM     11  C   UNL d   1       3.106   0.276   0.000  0.00  0.00     0.126 C 
BRANCH  11  12
ATOM     12  C   UNL d   1       3.825  -0.130   0.000  0.00  0.00     0.027 A 
ATOM     13  C   UNL d   1       4.526   0.284   0.000  0.00  0.00     0.028 A 
ATOM     14  C   UNL d   1       5.248  -0.117   0.000  0.00  0.00     0.119 A 
ATOM     15  O   UNL d   1       6.037   0.146   0.000  0.00  0.00    -0.300 OA
ATOM     16  C   UNL d   1       5.253  -0.944   0.000  0.00  0.00     0.119 A 
ATOM     17  C   UNL d   1       6.526  -0.526   0.000  0.00  0.00     0.304 A 
ATOM     18  O   UNL d   1       6.042  -1.194   0.000  0.00  0.00    -0.300 OA
ATOM     19  C   UNL d   1       4.539  -1.369   0.000  0.00  0.00     0.026 A 
ATOM     20  C   UNL d   1       3.825  -0.956   0.000  0.00  0.00     0.004 A 
ENDBRANCH  11  12
ENDBRANCH  10  11
ENDBRANCH   8  10
ENDBRANCH   3   8
BRANCH   1  21
ATOM     21  S   UNL d   1       0.255  -2.205   0.000  0.00  0.00     0.271 S 
ATOM     22  O   UNL d   1       1.090  -2.205   0.000  0.00  0.00    -0.200 OA
ATOM     23  O   UNL d   1      -0.689  -2.205   0.000  0.00  0.00    -0.200 OA
BRANCH  21  24
ATOM     24  N   UNL d   1       0.200  -3.023   0.000  0.00  0.00    -0.229 N 
ATOM     25  C   UNL d   1       0.881  -3.486   0.000  0.00  0.00     0.092 A 
ATOM     26  C   UNL d   1       0.818  -4.309   0.000  0.00  0.00     0.020 A 
ATOM     27  C   UNL d   1       0.079  -4.664   0.000  0.00  0.00     0.003 A 
ATOM     28  C   UNL d   1      -0.597  -4.200   0.000  0.00  0.00     0.020 A 
ATOM     29  C   UNL d   1      -0.539  -3.386   0.000  0.00  0.00     0.092 A 
ENDBRANCH  21  24
ENDBRANCH   1  21
TORSDOF 6
