REMARK  5 active torsions:
REMARK  status: ('A' for Active; 'I' for Inactive)
REMARK    1  A    between atoms: C_3  and  C_1 
REMARK    2  A    between atoms: C_7  and  C_3 
REMARK    3  A    between atoms: N_9  and  C_3 
REMARK    4  A    between atoms: C_17  and  C_8 
REMARK    5  A    between atoms: C_10  and  N_9 
ROOT
ATOM      1  C   UNL d   1       1.838   0.889   0.000  0.00  0.00     0.111 C 
ENDROOT
BRANCH   1   2
ATOM      2  C   UNL d   1       1.120   1.315   0.000  0.00  0.00     0.160 A 
ATOM      3  C   UNL d   1       1.120   2.139   0.000  0.00  0.00     0.258 A 
ATOM      4  C   UNL d   1       0.394   2.544   0.000  0.00  0.00     0.238 A 
ATOM      5  O   UNL d   1       1.838   2.581   0.000  0.00  0.00    -0.281 OA
ATOM      6  O   UNL d   1       0.394   3.380   0.000  0.00  0.00    -0.283 OA
ATOM      7  C   UNL d   1      -0.325   2.139   0.000  0.00  0.00     0.073 A 
ATOM      8  C   UNL d   1      -0.325   1.315   0.000  0.00  0.00     0.146 A 
ATOM      9  O   UNL d   1       0.394   0.909   0.000  0.00  0.00    -0.299 OA
BRANCH   8  10
ATOM     10  C   UNL d   1      -1.067   0.925   0.000  0.00  0.00     0.259 C 
ATOM     11  O   UNL d   1      -1.765   1.359   0.000  0.00  0.00    -0.281 OA
ENDBRANCH   8  10
ENDBRANCH   1   2
BRANCH   1  12
ATOM     12  C   UNL d   1       2.561   1.315   0.000  0.00  0.00     0.047 A 
ATOM     13  C   UNL d   1       3.279   0.909   0.000  0.00  0.00     0.142 A 
ATOM     14  F   UNL d   1       3.316   0.402   0.000  0.00  0.00    -0.204 F 
ATOM     15  C   UNL d   1       3.997   1.315   0.000  0.00  0.00     0.030 A 
ATOM     16  C   UNL d   1       3.997   2.139   0.000  0.00  0.00     0.002 A 
ATOM     17  C   UNL d   1       3.279   2.544   0.000  0.00  0.00     0.000 A 
ATOM     18  C   UNL d   1       2.561   2.139   0.000  0.00  0.00     0.004 A 
ENDBRANCH   1  12
BRANCH   1  19
ATOM     19  N   UNL d   1       1.838   0.069   0.000  0.00  0.00    -0.225 NA
BRANCH  19  20
ATOM     20  C   UNL d   1       2.561  -0.357   0.000  0.00  0.00     0.163 A 
ATOM     21  N   UNL d   1       2.561  -1.173   0.000  0.00  0.00    -0.225 NA
ATOM     22  C   UNL d   1       3.263  -1.587   0.000  0.00  0.00     0.101 A 
ATOM     23  C   UNL d   1       3.997  -1.173   0.000  0.00  0.00     0.021 A 
ATOM     24  C   UNL d   1       3.997  -0.357   0.000  0.00  0.00     0.005 A 
ATOM     25  C   UNL d   1       3.279   0.069   0.000  0.00  0.00     0.039 A 
ENDBRANCH  19  20
ENDBRANCH   1  19
TORSDOF 5
