REMARK  3 active torsions:
REMARK  status: ('A' for Active; 'I' for Inactive)
REMARK    1  A    between atoms: C_4  and  S_1 
REMARK    2  A    between atoms: N_6  and  S_1 
REMARK    3  A    between atoms: C_2  and  C_8 
ROOT
ATOM      1  C   UNL d   1      -0.490  -1.211   0.000  0.00  0.00     0.104 A 
ATOM      2  C   UNL d   1       0.319  -1.370   0.000  0.00  0.00     0.015 A 
ATOM      3  C   UNL d   1       0.859  -0.742   0.000  0.00  0.00     0.025 A 
ATOM      4  C   UNL d   1      -0.762  -0.432   0.000  0.00  0.00     0.012 A 
ATOM      5  C   UNL d   1       0.591   0.038   0.000  0.00  0.00     0.002 A 
ATOM      6  C   UNL d   1      -0.222   0.189   0.000  0.00  0.00     0.001 A 
ATOM      7  C   UNL d   1      -1.571  -0.277   0.000  0.00  0.00     0.001 C 
ENDROOT
BRANCH   3   8
ATOM      8  C   UNL d   1       1.672  -0.897   0.000  0.00  0.00     0.111 A 
ATOM      9  N   UNL d   1       2.267  -0.327   0.000  0.00  0.00    -0.239 NA
ATOM     10  C   UNL d   1       2.996  -0.721   0.000  0.00  0.00     0.088 A 
ATOM     11  C   UNL d   1       3.771  -0.453   0.000  0.00  0.00     0.020 A 
ATOM     12  C   UNL d   1       2.841  -1.533   0.000  0.00  0.00     0.049 A 
ATOM     13  C   UNL d   1       4.391  -0.985   0.000  0.00  0.00     0.002 A 
ATOM     14  C   UNL d   1       4.240  -1.802   0.000  0.00  0.00     0.001 A 
ATOM     15  C   UNL d   1       3.461  -2.074   0.000  0.00  0.00     0.008 A 
ATOM     16  S   UNL d   1       2.015  -1.638   0.000  0.00  0.00    -0.066 SA
ENDBRANCH   3   8
BRANCH   1  17
ATOM     17  S   UNL d   1      -1.039  -1.835   0.000  0.00  0.00     0.271 S 
ATOM     18  O   UNL d   1      -0.411  -2.380   0.000  0.00  0.00    -0.200 OA
ATOM     19  O   UNL d   1      -1.756  -1.211   0.000  0.00  0.00    -0.200 OA
BRANCH  17  20
ATOM     20  N   UNL d   1      -1.617  -2.417   0.000  0.00  0.00    -0.229 N 
ATOM     21  C   UNL d   1      -2.434  -2.288   0.000  0.00  0.00     0.092 A 
ATOM     22  C   UNL d   1      -2.811  -3.021   0.000  0.00  0.00     0.021 A 
ATOM     23  C   UNL d   1      -2.225  -3.612   0.000  0.00  0.00     0.021 A 
ATOM     24  C   UNL d   1      -1.492  -3.235   0.000  0.00  0.00     0.092 A 
ENDBRANCH  17  20
ENDBRANCH   1  17
TORSDOF 3
