REMARK  5 active torsions:
REMARK  status: ('A' for Active; 'I' for Inactive)
REMARK    1  A    between atoms: C_2  and  S_1 
REMARK    2  A    between atoms: N_3  and  S_1 
REMARK    3  A    between atoms: C_5  and  C_6 
REMARK       I    between atoms: N_10  and  C_5 
REMARK    4  A    between atoms: C_25  and  N_10 
REMARK    5  A    between atoms: C_24  and  C_25 
ROOT
ATOM      1  C   UNL d   1       0.692  -1.993   0.000  0.00  0.00     0.104 A 
ATOM      2  C   UNL d   1       0.963  -1.218   0.000  0.00  0.00     0.018 A 
ATOM      3  C   UNL d   1       0.425  -0.592   0.000  0.00  0.00     0.059 A 
ATOM      4  C   UNL d   1      -0.121  -2.152   0.000  0.00  0.00     0.012 A 
ATOM      5  C   UNL d   1      -0.388  -0.742   0.000  0.00  0.00     0.005 A 
ATOM      6  C   UNL d   1      -0.659  -1.526   0.000  0.00  0.00     0.001 A 
ATOM      7  C   UNL d   1      -0.396  -2.944   0.000  0.00  0.00     0.001 C 
ENDROOT
BRANCH   3   8
ATOM      8  C   UNL d   1       0.692   0.183   0.000  0.00  0.00     0.279 C 
ATOM      9  N   UNL d   1       1.505   0.338   0.000  0.00  0.00    -0.206 NA
ATOM     10  O   UNL d   1       0.154   0.801   0.000  0.00  0.00    -0.265 OA
BRANCH   9  11
ATOM     11  C   UNL d   1       2.043  -0.279   0.000  0.00  0.00     0.102 C 
BRANCH  11  12
ATOM     12  C   UNL d   1       2.865  -0.117   0.000  0.00  0.00     0.021 A 
ATOM     13  C   UNL d   1       3.419  -0.730   0.000  0.00  0.00     0.028 A 
ATOM     14  C   UNL d   1       4.220  -0.555   0.000  0.00  0.00     0.119 A 
ATOM     15  O   UNL d   1       4.896  -1.038   0.000  0.00  0.00    -0.300 OA
ATOM     16  C   UNL d   1       4.479   0.234   0.000  0.00  0.00     0.119 A 
ATOM     17  C   UNL d   1       5.554  -0.555   0.000  0.00  0.00     0.304 A 
ATOM     18  O   UNL d   1       5.296   0.234   0.000  0.00  0.00    -0.300 OA
ATOM     19  C   UNL d   1       3.920   0.838   0.000  0.00  0.00     0.026 A 
ATOM     20  C   UNL d   1       3.119   0.663   0.000  0.00  0.00     0.004 A 
ENDBRANCH  11  12
ENDBRANCH   9  11
ENDBRANCH   3   8
BRANCH   1  21
ATOM     21  S   UNL d   1       1.238  -2.615   0.000  0.00  0.00     0.272 S 
ATOM     22  O   UNL d   1       1.856  -2.068   0.000  0.00  0.00    -0.200 OA
ATOM     23  O   UNL d   1       0.617  -3.157   0.000  0.00  0.00    -0.200 OA
BRANCH  21  24
ATOM     24  N   UNL d   1       1.781  -3.232   0.000  0.00  0.00    -0.225 N 
ATOM     25  C   UNL d   1       1.518  -4.007   0.000  0.00  0.00     0.118 A 
ATOM     26  C   UNL d   1       2.056  -4.633   0.000  0.00  0.00     0.142 A 
ATOM     27  O   UNL d   1       2.869  -4.470   0.000  0.00  0.00    -0.300 OA
ATOM     28  C   UNL d   1       3.132  -3.695   0.000  0.00  0.00     0.142 A 
ATOM     29  C   UNL d   1       2.594  -3.069   0.000  0.00  0.00     0.118 A 
ENDBRANCH  21  24
ENDBRANCH   1  21
TORSDOF 5
