REMARK  5 active torsions:
REMARK  status: ('A' for Active; 'I' for Inactive)
REMARK    1  A    between atoms: C_3  and  C_1 
REMARK    2  A    between atoms: N_8  and  C_3 
REMARK    3  A    between atoms: C_9  and  C_3 
REMARK    4  A    between atoms: C_17  and  C_7 
REMARK    5  A    between atoms: C_10  and  N_8 
ROOT
ATOM      1  C   UNL d   1       1.394   0.898   0.000  0.00  0.00     0.109 C 
ENDROOT
BRANCH   1   2
ATOM      2  C   UNL d   1       0.689   1.329   0.000  0.00  0.00     0.160 A 
ATOM      3  C   UNL d   1       0.689   2.161   0.000  0.00  0.00     0.258 A 
ATOM      4  C   UNL d   1      -0.045   2.571   0.000  0.00  0.00     0.238 A 
ATOM      5  O   UNL d   1       1.394   2.571   0.000  0.00  0.00    -0.281 OA
ATOM      6  O   UNL d   1      -0.045   3.404   0.000  0.00  0.00    -0.283 OA
ATOM      7  C   UNL d   1      -0.750   2.161   0.000  0.00  0.00     0.073 A 
ATOM      8  C   UNL d   1      -0.750   1.329   0.000  0.00  0.00     0.146 A 
ATOM      9  O   UNL d   1      -0.045   0.918   0.000  0.00  0.00    -0.299 OA
BRANCH   8  10
ATOM     10  C   UNL d   1      -1.476   0.918   0.000  0.00  0.00     0.259 C 
ATOM     11  O   UNL d   1      -2.210   1.329   0.000  0.00  0.00    -0.281 OA
ENDBRANCH   8  10
ENDBRANCH   1   2
BRANCH   1  12
ATOM     12  N   UNL d   1       1.394   0.070   0.000  0.00  0.00    -0.225 NA
BRANCH  12  13
ATOM     13  C   UNL d   1       2.095  -0.344   0.000  0.00  0.00     0.163 A 
ATOM     14  N   UNL d   1       2.095  -1.169   0.000  0.00  0.00    -0.225 NA
ATOM     15  C   UNL d   1       2.809  -1.579   0.000  0.00  0.00     0.101 A 
ATOM     16  C   UNL d   1       3.522  -1.169   0.000  0.00  0.00     0.021 A 
ATOM     17  C   UNL d   1       3.543  -0.344   0.000  0.00  0.00     0.005 A 
ATOM     18  C   UNL d   1       2.834   0.070   0.000  0.00  0.00     0.039 A 
ENDBRANCH  12  13
ENDBRANCH   1  12
BRANCH   1  19
ATOM     19  C   UNL d   1       2.120   1.312   0.000  0.00  0.00     0.022 A 
ATOM     20  C   UNL d   1       2.834   0.898   0.000  0.00  0.00     0.031 A 
ATOM     21  C   UNL d   1       3.543   1.312   0.000  0.00  0.00     0.140 A 
ATOM     22  F   UNL d   1       4.269   0.898   0.000  0.00  0.00    -0.204 F 
ATOM     23  C   UNL d   1       3.543   2.136   0.000  0.00  0.00     0.030 A 
ATOM     24  C   UNL d   1       2.834   2.555   0.000  0.00  0.00     0.002 A 
ATOM     25  C   UNL d   1       2.120   2.136   0.000  0.00  0.00     0.002 A 
ENDBRANCH   1  19
TORSDOF 5
