REMARK  4 active torsions:
REMARK  status: ('A' for Active; 'I' for Inactive)
REMARK    1  A    between atoms: C_2  and  S_1 
REMARK    2  A    between atoms: N_3  and  S_1 
REMARK    3  A    between atoms: C_4  and  C_6 
REMARK       I    between atoms: N_7  and  C_4 
REMARK    4  A    between atoms: C_14  and  N_7 
ROOT
ATOM      1  C   UNL d   1       0.230  -1.294   0.000  0.00  0.00     0.104 A 
ATOM      2  C   UNL d   1       0.946  -0.883   0.000  0.00  0.00     0.018 A 
ATOM      3  C   UNL d   1       0.946  -0.054   0.000  0.00  0.00     0.059 A 
ATOM      4  C   UNL d   1      -0.477  -0.883   0.000  0.00  0.00     0.012 A 
ATOM      5  C   UNL d   1       0.230   0.360   0.000  0.00  0.00     0.005 A 
ATOM      6  C   UNL d   1      -0.477  -0.054   0.000  0.00  0.00     0.001 A 
ATOM      7  C   UNL d   1      -1.193  -1.294   0.000  0.00  0.00     0.001 C 
ENDROOT
BRANCH   3   8
ATOM      8  C   UNL d   1       1.662   0.364   0.000  0.00  0.00     0.279 C 
ATOM      9  N   UNL d   1       2.378  -0.042   0.000  0.00  0.00    -0.208 NA
ATOM     10  O   UNL d   1       1.658   1.189   0.000  0.00  0.00    -0.265 OA
BRANCH   9  11
ATOM     11  C   UNL d   1       3.089   0.372   0.000  0.00  0.00     0.087 A 
ATOM     12  C   UNL d   1       3.081   1.189   0.000  0.00  0.00     0.045 A 
ATOM     13  C   UNL d   1       3.784   1.607   0.000  0.00  0.00     0.121 A 
ATOM     14  O   UNL d   1       3.956   2.420   0.000  0.00  0.00    -0.299 OA
ATOM     15  C   UNL d   1       4.508   1.201   0.000  0.00  0.00     0.119 A 
ATOM     16  C   UNL d   1       4.776   2.520   0.000  0.00  0.00     0.304 A 
ATOM     17  O   UNL d   1       5.124   1.758   0.000  0.00  0.00    -0.300 OA
ATOM     18  C   UNL d   1       4.513   0.372   0.000  0.00  0.00     0.028 A 
ATOM     19  C   UNL d   1       3.805  -0.042   0.000  0.00  0.00     0.021 A 
ENDBRANCH   9  11
ENDBRANCH   3   8
BRANCH   1  20
ATOM     20  S   UNL d   1       0.230  -2.114   0.000  0.00  0.00     0.271 S 
ATOM     21  O   UNL d   1       1.067  -2.114   0.000  0.00  0.00    -0.200 OA
ATOM     22  O   UNL d   1      -0.716  -2.114   0.000  0.00  0.00    -0.200 OA
BRANCH  20  23
ATOM     23  N   UNL d   1       0.176  -2.943   0.000  0.00  0.00    -0.229 N 
ATOM     24  C   UNL d   1      -0.565  -3.307   0.000  0.00  0.00     0.092 A 
ATOM     25  C   UNL d   1      -0.624  -4.123   0.000  0.00  0.00     0.020 A 
ATOM     26  C   UNL d   1       0.054  -4.588   0.000  0.00  0.00     0.003 A 
ATOM     27  C   UNL d   1       0.795  -4.224   0.000  0.00  0.00     0.020 A 
ATOM     28  C   UNL d   1       0.858  -3.403   0.000  0.00  0.00     0.092 A 
ENDBRANCH  20  23
ENDBRANCH   1  20
TORSDOF 4
