REMARK  6 active torsions:
REMARK  status: ('A' for Active; 'I' for Inactive)
REMARK    1  A    between atoms: C_3  and  C_1 
REMARK    2  A    between atoms: N_9  and  C_3 
REMARK    3  A    between atoms: C_13  and  C_3 
REMARK    4  A    between atoms: N_4  and  C_10 
REMARK    5  A    between atoms: C_19  and  C_8 
REMARK    6  A    between atoms: C_15  and  N_9 
ROOT
ATOM      1  C   UNL d   1       1.163   0.800   0.000  0.00  0.00     0.125 C 
ENDROOT
BRANCH   1   2
ATOM      2  C   UNL d   1       0.442   1.230   0.000  0.00  0.00     0.161 A 
ATOM      3  C   UNL d   1       0.442   2.046   0.000  0.00  0.00     0.258 A 
ATOM      4  C   UNL d   1      -0.280   2.460   0.000  0.00  0.00     0.238 A 
ATOM      5  O   UNL d   1       1.163   2.480   0.000  0.00  0.00    -0.281 OA
ATOM      6  O   UNL d   1      -0.280   3.276   0.000  0.00  0.00    -0.283 OA
ATOM      7  C   UNL d   1      -0.994   2.046   0.000  0.00  0.00     0.073 A 
ATOM      8  C   UNL d   1      -0.994   1.230   0.000  0.00  0.00     0.146 A 
ATOM      9  O   UNL d   1      -0.280   0.816   0.000  0.00  0.00    -0.299 OA
BRANCH   8  10
ATOM     10  C   UNL d   1      -1.715   0.816   0.000  0.00  0.00     0.259 C 
ATOM     11  O   UNL d   1      -2.433   1.214   0.000  0.00  0.00    -0.281 OA
ENDBRANCH   8  10
ENDBRANCH   1   2
BRANCH   1  12
ATOM     12  N   UNL d   1       1.163  -0.016   0.000  0.00  0.00    -0.242 NA
BRANCH  12  13
ATOM     13  C   UNL d   1       1.861  -0.430   0.000  0.00  0.00     0.083 A 
ATOM     14  C   UNL d   1       2.582  -0.016   0.000  0.00  0.00     0.043 A 
ATOM     15  C   UNL d   1       3.300  -0.430   0.000  0.00  0.00     0.128 A 
ATOM     16  C   UNL d   1       3.300  -1.246   0.000  0.00  0.00     0.024 A 
ATOM     17  C   UNL d   1       2.582  -1.660   0.000  0.00  0.00     0.003 A 
ATOM     18  C   UNL d   1       1.861  -1.246   0.000  0.00  0.00     0.019 A 
BRANCH  15  19
ATOM     19  N   UNL d   1       4.021  -0.028   0.000  0.00  0.00    -0.114 N 
ATOM     20  O   UNL d   1       4.766  -0.406   0.000  0.00  0.00    -0.532 OA
ATOM     21  O   UNL d   1       4.096   0.788   0.000  0.00  0.00    -0.532 OA
ENDBRANCH  15  19
ENDBRANCH  12  13
ENDBRANCH   1  12
BRANCH   1  22
ATOM     22  C   UNL d   1       1.881   1.214   0.000  0.00  0.00     0.101 A 
ATOM     23  N   UNL d   1       2.602   0.800   0.000  0.00  0.00    -0.242 NA
ATOM     24  C   UNL d   1       3.316   1.214   0.000  0.00  0.00     0.099 A 
ATOM     25  C   UNL d   1       3.316   2.030   0.000  0.00  0.00     0.021 A 
ATOM     26  C   UNL d   1       2.602   2.425   0.000  0.00  0.00     0.003 A 
ATOM     27  C   UNL d   1       1.896   2.030   0.000  0.00  0.00     0.021 A 
ENDBRANCH   1  22
TORSDOF 6
