REMARK  4 active torsions:
REMARK  status: ('A' for Active; 'I' for Inactive)
REMARK    1  A    between atoms: C_2  and  S_1 
REMARK    2  A    between atoms: N_3  and  S_1 
REMARK    3  A    between atoms: C_4  and  C_6 
REMARK       I    between atoms: N_7  and  C_4 
REMARK    4  A    between atoms: C_14  and  N_7 
ROOT
ATOM      1  C   UNL d   1      -0.046  -0.939   0.000  0.00  0.00     0.104 A 
ATOM      2  C   UNL d   1       0.668  -0.530   0.000  0.00  0.00     0.018 A 
ATOM      3  C   UNL d   1       0.668   0.296   0.000  0.00  0.00     0.059 A 
ATOM      4  C   UNL d   1      -0.760  -0.530   0.000  0.00  0.00     0.012 A 
ATOM      5  C   UNL d   1      -0.046   0.710   0.000  0.00  0.00     0.005 A 
ATOM      6  C   UNL d   1      -0.760   0.296   0.000  0.00  0.00     0.001 A 
ATOM      7  C   UNL d   1      -1.474  -0.939   0.000  0.00  0.00     0.001 C 
ENDROOT
BRANCH   3   8
ATOM      8  C   UNL d   1       1.378   0.714   0.000  0.00  0.00     0.279 C 
ATOM      9  N   UNL d   1       2.092   0.309   0.000  0.00  0.00    -0.208 NA
ATOM     10  O   UNL d   1       1.369   1.536   0.000  0.00  0.00    -0.265 OA
BRANCH   9  11
ATOM     11  C   UNL d   1       2.806   0.722   0.000  0.00  0.00     0.087 A 
ATOM     12  C   UNL d   1       2.797   1.541   0.000  0.00  0.00     0.045 A 
ATOM     13  C   UNL d   1       3.511   1.962   0.000  0.00  0.00     0.121 A 
ATOM     14  O   UNL d   1       3.683   2.776   0.000  0.00  0.00    -0.299 OA
ATOM     15  C   UNL d   1       4.225   1.549   0.000  0.00  0.00     0.119 A 
ATOM     16  C   UNL d   1       4.501   2.856   0.000  0.00  0.00     0.304 A 
ATOM     17  O   UNL d   1       4.848   2.100   0.000  0.00  0.00    -0.300 OA
ATOM     18  C   UNL d   1       4.234   0.714   0.000  0.00  0.00     0.028 A 
ATOM     19  C   UNL d   1       3.520   0.301   0.000  0.00  0.00     0.021 A 
ENDBRANCH   9  11
ENDBRANCH   3   8
BRANCH   1  20
ATOM     20  S   UNL d   1      -0.046  -1.758   0.000  0.00  0.00     0.271 S 
ATOM     21  O   UNL d   1       0.781  -1.758   0.000  0.00  0.00    -0.200 OA
ATOM     22  O   UNL d   1      -0.998  -1.758   0.000  0.00  0.00    -0.200 OA
BRANCH  20  23
ATOM     23  N   UNL d   1      -0.108  -2.584   0.000  0.00  0.00    -0.229 N 
ATOM     24  C   UNL d   1       0.530  -3.111   0.000  0.00  0.00     0.092 A 
ATOM     25  C   UNL d   1       0.217  -3.875   0.000  0.00  0.00     0.021 A 
ATOM     26  C   UNL d   1      -0.610  -3.812   0.000  0.00  0.00     0.021 A 
ATOM     27  C   UNL d   1      -0.802  -3.019   0.000  0.00  0.00     0.092 A 
ENDBRANCH  20  23
ENDBRANCH   1  20
TORSDOF 4
