REMARK  4 active torsions:
REMARK  status: ('A' for Active; 'I' for Inactive)
REMARK    1  A    between atoms: C_2  and  S_1 
REMARK    2  A    between atoms: N_3  and  S_1 
REMARK    3  A    between atoms: C_4  and  C_9 
REMARK       I    between atoms: N_5  and  C_4 
REMARK    4  A    between atoms: C_6  and  N_5 
ROOT
ATOM      1  C   UNL d   1      -0.463   0.082   0.000  0.00  0.00     0.104 A 
ATOM      2  C   UNL d   1       0.357   0.045   0.000  0.00  0.00     0.018 A 
ATOM      3  C   UNL d   1       0.799   0.738   0.000  0.00  0.00     0.059 A 
ATOM      4  C   UNL d   1      -0.844   0.820   0.000  0.00  0.00     0.012 A 
ATOM      5  C   UNL d   1       0.422   1.472   0.000  0.00  0.00     0.005 A 
ATOM      6  C   UNL d   1      -0.402   1.509   0.000  0.00  0.00     0.001 A 
ATOM      7  C   UNL d   1      -1.673   0.861   0.000  0.00  0.00     0.001 C 
ENDROOT
BRANCH   1   8
ATOM      8  S   UNL d   1      -0.906  -0.607   0.000  0.00  0.00     0.271 S 
ATOM      9  O   UNL d   1      -0.209  -1.045   0.000  0.00  0.00    -0.200 OA
ATOM     10  O   UNL d   1      -1.595  -0.164   0.000  0.00  0.00    -0.200 OA
BRANCH   8  11
ATOM     11  N   UNL d   1      -1.341  -1.304   0.000  0.00  0.00    -0.229 N 
ATOM     12  C   UNL d   1      -2.185  -1.168   0.000  0.00  0.00     0.092 A 
ATOM     13  C   UNL d   1      -2.763  -1.591   0.000  0.00  0.00     0.020 A 
ATOM     14  C   UNL d   1      -2.763  -2.423   0.000  0.00  0.00     0.002 A 
ATOM     15  C   UNL d   1      -2.062  -2.939   0.000  0.00  0.00     0.002 A 
ATOM     16  C   UNL d   1      -1.213  -2.697   0.000  0.00  0.00     0.020 A 
ATOM     17  C   UNL d   1      -0.922  -1.910   0.000  0.00  0.00     0.092 A 
ENDBRANCH   8  11
ENDBRANCH   1   8
BRANCH   3  18
ATOM     18  C   UNL d   1       1.615   0.701   0.000  0.00  0.00     0.281 C 
ATOM     19  N   UNL d   1       2.058   1.390   0.000  0.00  0.00    -0.187 NA
ATOM     20  O   UNL d   1       1.808   0.045   0.000  0.00  0.00    -0.265 OA
BRANCH  19  21
ATOM     21  C   UNL d   1       2.890   1.353   0.000  0.00  0.00     0.194 A 
ATOM     22  N   UNL d   1       3.337   0.660   0.000  0.00  0.00    -0.106 NA
ATOM     23  O   UNL d   1       4.144   0.881   0.000  0.00  0.00    -0.207 OA
ATOM     24  C   UNL d   1       4.181   1.705   0.000  0.00  0.00     0.153 A 
ATOM     25  C   UNL d   1       3.407   2.001   0.000  0.00  0.00     0.070 A 
ENDBRANCH  19  21
ENDBRANCH   3  18
TORSDOF 4
