REMARK  3 active torsions:
REMARK  status: ('A' for Active; 'I' for Inactive)
REMARK    1  A    between atoms: C_7  and  C_4 
REMARK    2  A    between atoms: C_8  and  C_7 
REMARK    3  A    between atoms: C_11  and  C_8 
ROOT
ATOM      1  N   UNL d   1       2.087   2.882   0.000  0.00  0.00    -0.269 N 
ATOM      2  C   UNL d   1       2.801   2.470   0.000  0.00  0.00     0.282 A 
ATOM      3  N   UNL d   1       2.087   1.238   0.000  0.00  0.00    -0.239 NA
ATOM      4  C   UNL d   1       2.801   1.650   0.000  0.00  0.00     0.138 A 
ATOM      5  C   UNL d   1       1.373   2.470   0.000  0.00  0.00     0.085 A 
ATOM      6  C   UNL d   1       1.373   1.650   0.000  0.00  0.00     0.098 A 
ATOM      7  O   UNL d   1       3.516   2.882   0.000  0.00  0.00    -0.265 OA
ATOM      8  C   UNL d   1       2.662   3.683   0.000  0.00  0.00     0.102 C 
ATOM      9  C   UNL d   1       0.658   2.882   0.000  0.00  0.00     0.019 A 
ATOM     10  C   UNL d   1       0.658   1.238   0.000  0.00  0.00     0.021 A 
ATOM     11  C   UNL d   1       0.000   2.470   0.000  0.00  0.00     0.002 A 
ATOM     12  C   UNL d   1       0.000   1.650   0.000  0.00  0.00     0.002 A 
ENDROOT
BRANCH   4  13
ATOM     13  C   UNL d   1       3.516   1.238   0.000  0.00  0.00     0.024 C 
BRANCH  13  14
ATOM     14  C   UNL d   1       4.230   1.650   0.000  0.00  0.00     0.002 C 
BRANCH  14  15
ATOM     15  C   UNL d   1       4.945   1.238   0.000  0.00  0.00     0.000 A 
ATOM     16  C   UNL d   1       4.945   0.412   0.000  0.00  0.00     0.000 A 
ATOM     17  C   UNL d   1       5.659   0.000   0.000  0.00  0.00     0.000 A 
ATOM     18  C   UNL d   1       6.374   0.412   0.000  0.00  0.00     0.000 A 
ATOM     19  C   UNL d   1       6.374   1.238   0.000  0.00  0.00     0.000 A 
ATOM     20  C   UNL d   1       5.659   1.650   0.000  0.00  0.00     0.000 A 
ENDBRANCH  14  15
ENDBRANCH  13  14
ENDBRANCH   4  13
TORSDOF 3
