REMARK  3 active torsions:
REMARK  status: ('A' for Active; 'I' for Inactive)
REMARK    1  A    between atoms: C_5  and  S_1 
REMARK    2  A    between atoms: N_7  and  S_1 
REMARK       I    between atoms: N_2  and  C_3 
REMARK    3  A    between atoms: C_3  and  C_9 
ROOT
ATOM      1  C   UNL d   1       1.081  -0.727   0.000  0.00  0.00     0.104 A 
ATOM      2  C   UNL d   1       1.795   0.509   0.000  0.00  0.00     0.059 A 
ATOM      3  C   UNL d   1       1.795  -0.317   0.000  0.00  0.00     0.018 A 
ATOM      4  C   UNL d   1       0.367  -0.317   0.000  0.00  0.00     0.012 A 
ATOM      5  C   UNL d   1       1.081   0.923   0.000  0.00  0.00     0.005 A 
ATOM      6  C   UNL d   1       0.367   0.509   0.000  0.00  0.00     0.001 A 
ATOM      7  C   UNL d   1      -0.346  -0.727   0.000  0.00  0.00     0.001 C 
ENDROOT
BRANCH   1   8
ATOM      8  S   UNL d   1       1.081  -1.545   0.000  0.00  0.00     0.272 S 
ATOM      9  O   UNL d   1       0.130  -1.545   0.000  0.00  0.00    -0.200 OA
ATOM     10  O   UNL d   1       1.908  -1.545   0.000  0.00  0.00    -0.200 OA
BRANCH   8  11
ATOM     11  N   UNL d   1       1.019  -2.372   0.000  0.00  0.00    -0.225 N 
ATOM     12  C   UNL d   1       0.280  -2.722   0.000  0.00  0.00     0.118 A 
ATOM     13  C   UNL d   1       0.217  -3.545   0.000  0.00  0.00     0.142 A 
ATOM     14  O   UNL d   1       0.902  -4.013   0.000  0.00  0.00    -0.300 OA
ATOM     15  C   UNL d   1       1.645  -3.649   0.000  0.00  0.00     0.142 A 
ATOM     16  C   UNL d   1       1.708  -2.822   0.000  0.00  0.00     0.118 A 
ENDBRANCH   8  11
ENDBRANCH   1   8
BRANCH   2  17
ATOM     17  C   UNL d   1       2.505   0.927   0.000  0.00  0.00     0.280 C 
ATOM     18  N   UNL d   1       3.219   0.522   0.000  0.00  0.00    -0.195 N 
ATOM     19  N   UNL d   1       3.962   0.852   0.000  0.00  0.00    -0.163 NA
ATOM     20  C   UNL d   1       3.299  -0.301   0.000  0.00  0.00     0.088 A 
ATOM     21  C   UNL d   1       4.522   0.246   0.000  0.00  0.00     0.103 A 
ATOM     22  C   UNL d   1       5.340   0.334   0.000  0.00  0.00     0.022 C 
ATOM     23  C   UNL d   1       4.109  -0.468   0.000  0.00  0.00     0.040 A 
ATOM     24  C   UNL d   1       2.685  -0.856   0.000  0.00  0.00     0.021 C 
ATOM     25  O   UNL d   1       2.497   1.749   0.000  0.00  0.00    -0.265 OA
ENDBRANCH   2  17
TORSDOF 3
