REMARK  6 active torsions:
REMARK  status: ('A' for Active; 'I' for Inactive)
REMARK    1  A    between atoms: C_6  and  S_1 
REMARK    2  A    between atoms: N_7  and  S_1 
REMARK    3  A    between atoms: N_2  and  C_3 
REMARK       I    between atoms: C_4  and  N_2 
REMARK    4  A    between atoms: C_3  and  N_11 
REMARK    5  A    between atoms: C_5  and  C_4 
REMARK    6  A    between atoms: N_11  and  C_19 
ROOT
ATOM      1  C   UNL d   1      -1.631  -0.357   0.000  0.00  0.00     0.104 A 
ATOM      2  C   UNL d   1      -1.238   0.372   0.000  0.00  0.00     0.014 A 
ATOM      3  C   UNL d   1      -1.212  -1.063   0.000  0.00  0.00     0.014 A 
ATOM      4  C   UNL d   1       0.021  -0.333   0.000  0.00  0.00     0.084 A 
ATOM      5  C   UNL d   1      -0.381  -1.057   0.000  0.00  0.00     0.020 A 
ATOM      6  C   UNL d   1      -0.402   0.381   0.000  0.00  0.00     0.020 A 
ENDROOT
BRANCH   4   7
ATOM      7  N   UNL d   1       0.860  -0.333   0.000  0.00  0.00    -0.217 NA
BRANCH   7   8
ATOM      8  C   UNL d   1       1.241  -1.000   0.000  0.00  0.00     0.224 C 
ATOM      9  S   UNL d   1       0.857  -1.679   0.000  0.00  0.00    -0.037 SA
BRANCH   8  10
ATOM     10  N   UNL d   1       2.628  -0.884   0.000  0.00  0.00    -0.178 NA
ATOM     11  C   UNL d   1       2.956  -0.170   0.000  0.00  0.00     0.287 C 
ATOM     12  O   UNL d   1       3.751  -0.107   0.000  0.00  0.00    -0.265 OA
BRANCH  11  13
ATOM     13  C   UNL d   1       2.503   0.464   0.000  0.00  0.00     0.087 A 
ATOM     14  S   UNL d   1       1.718   0.497   0.000  0.00  0.00    -0.082 SA
ATOM     15  C   UNL d   1       1.512   1.250   0.000  0.00  0.00     0.036 A 
ATOM     16  C   UNL d   1       2.143   1.679   0.000  0.00  0.00     0.008 A 
ATOM     17  C   UNL d   1       2.763   1.212   0.000  0.00  0.00     0.012 A 
ENDBRANCH  11  13
ENDBRANCH   8  10
ENDBRANCH   7   8
ENDBRANCH   4   7
BRANCH   1  18
ATOM     18  S   UNL d   1      -2.462  -0.378   0.000  0.00  0.00     0.271 S 
ATOM     19  O   UNL d   1      -2.501   0.444   0.000  0.00  0.00    -0.200 OA
ATOM     20  O   UNL d   1      -2.438  -1.218   0.000  0.00  0.00    -0.200 OA
BRANCH  18  21
ATOM     21  N   UNL d   1      -3.319  -0.429   0.000  0.00  0.00    -0.226 N 
ATOM     22  C   UNL d   1      -3.712  -1.170   0.000  0.00  0.00     0.111 C 
ATOM     23  C   UNL d   1      -3.751   0.286   0.000  0.00  0.00     0.111 C 
ENDBRANCH  18  21
ENDBRANCH   1  18
TORSDOF 6
