REMARK  5 active torsions:
REMARK  status: ('A' for Active; 'I' for Inactive)
REMARK    1  A    between atoms: C_8  and  N_1 
REMARK    2  A    between atoms: S_4  and  C_10 
REMARK    3  A    between atoms: C_5  and  C_8 
REMARK       I    between atoms: N_9  and  C_5 
REMARK    4  A    between atoms: C_20  and  C_8 
REMARK    5  A    between atoms: C_19  and  N_9 
ROOT
ATOM      1  C   UNL d   1       4.842  -4.378   0.000  0.00  0.00     0.140 C 
ENDROOT
BRANCH   1   2
ATOM      2  C   UNL d   1       5.262  -5.088   0.000  0.00  0.00     0.344 C 
ATOM      3  N   UNL d   1       6.082  -5.073   0.000  0.00  0.00    -0.363 NA
ATOM      4  O   UNL d   1       4.856  -5.807   0.000  0.00  0.00    -0.249 OA
BRANCH   3   5
ATOM      5  C   UNL d   1       6.898  -5.088   0.000  0.00  0.00     0.135 A 
ATOM      6  C   UNL d   1       7.318  -5.798   0.000  0.00  0.00     0.033 A 
ATOM      7  C   UNL d   1       8.143  -5.798   0.000  0.00  0.00     0.016 A 
ATOM      8  C   UNL d   1       8.549  -5.073   0.000  0.00  0.00     0.107 A 
ATOM      9  C   UNL d   1       8.129  -4.364   0.000  0.00  0.00     0.016 A 
ATOM     10  C   UNL d   1       7.303  -4.373   0.000  0.00  0.00     0.033 A 
BRANCH   8  11
ATOM     11  S   UNL d   1       9.374  -5.073   0.000  0.00  0.00     0.302 S 
ATOM     12  O   UNL d   1       9.374  -5.865   0.000  0.00  0.00    -0.197 OA
ATOM     13  O   UNL d   1       9.370  -4.248   0.000  0.00  0.00    -0.197 OA
ATOM     14  N   UNL d   1      10.195  -5.069   0.000  0.00  0.00    -0.043 N 
ENDBRANCH   8  11
ENDBRANCH   3   5
ENDBRANCH   1   2
BRANCH   1  15
ATOM     15  N   UNL d   1       4.016  -4.388   0.000  0.00  0.00    -0.236 N 
ATOM     16  C   UNL d   1       3.534  -5.059   0.000  0.00  0.00     0.267 A 
ATOM     17  C   UNL d   1       2.742  -4.808   0.000  0.00  0.00     0.061 A 
ATOM     18  O   UNL d   1       3.794  -5.841   0.000  0.00  0.00    -0.267 OA
ATOM     19  C   UNL d   1       2.018  -5.218   0.000  0.00  0.00     0.005 A 
ATOM     20  C   UNL d   1       2.737  -3.973   0.000  0.00  0.00     0.061 A 
ATOM     21  C   UNL d   1       1.308  -4.808   0.000  0.00  0.00     0.000 A 
ATOM     22  C   UNL d   1       1.308  -3.982   0.000  0.00  0.00     0.000 A 
ATOM     23  C   UNL d   1       2.018  -3.567   0.000  0.00  0.00     0.005 A 
ATOM     24  C   UNL d   1       3.524  -3.712   0.000  0.00  0.00     0.267 A 
ATOM     25  O   UNL d   1       3.770  -2.930   0.000  0.00  0.00    -0.267 OA
ENDBRANCH   1  15
BRANCH   1  26
ATOM     26  C   UNL d   1       5.247  -3.669   0.000  0.00  0.00     0.022 C 
ATOM     27  C   UNL d   1       6.068  -3.654   0.000  0.00  0.00     0.002 C 
ATOM     28  C   UNL d   1       4.827  -2.959   0.000  0.00  0.00     0.002 C 
ENDBRANCH   1  26
TORSDOF 5
