REMARK  3 active torsions:
REMARK  status: ('A' for Active; 'I' for Inactive)
REMARK    1  A    between atoms: C_6  and  C_1 
REMARK    2  A    between atoms: N_7  and  C_2 
REMARK    3  A    between atoms: C_9  and  C_5 
REMARK       I    between atoms: N_8  and  C_6 
ROOT
ATOM      1  C   UNL d   1       3.225  -1.445   0.000  0.00  0.00     0.106 A 
ATOM      2  C   UNL d   1       4.644  -1.378   0.000  0.00  0.00     0.180 A 
ATOM      3  N   UNL d   1       4.365  -0.619   0.000  0.00  0.00    -0.222 NA
ATOM      4  S   UNL d   1       3.999  -1.873   0.000  0.00  0.00    -0.044 SA
ATOM      5  C   UNL d   1       3.560  -0.640   0.000  0.00  0.00     0.094 A 
ENDROOT
BRANCH   1   6
ATOM      6  C   UNL d   1       2.508  -1.857   0.000  0.00  0.00     0.272 C 
ATOM      7  N   UNL d   1       1.785  -1.440   0.000  0.00  0.00    -0.272 N 
ATOM      8  C   UNL d   1       1.367  -0.717   0.000  0.00  0.00     0.083 A 
ATOM      9  C   UNL d   1       1.378  -2.157   0.000  0.00  0.00     0.083 A 
ATOM     10  C   UNL d   1       0.542  -0.717   0.000  0.00  0.00     0.019 A 
ATOM     11  C   UNL d   1       0.124  -1.440   0.000  0.00  0.00     0.003 A 
ATOM     12  C   UNL d   1       0.542  -2.157   0.000  0.00  0.00     0.019 A 
ATOM     13  O   UNL d   1       2.497  -2.683   0.000  0.00  0.00    -0.266 OA
ENDBRANCH   1   6
BRANCH   5  14
ATOM     14  C   UNL d   1       2.977  -0.067   0.000  0.00  0.00     0.018 A 
ATOM     15  C   UNL d   1       2.203  -0.268   0.000  0.00  0.00     0.002 A 
ATOM     16  C   UNL d   1       1.641   0.289   0.000  0.00  0.00     0.000 A 
ATOM     17  C   UNL d   1       1.842   1.063   0.000  0.00  0.00     0.000 A 
ATOM     18  C   UNL d   1       2.616   1.285   0.000  0.00  0.00     0.000 A 
ATOM     19  C   UNL d   1       3.178   0.712   0.000  0.00  0.00     0.002 A 
ENDBRANCH   5  14
BRANCH   2  20
ATOM     20  N   UNL d   1       5.438  -1.378   0.000  0.00  0.00    -0.280 N 
ATOM     21  C   UNL d   1       5.856  -2.095   0.000  0.00  0.00     0.109 A 
ATOM     22  C   UNL d   1       6.677  -2.095   0.000  0.00  0.00     0.142 A 
ATOM     23  O   UNL d   1       7.090  -1.378   0.000  0.00  0.00    -0.300 OA
ATOM     24  C   UNL d   1       6.677  -0.655   0.000  0.00  0.00     0.142 A 
ATOM     25  C   UNL d   1       5.851  -0.655   0.000  0.00  0.00     0.109 A 
ENDBRANCH   2  20
TORSDOF 3
