REMARK  5 active torsions:
REMARK  status: ('A' for Active; 'I' for Inactive)
REMARK    1  A    between atoms: N_2  and  S_1 
REMARK    2  A    between atoms: C_6  and  S_1 
REMARK    3  A    between atoms: C_5  and  N_2 
REMARK    4  A    between atoms: C_3  and  C_8 
REMARK    5  A    between atoms: C_7  and  C_4 
ROOT
ATOM      1  S   UNL d   1      -1.692  -1.203   0.000  0.00  0.00     0.285 S 
ATOM      2  O   UNL d   1      -2.505  -1.203   0.000  0.00  0.00    -0.198 OA
ATOM      3  O   UNL d   1      -0.867  -1.203   0.000  0.00  0.00    -0.198 OA
ENDROOT
BRANCH   1   4
ATOM      4  N   UNL d   1      -1.692  -2.022   0.000  0.00  0.00    -0.158 NA
BRANCH   4   5
ATOM      5  C   UNL d   1      -0.985  -2.447   0.000  0.00  0.00     0.100 A 
ATOM      6  C   UNL d   1      -0.985  -3.236   0.000  0.00  0.00     0.083 A 
ATOM      7  C   UNL d   1      -0.277  -3.661   0.000  0.00  0.00     0.008 A 
ATOM      8  C   UNL d   1       0.466  -3.236   0.000  0.00  0.00     0.000 A 
ATOM      9  C   UNL d   1       0.466  -2.447   0.000  0.00  0.00     0.002 A 
ATOM     10  C   UNL d   1      -0.277  -2.022   0.000  0.00  0.00     0.020 A 
BRANCH   6  11
ATOM     11  C   UNL d   1      -1.692  -3.661   0.000  0.00  0.00     0.212 C 
ATOM     12  O   UNL d   1      -1.692  -4.480   0.000  0.00  0.00    -0.644 OA
ATOM     13  O   UNL d   1      -2.399  -3.236   0.000  0.00  0.00    -0.644 OA
ENDBRANCH   6  11
ENDBRANCH   4   5
ENDBRANCH   1   4
BRANCH   1  14
ATOM     14  C   UNL d   1      -1.692  -0.377   0.000  0.00  0.00     0.105 A 
ATOM     15  C   UNL d   1      -0.985   0.047   0.000  0.00  0.00     0.017 A 
ATOM     16  C   UNL d   1      -0.985   0.843   0.000  0.00  0.00     0.072 A 
ATOM     17  C   UNL d   1      -1.692   1.267   0.000  0.00  0.00     0.004 A 
ATOM     18  C   UNL d   1      -2.399   0.843   0.000  0.00  0.00     0.001 A 
ATOM     19  C   UNL d   1      -2.399   0.047   0.000  0.00  0.00     0.013 A 
BRANCH  16  20
ATOM     20  C   UNL d   1      -0.242   1.267   0.000  0.00  0.00     0.419 C 
ATOM     21  F   UNL d   1       0.495   1.657   0.000  0.00  0.00    -0.166 F 
ATOM     22  F   UNL d   1       0.183   0.525   0.000  0.00  0.00    -0.166 F 
ATOM     23  F   UNL d   1      -0.666   1.975   0.000  0.00  0.00    -0.166 F 
ENDBRANCH  16  20
ENDBRANCH   1  14
TORSDOF 5
