REMARK  5 active torsions:
REMARK  status: ('A' for Active; 'I' for Inactive)
REMARK    1  A    between atoms: N_2  and  C_3 
REMARK       I    between atoms: C_4  and  N_5 
REMARK    2  A    between atoms: C_8  and  C_4 
REMARK    3  A    between atoms: N_5  and  C_9 
REMARK    4  A    between atoms: C_14  and  N_5 
REMARK    5  A    between atoms: C_20  and  C_14 
ROOT
ATOM      1  C   UNL d   1       3.076  -1.714   0.000  0.00  0.00     0.265 C 
ATOM      2  N   UNL d   1       3.076  -2.540   0.000  0.00  0.00    -0.273 N 
ATOM      3  O   UNL d   1       3.796  -1.304   0.000  0.00  0.00    -0.267 OA
ENDROOT
BRANCH   2   4
ATOM      4  C   UNL d   1       2.366  -2.961   0.000  0.00  0.00     0.079 A 
ATOM      5  C   UNL d   1       1.613  -2.627   0.000  0.00  0.00     0.116 A 
ATOM      6  S   UNL d   1       1.062  -3.245   0.000  0.00  0.00     0.213 S 
ATOM      7  O   UNL d   1       0.382  -3.709   0.000  0.00  0.00    -0.217 OA
ATOM      8  O   UNL d   1       0.594  -2.569   0.000  0.00  0.00    -0.217 OA
ATOM      9  C   UNL d   1       1.483  -3.960   0.000  0.00  0.00     0.100 A 
ATOM     10  C   UNL d   1       2.289  -3.786   0.000  0.00  0.00     0.030 A 
ENDBRANCH   2   4
BRANCH   2  11
ATOM     11  C   UNL d   1       3.801  -2.956   0.000  0.00  0.00     0.083 C 
BRANCH  11  12
ATOM     12  C   UNL d   1       4.511  -2.540   0.000  0.00  0.00     0.018 A 
ATOM     13  C   UNL d   1       5.230  -2.956   0.000  0.00  0.00     0.013 A 
ATOM     14  C   UNL d   1       5.945  -2.540   0.000  0.00  0.00     0.058 A 
ATOM     15 CL   UNL d   1       6.655  -2.946   0.000  0.00  0.00    -0.082 Cl
ATOM     16  C   UNL d   1       5.940  -1.714   0.000  0.00  0.00     0.011 A 
ATOM     17  C   UNL d   1       5.221  -1.304   0.000  0.00  0.00     0.001 A 
ATOM     18  C   UNL d   1       4.511  -1.714   0.000  0.00  0.00     0.002 A 
ENDBRANCH  11  12
ENDBRANCH   2  11
BRANCH   1  19
ATOM     19  C   UNL d   1       2.366  -1.309   0.000  0.00  0.00     0.058 A 
ATOM     20  C   UNL d   1       2.366  -0.483   0.000  0.00  0.00     0.029 A 
ATOM     21  C   UNL d   1       1.657  -0.077   0.000  0.00  0.00     0.137 A 
ATOM     22  C   UNL d   1       0.947  -0.493   0.000  0.00  0.00     0.080 A 
ATOM     23  C   UNL d   1       0.947  -1.318   0.000  0.00  0.00     0.013 A 
ATOM     24 CL   UNL d   1       0.232  -0.077   0.000  0.00  0.00    -0.081 Cl
ATOM     25  C   UNL d   1       1.657  -1.724   0.000  0.00  0.00     0.006 A 
BRANCH  21  26
ATOM     26  N   UNL d   1       1.657   0.749   0.000  0.00  0.00    -0.113 N 
ATOM     27  O   UNL d   1       2.366   1.154   0.000  0.00  0.00    -0.532 OA
ATOM     28  O   UNL d   1       0.942   1.154   0.000  0.00  0.00    -0.532 OA
ENDBRANCH  21  26
ENDBRANCH   1  19
TORSDOF 5
