REMARK  4 active torsions:
REMARK  status: ('A' for Active; 'I' for Inactive)
REMARK    1  A    between atoms: C_7  and  C_2 
REMARK    2  A    between atoms: O_8  and  C_7 
REMARK    3  A    between atoms: C_9  and  O_8 
REMARK    4  A    between atoms: O_11  and  C_10 
ROOT
ATOM      1  C   UNL d   1      -0.462   1.431   0.000  0.00  0.00     0.161 C 
ENDROOT
BRANCH   1   2
ATOM      2  C   UNL d   1      -1.256   1.219   0.000  0.00  0.00     0.188 A 
ATOM      3  N   UNL d   1      -1.756   1.893   0.000  0.00  0.00    -0.224 NA
ATOM      4  C   UNL d   1      -2.542   1.622   0.000  0.00  0.00     0.101 A 
ATOM      5  C   UNL d   1      -2.533   0.794   0.000  0.00  0.00     0.101 A 
ATOM      6  C   UNL d   1      -3.253   2.034   0.000  0.00  0.00     0.021 A 
ATOM      7  C   UNL d   1      -3.253   0.383   0.000  0.00  0.00     0.021 A 
ATOM      8  N   UNL d   1      -1.743   0.545   0.000  0.00  0.00    -0.224 NA
ATOM      9  C   UNL d   1      -3.964   0.794   0.000  0.00  0.00     0.002 A 
ATOM     10  C   UNL d   1      -3.964   1.622   0.000  0.00  0.00     0.002 A 
ENDBRANCH   1   2
BRANCH   1  11
ATOM     11  O   UNL d   1       0.117   0.857   0.000  0.00  0.00    -0.302 OA
BRANCH  11  12
ATOM     12  C   UNL d   1       0.915   1.069   0.000  0.00  0.00     0.102 A 
ATOM     13  C   UNL d   1       1.489   0.482   0.000  0.00  0.00     0.049 A 
ATOM     14  C   UNL d   1       2.288   0.695   0.000  0.00  0.00     0.096 A 
ATOM     15  C   UNL d   1       2.500   1.493   0.000  0.00  0.00     0.024 A 
ATOM     16  C   UNL d   1       1.914   2.080   0.000  0.00  0.00     0.004 A 
ATOM     17  C   UNL d   1       1.123   1.855   0.000  0.00  0.00     0.025 A 
BRANCH  14  18
ATOM     18  O   UNL d   1       2.870   0.112   0.000  0.00  0.00    -0.328 OA
ATOM     19  C   UNL d   1       2.650  -0.686   0.000  0.00  0.00     0.181 C 
ENDBRANCH  14  18
ENDBRANCH  11  12
ENDBRANCH   1  11
TORSDOF 4
