REMARK  3 active torsions:
REMARK  status: ('A' for Active; 'I' for Inactive)
REMARK       I    between atoms: N_2  and  C_1 
REMARK    1  A    between atoms: C_3  and  C_1 
REMARK    2  A    between atoms: C_6  and  N_2 
REMARK    3  A    between atoms: C_5  and  C_4 
ROOT
ATOM      1  C   UNL d   1       5.647  -4.171   0.000  0.00  0.00     0.279 C 
ATOM      2  N   UNL d   1       5.647  -5.000   0.000  0.00  0.00    -0.207 NA
ATOM      3  O   UNL d   1       6.361  -3.761   0.000  0.00  0.00    -0.265 OA
ENDROOT
BRANCH   1   4
ATOM      4  C   UNL d   1       4.930  -3.761   0.000  0.00  0.00     0.064 A 
ATOM      5  C   UNL d   1       4.930  -2.940   0.000  0.00  0.00     0.069 A 
ATOM      6  C   UNL d   1       4.217  -2.517   0.000  0.00  0.00     0.006 A 
ATOM      7  C   UNL d   1       3.508  -2.940   0.000  0.00  0.00     0.000 A 
ATOM      8  C   UNL d   1       3.508  -3.761   0.000  0.00  0.00     0.000 A 
ATOM      9  C   UNL d   1       4.217  -4.171   0.000  0.00  0.00     0.005 A 
BRANCH   5  10
ATOM     10  C   UNL d   1       5.647  -2.525   0.000  0.00  0.00     0.211 C 
ATOM     11  O   UNL d   1       5.647  -1.696   0.000  0.00  0.00    -0.644 OA
ATOM     12  O   UNL d   1       6.361  -2.940   0.000  0.00  0.00    -0.644 OA
ENDBRANCH   5  10
ENDBRANCH   1   4
BRANCH   2  13
ATOM     13  C   UNL d   1       6.361  -5.415   0.000  0.00  0.00     0.095 A 
ATOM     14  C   UNL d   1       6.361  -6.236   0.000  0.00  0.00     0.075 A 
ATOM     15 CL   UNL d   1       5.647  -6.647   0.000  0.00  0.00    -0.081 Cl
ATOM     16  C   UNL d   1       7.070  -6.647   0.000  0.00  0.00     0.013 A 
ATOM     17  C   UNL d   1       7.791  -6.236   0.000  0.00  0.00     0.001 A 
ATOM     18  C   UNL d   1       7.787  -5.411   0.000  0.00  0.00     0.002 A 
ATOM     19  C   UNL d   1       7.070  -5.000   0.000  0.00  0.00     0.020 A 
ENDBRANCH   2  13
TORSDOF 3
