REMARK  5 active torsions:
REMARK  status: ('A' for Active; 'I' for Inactive)
REMARK    1  A    between atoms: C_2  and  S_1 
REMARK    2  A    between atoms: N_4  and  S_1 
REMARK    3  A    between atoms: C_3  and  N_5 
REMARK    4  A    between atoms: O_26  and  C_14 
REMARK    5  A    between atoms: O_27  and  C_24 
ROOT
ATOM      1  N   UNL d   1       3.092  -0.342   0.000  0.00  0.00    -0.226 N 
ATOM      2  N   UNL d   1       1.450  -0.292   0.000  0.00  0.00    -0.319 N 
ATOM      3  C   UNL d   1       2.704   0.383   0.000  0.00  0.00     0.110 A 
ATOM      4  C   UNL d   1       2.663  -1.042   0.000  0.00  0.00     0.110 A 
ATOM      5  C   UNL d   1       1.842  -1.025   0.000  0.00  0.00     0.096 A 
ATOM      6  C   UNL d   1       1.875   0.408   0.000  0.00  0.00     0.096 A 
ENDROOT
BRANCH   1   7
ATOM      7  S   UNL d   1       3.917  -0.367   0.000  0.00  0.00     0.273 S 
ATOM      8  O   UNL d   1       3.929   0.458   0.000  0.00  0.00    -0.200 OA
ATOM      9  O   UNL d   1       3.913  -1.192   0.000  0.00  0.00    -0.200 OA
BRANCH   7  10
ATOM     10  C   UNL d   1       4.742  -0.367   0.000  0.00  0.00     0.128 A 
ATOM     11  C   UNL d   1       5.142   0.346   0.000  0.00  0.00     0.039 A 
ATOM     12  C   UNL d   1       5.967   0.358   0.000  0.00  0.00     0.095 A 
ATOM     13  C   UNL d   1       6.388  -0.354   0.000  0.00  0.00     0.026 A 
ATOM     14  C   UNL d   1       5.979  -1.075   0.000  0.00  0.00     0.027 A 
ATOM     15  C   UNL d   1       5.154  -1.079   0.000  0.00  0.00     0.106 A 
BRANCH  12  16
ATOM     16  O   UNL d   1       6.375   1.071   0.000  0.00  0.00    -0.328 OA
ATOM     17  C   UNL d   1       5.954   1.783   0.000  0.00  0.00     0.181 C 
ENDBRANCH  12  16
BRANCH  15  18
ATOM     18  O   UNL d   1       4.742  -1.792   0.000  0.00  0.00    -0.327 OA
ATOM     19  C   UNL d   1       5.162  -2.504   0.000  0.00  0.00     0.181 C 
ENDBRANCH  15  18
ENDBRANCH   7  10
ENDBRANCH   1   7
BRANCH   2  20
ATOM     20  C   UNL d   1       0.625  -0.279   0.000  0.00  0.00     0.107 A 
ATOM     21  C   UNL d   1       0.392   0.446   0.000  0.00  0.00    -0.002 A 
ATOM     22  C   UNL d   1      -0.408   0.463   0.000  0.00  0.00    -0.006 A 
ATOM     23  C   UNL d   1      -0.688  -0.242   0.000  0.00  0.00    -0.022 A 
ATOM     24  C   UNL d   1      -1.083   1.121   0.000  0.00  0.00    -0.001 A 
ATOM     25  C   UNL d   1      -0.521  -0.992   0.000  0.00  0.00     0.046 A 
ATOM     26  C   UNL d   1       0.304  -1.017   0.000  0.00  0.00     0.038 A 
ATOM     27  C   UNL d   1      -1.188  -0.429   0.000  0.00  0.00    -0.022 A 
ATOM     28  C   UNL d   1      -0.875   0.308   0.000  0.00  0.00    -0.006 A 
ATOM     29  C   UNL d   1      -0.025   0.296   0.000  0.00  0.00    -0.002 A 
ENDBRANCH   2  20
TORSDOF 5
