REMARK  3 active torsions:
REMARK  status: ('A' for Active; 'I' for Inactive)
REMARK    1  A    between atoms: C_6  and  C_1 
REMARK       I    between atoms: N_8  and  C_6 
REMARK    2  A    between atoms: C_16  and  N_8 
REMARK       I    between atoms: C_12  and  N_13 
REMARK    3  A    between atoms: N_13  and  C_17 
ROOT
ATOM      1  C   UNL d   1       0.400   0.133   0.000  0.00  0.00     0.302 C 
ATOM      2  N   UNL d   1       0.817  -0.579   0.000  0.00  0.00    -0.206 NA
ATOM      3  O   UNL d   1       0.804   0.846   0.000  0.00  0.00    -0.263 OA
ENDROOT
BRANCH   1   4
ATOM      4  C   UNL d   1      -0.425   0.125   0.000  0.00  0.00     0.158 A 
ATOM      5  O   UNL d   1      -0.908  -0.550   0.000  0.00  0.00    -0.302 OA
ATOM      6  C   UNL d   1      -1.700  -0.292   0.000  0.00  0.00     0.100 A 
ATOM      7  C   UNL d   1      -2.421  -0.704   0.000  0.00  0.00     0.025 A 
ATOM      8  C   UNL d   1      -1.708   0.537   0.000  0.00  0.00     0.025 A 
ATOM      9  C   UNL d   1      -3.133  -0.292   0.000  0.00  0.00     0.002 A 
ATOM     10  C   UNL d   1      -3.850  -0.704   0.000  0.00  0.00     0.000 C 
ATOM     11  C   UNL d   1      -3.133   0.537   0.000  0.00  0.00     0.000 A 
ATOM     12  C   UNL d   1      -2.421   0.950   0.000  0.00  0.00     0.002 A 
ATOM     13  C   UNL d   1      -3.846   0.946   0.000  0.00  0.00     0.000 C 
ATOM     14  C   UNL d   1      -0.933   0.808   0.000  0.00  0.00     0.029 A 
ATOM     15  C   UNL d   1      -0.683   1.596   0.000  0.00  0.00     0.002 C 
ENDBRANCH   1   4
BRANCH   2  16
ATOM     16  C   UNL d   1       1.642  -0.575   0.000  0.00  0.00     0.085 A 
ATOM     17  C   UNL d   1       2.042   0.146   0.000  0.00  0.00     0.021 A 
ATOM     18  C   UNL d   1       2.862   0.150   0.000  0.00  0.00     0.021 A 
ATOM     19  C   UNL d   1       3.288  -0.562   0.000  0.00  0.00     0.085 A 
ATOM     20  C   UNL d   1       2.879  -1.279   0.000  0.00  0.00     0.021 A 
ATOM     21  C   UNL d   1       2.054  -1.288   0.000  0.00  0.00     0.021 A 
BRANCH  19  22
ATOM     22  N   UNL d   1       4.112  -0.554   0.000  0.00  0.00    -0.208 NA
ATOM     23  C   UNL d   1       4.529  -1.267   0.000  0.00  0.00     0.279 C 
ATOM     24  O   UNL d   1       4.125  -1.992   0.000  0.00  0.00    -0.265 OA
ATOM     25  C   UNL d   1       5.354  -1.267   0.000  0.00  0.00     0.068 C 
ENDBRANCH  19  22
ENDBRANCH   2  16
TORSDOF 3
