REMARK  4 active torsions:
REMARK  status: ('A' for Active; 'I' for Inactive)
REMARK    1  A    between atoms: C_17  and  N_3 
REMARK    2  A    between atoms: C_9  and  C_5 
REMARK    3  A    between atoms: O_21  and  C_12 
REMARK    4  A    between atoms: C_19  and  C_17 
ROOT
ATOM      1  C   UNL d   1       0.267  -0.916   0.000  0.00  0.00     0.083 A 
ATOM      2  C   UNL d   1       0.279  -1.737   0.000  0.00  0.00     0.161 A 
ATOM      3  N   UNL d   1       1.566  -1.324   0.000  0.00  0.00    -0.272 N 
ATOM      4  C   UNL d   1       1.066  -1.991   0.000  0.00  0.00     0.288 A 
ATOM      5  C   UNL d   1       1.079  -0.650   0.000  0.00  0.00     0.072 A 
ATOM      6  C   UNL d   1      -0.446  -0.500   0.000  0.00  0.00     0.201 A 
ATOM      7  O   UNL d   1      -0.446  -2.153   0.000  0.00  0.00    -0.302 OA
ATOM      8  C   UNL d   1      -1.162  -0.916   0.000  0.00  0.00     0.062 A 
ATOM      9  C   UNL d   1      -1.162  -1.749   0.000  0.00  0.00     0.103 A 
ATOM     10  O   UNL d   1       1.324  -2.778   0.000  0.00  0.00    -0.264 OA
ATOM     11  O   UNL d   1      -0.446   0.325   0.000  0.00  0.00    -0.286 OA
ATOM     12  C   UNL d   1      -1.882  -0.504   0.000  0.00  0.00     0.005 A 
ATOM     13  C   UNL d   1      -1.882  -2.161   0.000  0.00  0.00     0.025 A 
ATOM     14  C   UNL d   1      -2.595  -0.924   0.000  0.00  0.00     0.000 A 
ATOM     15  C   UNL d   1      -2.595  -1.749   0.000  0.00  0.00     0.002 A 
ENDROOT
BRANCH   5  16
ATOM     16  C   UNL d   1       1.329   0.133   0.000  0.00  0.00     0.019 A 
ATOM     17  C   UNL d   1       2.128   0.308   0.000  0.00  0.00     0.029 A 
ATOM     18  C   UNL d   1       2.390   1.087   0.000  0.00  0.00     0.133 A 
ATOM     19  C   UNL d   1       1.837   1.699   0.000  0.00  0.00     0.218 A 
ATOM     20  C   UNL d   1       1.024   1.524   0.000  0.00  0.00     0.044 A 
ATOM     21  O   UNL d   1       2.087   2.486   0.000  0.00  0.00    -0.284 OA
ATOM     22  C   UNL d   1       0.779   0.745   0.000  0.00  0.00     0.005 A 
BRANCH  18  23
ATOM     23  O   UNL d   1       3.190   1.262   0.000  0.00  0.00    -0.325 OA
ATOM     24  C   UNL d   1       3.748   0.650   0.000  0.00  0.00     0.181 C 
ENDBRANCH  18  23
ENDBRANCH   5  16
BRANCH   3  25
ATOM     25  C   UNL d   1       2.390  -1.324   0.000  0.00  0.00     0.083 C 
BRANCH  25  26
ATOM     26  C   UNL d   1       2.803  -0.612   0.000  0.00  0.00     0.019 C 
ATOM     27  C   UNL d   1       3.627  -0.612   0.000  0.00  0.00     0.002 C 
ENDBRANCH  25  26
ENDBRANCH   3  25
TORSDOF 4
