REMARK  7 active torsions:
REMARK  status: ('A' for Active; 'I' for Inactive)
REMARK    1  A    between atoms: C_6  and  C_1 
REMARK    2  A    between atoms: C_8  and  N_3 
REMARK    3  A    between atoms: O_7  and  C_6 
REMARK    4  A    between atoms: C_9  and  O_7 
REMARK    5  A    between atoms: C_19  and  C_8 
REMARK    6  A    between atoms: O_16  and  C_10 
REMARK    7  A    between atoms: O_18  and  C_19 
ROOT
ATOM      1  C   UNL d   1       4.407  -1.494   0.000  0.00  0.00     0.173 A 
ATOM      2  N   UNL d   1       3.910  -0.826   0.000  0.00  0.00    -0.225 NA
ATOM      3  N   UNL d   1       3.923  -2.179   0.000  0.00  0.00    -0.286 N 
ATOM      4  C   UNL d   1       3.122  -1.928   0.000  0.00  0.00     0.083 A 
ATOM      5  C   UNL d   1       3.122  -1.093   0.000  0.00  0.00     0.099 A 
ATOM      6  C   UNL d   1       2.404  -2.333   0.000  0.00  0.00     0.019 A 
ATOM      7  C   UNL d   1       2.404  -0.680   0.000  0.00  0.00     0.021 A 
ATOM      8  C   UNL d   1       1.690  -1.920   0.000  0.00  0.00     0.002 A 
ATOM      9  C   UNL d   1       1.690  -1.093   0.000  0.00  0.00     0.002 A 
ENDROOT
BRANCH   1  10
ATOM     10  C   UNL d   1       5.200  -1.281   0.000  0.00  0.00     0.160 C 
BRANCH  10  11
ATOM     11  O   UNL d   1       5.788  -1.865   0.000  0.00  0.00    -0.302 OA
BRANCH  11  12
ATOM     12  C   UNL d   1       6.585  -1.653   0.000  0.00  0.00     0.100 A 
ATOM     13  C   UNL d   1       6.790  -0.856   0.000  0.00  0.00     0.027 A 
ATOM     14  C   UNL d   1       7.587  -0.643   0.000  0.00  0.00     0.026 A 
ATOM     15  C   UNL d   1       8.175  -1.227   0.000  0.00  0.00     0.094 A 
ATOM     16  C   UNL d   1       7.963  -2.020   0.000  0.00  0.00     0.026 A 
ATOM     17  C   UNL d   1       7.166  -2.233   0.000  0.00  0.00     0.027 A 
BRANCH  15  18
ATOM     18  O   UNL d   1       8.969  -1.014   0.000  0.00  0.00    -0.328 OA
ATOM     19  C   UNL d   1       9.557  -1.594   0.000  0.00  0.00     0.181 C 
ENDBRANCH  15  18
ENDBRANCH  11  12
ENDBRANCH  10  11
ENDBRANCH   1  10
BRANCH   3  20
ATOM     20  C   UNL d   1       4.182  -2.959   0.000  0.00  0.00     0.108 C 
BRANCH  20  21
ATOM     21  C   UNL d   1       3.635  -3.581   0.000  0.00  0.00     0.135 C 
BRANCH  21  22
ATOM     22  O   UNL d   1       3.898  -4.357   0.000  0.00  0.00    -0.325 OA
ATOM     23  C   UNL d   1       3.355  -4.975   0.000  0.00  0.00     0.182 C 
ENDBRANCH  21  22
ENDBRANCH  20  21
ENDBRANCH   3  20
TORSDOF 7
