REMARK  2 active torsions:
REMARK  status: ('A' for Active; 'I' for Inactive)
REMARK    1  A    between atoms: N_2  and  S_1 
REMARK    2  A    between atoms: C_4  and  S_1 
ROOT
ATOM      1  N   UNL d   1       6.115  -2.159   0.000  0.00  0.00    -0.231 N 
ATOM      2  C   UNL d   1       6.533  -2.877   0.000  0.00  0.00     0.075 A 
ATOM      3  C   UNL d   1       7.363  -2.891   0.000  0.00  0.00     0.017 A 
ATOM      4  C   UNL d   1       6.547  -1.441   0.000  0.00  0.00     0.092 A 
ATOM      5  C   UNL d   1       6.101  -3.595   0.000  0.00  0.00     0.018 A 
ATOM      6  C   UNL d   1       7.377  -1.455   0.000  0.00  0.00     0.020 A 
ATOM      7  C   UNL d   1       7.776  -2.187   0.000  0.00  0.00     0.003 A 
ATOM      8  C   UNL d   1       7.762  -3.618   0.000  0.00  0.00     0.002 A 
ATOM      9  C   UNL d   1       6.509  -4.313   0.000  0.00  0.00     0.002 A 
ATOM     10  C   UNL d   1       7.340  -4.327   0.000  0.00  0.00     0.000 A 
ENDROOT
BRANCH   1  11
ATOM     11  S   UNL d   1       5.284  -2.154   0.000  0.00  0.00     0.271 S 
ATOM     12  O   UNL d   1       5.252  -1.380   0.000  0.00  0.00    -0.200 OA
ATOM     13  O   UNL d   1       5.270  -2.985   0.000  0.00  0.00    -0.200 OA
BRANCH  11  14
ATOM     14  C   UNL d   1       4.510  -2.145   0.000  0.00  0.00     0.104 A 
ATOM     15  C   UNL d   1       4.130  -1.469   0.000  0.00  0.00     0.015 A 
ATOM     16  C   UNL d   1       3.356  -1.464   0.000  0.00  0.00     0.022 A 
ATOM     17  C   UNL d   1       2.961  -2.131   0.000  0.00  0.00     0.103 A 
ATOM     18  C   UNL d   1       3.351  -2.807   0.000  0.00  0.00     0.022 A 
ATOM     19  N   UNL d   1       2.159  -2.131   0.000  0.00  0.00    -0.148 N 
ATOM     20  C   UNL d   1       4.116  -2.816   0.000  0.00  0.00     0.015 A 
ENDBRANCH  11  14
ENDBRANCH   1  11
TORSDOF 2
