REMARK  3 active torsions:
REMARK  status: ('A' for Active; 'I' for Inactive)
REMARK    1  A    between atoms: N_2  and  S_1 
REMARK    2  A    between atoms: C_4  and  S_1 
REMARK       I    between atoms: C_8  and  N_10 
REMARK    3  A    between atoms: N_10  and  C_16 
ROOT
ATOM      1  S   UNL d   1       4.025  -2.125   0.000  0.00  0.00     0.271 S 
ATOM      2  O   UNL d   1       3.612  -1.413   0.000  0.00  0.00    -0.200 OA
ATOM      3  O   UNL d   1       4.442  -2.837   0.000  0.00  0.00    -0.200 OA
ENDROOT
BRANCH   1   4
ATOM      4  N   UNL d   1       3.312  -2.538   0.000  0.00  0.00    -0.229 N 
ATOM      5  C   UNL d   1       2.600  -2.117   0.000  0.00  0.00     0.092 A 
ATOM      6  C   UNL d   1       1.887  -2.525   0.000  0.00  0.00     0.018 A 
ATOM      7  C   UNL d   1       1.179  -2.104   0.000  0.00  0.00     0.002 A 
ATOM      8  C   UNL d   1       1.879  -3.350   0.000  0.00  0.00     0.003 A 
ATOM      9  C   UNL d   1       0.467  -2.513   0.000  0.00  0.00     0.000 A 
ATOM     10  C   UNL d   1       0.454  -3.337   0.000  0.00  0.00     0.000 A 
ATOM     11  C   UNL d   1       1.167  -3.754   0.000  0.00  0.00     0.000 A 
ATOM     12  C   UNL d   1       2.592  -3.763   0.000  0.00  0.00     0.020 A 
ATOM     13  C   UNL d   1       3.312  -3.354   0.000  0.00  0.00     0.092 A 
ENDBRANCH   1   4
BRANCH   1  14
ATOM     14  C   UNL d   1       4.737  -1.704   0.000  0.00  0.00     0.104 A 
ATOM     15  C   UNL d   1       5.454  -2.117   0.000  0.00  0.00     0.014 A 
ATOM     16  C   UNL d   1       6.162  -1.692   0.000  0.00  0.00     0.020 A 
ATOM     17  C   UNL d   1       6.154  -0.867   0.000  0.00  0.00     0.085 A 
ATOM     18  C   UNL d   1       5.429  -0.467   0.000  0.00  0.00     0.020 A 
ATOM     19  C   UNL d   1       4.725  -0.887   0.000  0.00  0.00     0.014 A 
BRANCH  17  20
ATOM     20  N   UNL d   1       6.862  -0.454   0.000  0.00  0.00    -0.208 NA
ATOM     21  C   UNL d   1       7.579  -0.854   0.000  0.00  0.00     0.279 C 
ATOM     22  O   UNL d   1       7.592  -1.679   0.000  0.00  0.00    -0.265 OA
ATOM     23  C   UNL d   1       8.292  -0.438   0.000  0.00  0.00     0.068 C 
ENDBRANCH  17  20
ENDBRANCH   1  14
TORSDOF 3
