REMARK  6 active torsions:
REMARK  status: ('A' for Active; 'I' for Inactive)
REMARK    1  A    between atoms: S_2  and  C_1 
REMARK    2  A    between atoms: C_7  and  S_2 
REMARK    3  A    between atoms: N_10  and  C_6 
REMARK    4  A    between atoms: C_18  and  N_10 
REMARK    5  A    between atoms: N_14  and  C_19 
REMARK    6  A    between atoms: C_19  and  C_18 
ROOT
ATOM      1  C   UNL d   1      -0.146   0.461   0.000  0.00  0.00     0.187 A 
ATOM      2  N   UNL d   1       0.496   0.925   0.000  0.00  0.00    -0.208 NA
ATOM      3  C   UNL d   1       0.098  -0.297   0.000  0.00  0.00     0.118 A 
ATOM      4  S   UNL d   1       0.894  -0.297   0.000  0.00  0.00    -0.035 SA
ATOM      5  C   UNL d   1       1.142   0.461   0.000  0.00  0.00     0.196 A 
ATOM      6 CL   UNL d   1      -0.385  -0.961   0.000  0.00  0.00    -0.073 Cl
ENDROOT
BRANCH   1   7
ATOM      7  S   UNL d   1      -0.925   0.713   0.000  0.00  0.00     0.228 S 
ATOM      8  O   UNL d   1      -1.297  -0.164   0.000  0.00  0.00    -0.216 OA
ATOM      9  O   UNL d   1      -0.607   1.594   0.000  0.00  0.00    -0.216 OA
BRANCH   7  10
ATOM     10  C   UNL d   1      -1.700   0.983   0.000  0.00  0.00     0.089 A 
ATOM     11  C   UNL d   1      -1.855   1.793   0.000  0.00  0.00     0.011 A 
ATOM     12  C   UNL d   1      -2.630   2.068   0.000  0.00  0.00     0.001 A 
ATOM     13  C   UNL d   1      -3.255   1.528   0.000  0.00  0.00     0.000 A 
ATOM     14  C   UNL d   1      -3.104   0.713   0.000  0.00  0.00     0.001 A 
ATOM     15  C   UNL d   1      -4.034   1.802   0.000  0.00  0.00     0.000 C 
ATOM     16  C   UNL d   1      -2.320   0.447   0.000  0.00  0.00     0.011 A 
ENDBRANCH   7  10
ENDBRANCH   1   7
BRANCH   5  17
ATOM     17  N   UNL d   1       1.926   0.713   0.000  0.00  0.00    -0.218 NA
BRANCH  17  18
ATOM     18  C   UNL d   1       2.528   0.168   0.000  0.00  0.00     0.120 C 
BRANCH  18  19
ATOM     19  C   UNL d   1       3.321   0.421   0.000  0.00  0.00     0.101 C 
BRANCH  19  20
ATOM     20  N   UNL d   1       3.932  -0.133   0.000  0.00  0.00    -0.299 N 
ATOM     21  C   UNL d   1       3.764  -0.934   0.000  0.00  0.00     0.100 C 
ATOM     22  C   UNL d   1       4.716   0.120   0.000  0.00  0.00     0.100 C 
ENDBRANCH  19  20
ENDBRANCH  18  19
ENDBRANCH  17  18
ENDBRANCH   5  17
TORSDOF 6
