REMARK  4 active torsions:
REMARK  status: ('A' for Active; 'I' for Inactive)
REMARK    1  A    between atoms: N_2  and  S_1 
REMARK    2  A    between atoms: C_3  and  S_1 
REMARK    3  A    between atoms: C_6  and  N_2 
REMARK    4  A    between atoms: C_13  and  N_2 
ROOT
ATOM      1  S   UNL d   1       4.470  -1.543   0.000  0.00  0.00     0.271 S 
ATOM      2  O   UNL d   1       4.462  -0.791   0.000  0.00  0.00    -0.200 OA
ATOM      3  O   UNL d   1       4.447  -2.364   0.000  0.00  0.00    -0.200 OA
ENDROOT
BRANCH   1   4
ATOM      4  N   UNL d   1       5.302  -1.566   0.000  0.00  0.00    -0.231 N 
BRANCH   4   5
ATOM      5  C   UNL d   1       5.694  -2.296   0.000  0.00  0.00     0.075 A 
ATOM      6  C   UNL d   1       6.526  -2.315   0.000  0.00  0.00     0.018 A 
ATOM      7  C   UNL d   1       6.925  -3.044   0.000  0.00  0.00     0.002 A 
ATOM      8  C   UNL d   1       6.492  -3.755   0.000  0.00  0.00     0.000 A 
ATOM      9  C   UNL d   1       5.659  -3.732   0.000  0.00  0.00     0.002 A 
ATOM     10  C   UNL d   1       5.260  -3.003   0.000  0.00  0.00     0.018 A 
ENDBRANCH   4   5
BRANCH   4  11
ATOM     11  C   UNL d   1       5.735  -0.859   0.000  0.00  0.00     0.092 C 
ATOM     12  C   UNL d   1       6.560  -0.878   0.000  0.00  0.00     0.021 C 
ENDBRANCH   4  11
ENDBRANCH   1   4
BRANCH   1  13
ATOM     13  C   UNL d   1       3.717  -1.554   0.000  0.00  0.00     0.104 A 
ATOM     14  C   UNL d   1       3.322  -0.905   0.000  0.00  0.00     0.015 A 
ATOM     15  C   UNL d   1       2.577  -0.924   0.000  0.00  0.00     0.022 A 
ATOM     16  C   UNL d   1       2.212  -1.577   0.000  0.00  0.00     0.103 A 
ATOM     17  C   UNL d   1       2.592  -2.223   0.000  0.00  0.00     0.022 A 
ATOM     18  N   UNL d   1       1.460  -1.585   0.000  0.00  0.00    -0.148 N 
ATOM     19  C   UNL d   1       3.345  -2.216   0.000  0.00  0.00     0.015 A 
ENDBRANCH   1  13
TORSDOF 4
