REMARK  5 active torsions:
REMARK  status: ('A' for Active; 'I' for Inactive)
REMARK    1  A    between atoms: C_15  and  N_5 
REMARK    2  A    between atoms: S_10  and  C_6 
REMARK    3  A    between atoms: C_14  and  S_10 
REMARK    4  A    between atoms: C_11  and  C_14 
REMARK       I    between atoms: N_13  and  C_11 
REMARK    5  A    between atoms: C_17  and  C_15 
ROOT
ATOM      1  C   UNL d   1      -4.631   3.772   0.000  0.00  0.00     0.081 A 
ATOM      2  C   UNL d   1      -4.402   2.979   0.000  0.00  0.00     0.117 A 
ATOM      3  N   UNL d   1      -3.629   2.798   0.000  0.00  0.00    -0.215 NA
ATOM      4  C   UNL d   1      -4.087   4.354   0.000  0.00  0.00     0.268 A 
ATOM      5  N   UNL d   1      -3.314   4.173   0.000  0.00  0.00    -0.253 N 
ATOM      6  C   UNL d   1      -3.084   3.400   0.000  0.00  0.00     0.182 A 
ATOM      7  S   UNL d   1      -5.042   2.521   0.000  0.00  0.00    -0.068 SA
ATOM      8  C   UNL d   1      -5.462   3.772   0.000  0.00  0.00     0.013 A 
ATOM      9  C   UNL d   1      -5.691   2.979   0.000  0.00  0.00     0.031 A 
ATOM     10  O   UNL d   1      -4.316   5.204   0.000  0.00  0.00    -0.267 OA
ATOM     11  C   UNL d   1      -6.102   4.230   0.000  0.00  0.00     0.001 A 
ATOM     12  C   UNL d   1      -6.522   2.979   0.000  0.00  0.00     0.006 A 
ATOM     13  C   UNL d   1      -6.751   3.715   0.000  0.00  0.00     0.001 A 
ENDROOT
BRANCH   6  14
ATOM     14  S   UNL d   1      -2.254   3.209   0.000  0.00  0.00    -0.044 SA
BRANCH  14  15
ATOM     15  C   UNL d   1      -1.709   3.858   0.000  0.00  0.00     0.099 C 
BRANCH  15  16
ATOM     16  C   UNL d   1      -0.878   3.667   0.000  0.00  0.00     0.272 C 
ATOM     17  N   UNL d   1      -0.602   2.893   0.000  0.00  0.00    -0.269 N 
ATOM     18  C   UNL d   1       0.229   2.750   0.000  0.00  0.00     0.102 C 
ATOM     19  C   UNL d   1      -1.146   2.254   0.000  0.00  0.00     0.102 C 
ATOM     20  O   UNL d   1      -0.334   4.316   0.000  0.00  0.00    -0.266 OA
ENDBRANCH  15  16
ENDBRANCH  14  15
ENDBRANCH   6  14
BRANCH   5  21
ATOM     21  C   UNL d   1      -2.750   4.813   0.000  0.00  0.00     0.085 C 
BRANCH  21  22
ATOM     22  C   UNL d   1      -1.938   4.689   0.000  0.00  0.00     0.019 C 
ATOM     23  C   UNL d   1      -1.423   5.319   0.000  0.00  0.00     0.002 C 
ENDBRANCH  21  22
ENDBRANCH   5  21
TORSDOF 5
