REMARK  7 active torsions:
REMARK  status: ('A' for Active; 'I' for Inactive)
REMARK    1  A    between atoms: C_6  and  N_2 
REMARK    2  A    between atoms: C_7  and  C_3 
REMARK    3  A    between atoms: C_12  and  C_6 
REMARK    4  A    between atoms: C_21  and  C_7 
REMARK    5  A    between atoms: C_9  and  O_11 
REMARK    6  A    between atoms: O_11  and  C_12 
REMARK    7  A    between atoms: C_19  and  C_21 
ROOT
ATOM      1  N   UNL d   1       0.751   3.802   0.000  0.00  0.00    -0.227 NA
ATOM      2  N   UNL d   1       0.764   2.442   0.000  0.00  0.00    -0.287 N 
ATOM      3  C   UNL d   1       1.244   3.126   0.000  0.00  0.00     0.148 A 
ATOM      4  C   UNL d   1      -0.033   2.700   0.000  0.00  0.00     0.083 A 
ATOM      5  C   UNL d   1      -0.038   3.527   0.000  0.00  0.00     0.099 A 
ATOM      6  C   UNL d   1      -0.751   2.287   0.000  0.00  0.00     0.019 A 
ATOM      7  C   UNL d   1      -0.751   3.940   0.000  0.00  0.00     0.021 A 
ATOM      8  C   UNL d   1      -1.465   2.700   0.000  0.00  0.00     0.002 A 
ATOM      9  C   UNL d   1      -1.465   3.527   0.000  0.00  0.00     0.002 A 
ENDROOT
BRANCH   2  10
ATOM     10  C   UNL d   1       1.018   1.661   0.000  0.00  0.00     0.108 C 
BRANCH  10  11
ATOM     11  C   UNL d   1       0.468   1.039   0.000  0.00  0.00     0.142 C 
BRANCH  11  12
ATOM     12  O   UNL d   1       0.731   0.263   0.000  0.00  0.00    -0.304 OA
BRANCH  12  13
ATOM     13  C   UNL d   1       0.188  -0.355   0.000  0.00  0.00     0.100 A 
ATOM     14  C   UNL d   1       0.455  -1.131   0.000  0.00  0.00     0.025 A 
ATOM     15  C   UNL d   1      -0.088  -1.753   0.000  0.00  0.00     0.002 A 
ATOM     16  C   UNL d   1       0.179  -2.534   0.000  0.00  0.00     0.000 C 
ATOM     17  C   UNL d   1      -0.902  -1.594   0.000  0.00  0.00     0.000 A 
ATOM     18  C   UNL d   1      -1.165  -0.806   0.000  0.00  0.00     0.002 A 
ATOM     19  C   UNL d   1      -0.622  -0.188   0.000  0.00  0.00     0.025 A 
ENDBRANCH  12  13
ENDBRANCH  11  12
ENDBRANCH  10  11
ENDBRANCH   2  10
BRANCH   3  20
ATOM     20  C   UNL d   1       1.958   3.539   0.000  0.00  0.00     0.041 C 
BRANCH  20  21
ATOM     21  C   UNL d   1       2.671   3.126   0.000  0.00  0.00     0.049 C 
BRANCH  21  22
ATOM     22  C   UNL d   1       3.385   3.539   0.000  0.00  0.00     0.234 C 
ATOM     23  O   UNL d   1       4.099   3.130   0.000  0.00  0.00    -0.283 OA
ENDBRANCH  21  22
ENDBRANCH  20  21
ENDBRANCH   3  20
TORSDOF 7
