REMARK  7 active torsions:
REMARK  status: ('A' for Active; 'I' for Inactive)
REMARK    1  A    between atoms: C_25  and  N_5 
REMARK    2  A    between atoms: C_11  and  C_6 
REMARK       I    between atoms: N_19  and  C_11 
REMARK    3  A    between atoms: N_15  and  C_28 
REMARK    4  A    between atoms: C_27  and  N_19 
REMARK    5  A    between atoms: C_26  and  C_25 
REMARK    6  A    between atoms: C_28  and  C_26 
REMARK    7  A    between atoms: C_29  and  C_27 
ROOT
ATOM      1  C   UNL d   1       0.535  -0.434   0.000  0.00  0.00     0.155 A 
ATOM      2  C   UNL d   1       0.540   0.391   0.000  0.00  0.00     0.091 A 
ATOM      3  N   UNL d   1      -0.183  -0.839   0.000  0.00  0.00    -0.210 NA
ATOM      4  N   UNL d   1      -0.883   0.400   0.000  0.00  0.00    -0.258 N 
ATOM      5  N   UNL d   1       1.244  -0.854   0.000  0.00  0.00    -0.274 N 
ATOM      6  C   UNL d   1       1.973   0.386   0.000  0.00  0.00     0.094 A 
ATOM      7  C   UNL d   1      -0.174   0.810   0.000  0.00  0.00     0.269 A 
ATOM      8  C   UNL d   1       1.968  -0.449   0.000  0.00  0.00     0.175 A 
ATOM      9  C   UNL d   1      -0.883  -0.424   0.000  0.00  0.00     0.152 A 
ATOM     10  C   UNL d   1       1.259   0.805   0.000  0.00  0.00     0.016 A 
ATOM     11  C   UNL d   1      -1.601   0.810   0.000  0.00  0.00     0.084 A 
ATOM     12  C   UNL d   1      -1.601  -0.839   0.000  0.00  0.00     0.038 A 
ATOM     13  N   UNL d   1       2.677  -0.868   0.000  0.00  0.00    -0.128 N 
ATOM     14  C   UNL d   1      -2.311   0.400   0.000  0.00  0.00     0.018 A 
ATOM     15  C   UNL d   1      -2.311  -0.424   0.000  0.00  0.00     0.005 A 
ATOM     16  O   UNL d   1      -0.169   1.635   0.000  0.00  0.00    -0.266 OA
ATOM     17  C   UNL d   1      -3.020   0.805   0.000  0.00  0.00     0.002 C 
ENDROOT
BRANCH   6  18
ATOM     18  C   UNL d   1       2.682   0.791   0.000  0.00  0.00     0.282 C 
ATOM     19  N   UNL d   1       3.401   0.371   0.000  0.00  0.00    -0.206 NA
ATOM     20  O   UNL d   1       2.697   1.616   0.000  0.00  0.00    -0.265 OA
BRANCH  19  21
ATOM     21  C   UNL d   1       4.115   0.777   0.000  0.00  0.00     0.102 C 
BRANCH  21  22
ATOM     22  C   UNL d   1       4.833   0.357   0.000  0.00  0.00     0.019 A 
ATOM     23  C   UNL d   1       4.819  -0.468   0.000  0.00  0.00     0.002 A 
ATOM     24  C   UNL d   1       5.528  -0.897   0.000  0.00  0.00     0.000 A 
ATOM     25  C   UNL d   1       6.252  -0.492   0.000  0.00  0.00     0.000 A 
ATOM     26  C   UNL d   1       6.256   0.343   0.000  0.00  0.00     0.000 A 
ATOM     27  C   UNL d   1       5.547   0.762   0.000  0.00  0.00     0.002 A 
ENDBRANCH  21  22
ENDBRANCH  19  21
ENDBRANCH   6  18
BRANCH   5  28
ATOM     28  C   UNL d   1       1.235  -1.679   0.000  0.00  0.00     0.085 C 
BRANCH  28  29
ATOM     29  C   UNL d   1       1.944  -2.098   0.000  0.00  0.00     0.038 C 
BRANCH  29  30
ATOM     30  C   UNL d   1       2.668  -1.693   0.000  0.00  0.00     0.083 C 
BRANCH  30  31
ATOM     31  N   UNL d   1       3.377  -2.113   0.000  0.00  0.00    -0.285 N 
ATOM     32  C   UNL d   1       3.449  -2.928   0.000  0.00  0.00     0.183 A 
ATOM     33  N   UNL d   1       4.274  -3.102   0.000  0.00  0.00    -0.222 NA
ATOM     34  C   UNL d   1       4.679  -2.402   0.000  0.00  0.00     0.120 A 
ATOM     35  C   UNL d   1       4.129  -1.785   0.000  0.00  0.00     0.102 A 
ENDBRANCH  30  31
ENDBRANCH  29  30
ENDBRANCH  28  29
ENDBRANCH   5  28
TORSDOF 7
