REMARK  6 active torsions:
REMARK  status: ('A' for Active; 'I' for Inactive)
REMARK    1  A    between atoms: C_7  and  N_1 
REMARK    2  A    between atoms: C_6  and  C_3 
REMARK       I    between atoms: N_9  and  C_6 
REMARK    3  A    between atoms: C_19  and  N_9 
REMARK    4  A    between atoms: C_10  and  C_19 
REMARK    5  A    between atoms: O_23  and  C_20 
REMARK    6  A    between atoms: C_24  and  O_23 
ROOT
ATOM      1  N   UNL d   1       0.168   1.506   0.000  0.00  0.00    -0.276 N 
ATOM      2  C   UNL d   1      -0.315   2.160   0.000  0.00  0.00     0.181 A 
ATOM      3  C   UNL d   1      -1.090   1.883   0.000  0.00  0.00     0.126 A 
ATOM      4  C   UNL d   1      -0.315   0.805   0.000  0.00  0.00     0.152 A 
ATOM      5  S   UNL d   1      -1.103   1.057   0.000  0.00  0.00    -0.051 SA
ATOM      6  S   UNL d   1      -0.050   0.013   0.000  0.00  0.00    -0.052 SA
ATOM      7  N   UNL d   1      -0.071   2.940   0.000  0.00  0.00    -0.128 N 
ENDROOT
BRANCH   1   8
ATOM      8  C   UNL d   1       0.994   1.543   0.000  0.00  0.00     0.067 A 
ATOM      9  C   UNL d   1       1.363   2.265   0.000  0.00  0.00     0.020 A 
ATOM     10  C   UNL d   1       2.181   2.315   0.000  0.00  0.00     0.026 A 
ATOM     11  C   UNL d   1       2.646   1.631   0.000  0.00  0.00     0.100 A 
ATOM     12  C   UNL d   1       2.281   0.902   0.000  0.00  0.00     0.026 A 
ATOM     13  C   UNL d   1       1.447   0.856   0.000  0.00  0.00     0.020 A 
BRANCH  11  14
ATOM     14  O   UNL d   1       3.477   1.644   0.000  0.00  0.00    -0.305 OA
BRANCH  14  15
ATOM     15  C   UNL d   1       3.875   2.378   0.000  0.00  0.00     0.123 C 
ATOM     16  C   UNL d   1       4.710   2.386   0.000  0.00  0.00     0.029 C 
ENDBRANCH  14  15
ENDBRANCH  11  14
ENDBRANCH   1   8
BRANCH   3  17
ATOM     17  C   UNL d   1      -1.808   2.349   0.000  0.00  0.00     0.288 C 
ATOM     18  N   UNL d   1      -2.537   1.984   0.000  0.00  0.00    -0.204 NA
ATOM     19  O   UNL d   1      -1.745   3.192   0.000  0.00  0.00    -0.265 OA
BRANCH  18  20
ATOM     20  C   UNL d   1      -3.217   2.474   0.000  0.00  0.00     0.127 C 
BRANCH  20  21
ATOM     21  C   UNL d   1      -3.988   2.110   0.000  0.00  0.00     0.119 A 
ATOM     22  O   UNL d   1      -4.664   2.579   0.000  0.00  0.00    -0.304 OA
ATOM     23  C   UNL d   1      -5.305   2.076   0.000  0.00  0.00     0.123 A 
ATOM     24  C   UNL d   1      -5.054   1.321   0.000  0.00  0.00     0.029 A 
ATOM     25  C   UNL d   1      -4.236   1.308   0.000  0.00  0.00     0.028 A 
ENDBRANCH  20  21
ENDBRANCH  18  20
ENDBRANCH   3  17
TORSDOF 6
