REMARK  8 active torsions:
REMARK  status: ('A' for Active; 'I' for Inactive)
REMARK    1  A    between atoms: S_3  and  C_1 
REMARK    2  A    between atoms: C_7  and  C_2 
REMARK    3  A    between atoms: N_9  and  S_3 
REMARK    4  A    between atoms: C_8  and  C_6 
REMARK    5  A    between atoms: O_21  and  C_7 
REMARK    6  A    between atoms: O_22  and  C_8 
REMARK    7  A    between atoms: C_14  and  N_9 
REMARK    8  A    between atoms: C_10  and  C_14 
ROOT
ATOM      1  C   UNL d   1      -1.503   0.320   0.000  0.00  0.00     0.140 A 
ATOM      2  C   UNL d   1      -1.901   1.035   0.000  0.00  0.00     0.082 A 
ATOM      3  C   UNL d   1      -2.715   0.880   0.000  0.00  0.00     0.018 A 
ATOM      4  S   UNL d   1      -2.074  -0.269   0.000  0.00  0.00    -0.069 SA
ATOM      5  C   UNL d   1      -2.803   0.088   0.000  0.00  0.00     0.093 A 
ATOM      6  C   UNL d   1      -3.326   1.411   0.000  0.00  0.00     0.001 C 
ENDROOT
BRANCH   1   7
ATOM      7  S   UNL d   1      -0.692   0.320   0.000  0.00  0.00     0.291 S 
ATOM      8  O   UNL d   1      -0.692  -0.519   0.000  0.00  0.00    -0.198 OA
ATOM      9  O   UNL d   1      -0.674   1.123   0.000  0.00  0.00    -0.198 OA
BRANCH   7  10
ATOM     10  N   UNL d   1       0.133   0.306   0.000  0.00  0.00    -0.156 NA
BRANCH  10  11
ATOM     11  C   UNL d   1       0.545  -0.412   0.000  0.00  0.00     0.119 C 
BRANCH  11  12
ATOM     12  C   UNL d   1       1.370  -0.412   0.000  0.00  0.00     0.049 A 
ATOM     13  S   UNL d   1       1.882  -1.065   0.000  0.00  0.00    -0.085 SA
ATOM     14  C   UNL d   1       2.652  -0.796   0.000  0.00  0.00     0.035 A 
ATOM     15  C   UNL d   1       2.634   0.029   0.000  0.00  0.00     0.007 A 
ATOM     16  C   UNL d   1       1.838   0.262   0.000  0.00  0.00     0.009 A 
ENDBRANCH  11  12
ENDBRANCH  10  11
ENDBRANCH   7  10
ENDBRANCH   1   7
BRANCH   2  17
ATOM     17  C   UNL d   1      -1.565   1.797   0.000  0.00  0.00     0.297 C 
ATOM     18  O   UNL d   1      -0.748   1.886   0.000  0.00  0.00    -0.259 OA
BRANCH  17  19
ATOM     19  O   UNL d   1      -2.062   2.460   0.000  0.00  0.00    -0.296 OA
ATOM     20  C   UNL d   1      -1.742   3.212   0.000  0.00  0.00     0.185 C 
ENDBRANCH  17  19
ENDBRANCH   2  17
BRANCH   5  21
ATOM     21  C   UNL d   1      -3.554  -0.309   0.000  0.00  0.00     0.302 C 
ATOM     22  O   UNL d   1      -4.228   0.144   0.000  0.00  0.00    -0.259 OA
BRANCH  21  23
ATOM     23  O   UNL d   1      -3.591  -1.138   0.000  0.00  0.00    -0.295 OA
ATOM     24  C   UNL d   1      -2.902  -1.591   0.000  0.00  0.00     0.185 C 
ENDBRANCH  21  23
ENDBRANCH   5  21
TORSDOF 8
