REMARK  3 active torsions:
REMARK  status: ('A' for Active; 'I' for Inactive)
REMARK    1  A    between atoms: C_11  and  C_2 
REMARK    2  A    between atoms: C_12  and  C_3 
REMARK    3  A    between atoms: N_7  and  C_6 
ROOT
ATOM      1  C   UNL d   1       3.959  -1.442   0.000  0.00  0.00     0.078 A 
ATOM      2  C   UNL d   1       2.530  -1.433   0.000  0.00  0.00     0.029 A 
ATOM      3  C   UNL d   1       2.530  -2.262   0.000  0.00  0.00     0.102 A 
ATOM      4  C   UNL d   1       3.955  -2.271   0.000  0.00  0.00     0.187 A 
ATOM      5  O   UNL d   1       3.240  -2.671   0.000  0.00  0.00    -0.289 OA
ATOM      6  C   UNL d   1       4.682  -1.033   0.000  0.00  0.00     0.153 A 
ATOM      7  N   UNL d   1       4.669  -2.683   0.000  0.00  0.00    -0.200 NA
ATOM      8  N   UNL d   1       5.388  -1.454   0.000  0.00  0.00    -0.206 NA
ATOM      9  C   UNL d   1       5.388  -2.284   0.000  0.00  0.00     0.202 A 
ENDROOT
BRANCH   2  10
ATOM     10  C   UNL d   1       1.816  -1.021   0.000  0.00  0.00     0.002 A 
ATOM     11  C   UNL d   1       1.110  -1.429   0.000  0.00  0.00     0.000 A 
ATOM     12  C   UNL d   1       0.396  -1.012   0.000  0.00  0.00     0.000 A 
ATOM     13  C   UNL d   1       0.396  -0.183   0.000  0.00  0.00     0.000 A 
ATOM     14  C   UNL d   1       1.114   0.225   0.000  0.00  0.00     0.000 A 
ATOM     15  C   UNL d   1       1.829  -0.191   0.000  0.00  0.00     0.000 A 
ENDBRANCH   2  10
BRANCH   3  16
ATOM     16  C   UNL d   1       1.816  -2.671   0.000  0.00  0.00     0.023 A 
ATOM     17  C   UNL d   1       1.114  -2.250   0.000  0.00  0.00     0.002 A 
ATOM     18  C   UNL d   1       0.400  -2.658   0.000  0.00  0.00     0.000 A 
ATOM     19  C   UNL d   1       0.400  -3.483   0.000  0.00  0.00     0.000 A 
ATOM     20  C   UNL d   1       1.114  -3.896   0.000  0.00  0.00     0.000 A 
ATOM     21  C   UNL d   1       1.816  -3.483   0.000  0.00  0.00     0.002 A 
ENDBRANCH   3  16
BRANCH   6  22
ATOM     22  N   UNL d   1       4.686  -0.208   0.000  0.00  0.00    -0.285 N 
ATOM     23  C   UNL d   1       3.981   0.213   0.000  0.00  0.00     0.108 A 
ATOM     24  C   UNL d   1       3.985   1.042   0.000  0.00  0.00     0.142 A 
ATOM     25  O   UNL d   1       4.695   1.450   0.000  0.00  0.00    -0.300 OA
ATOM     26  C   UNL d   1       5.414   1.021   0.000  0.00  0.00     0.142 A 
ATOM     27  C   UNL d   1       5.409   0.200   0.000  0.00  0.00     0.108 A 
ENDBRANCH   6  22
TORSDOF 3
