REMARK  9 active torsions:
REMARK  status: ('A' for Active; 'I' for Inactive)
REMARK    1  A    between atoms: P_2  and  C_1 
REMARK    2  A    between atoms: O_8  and  P_2 
REMARK    3  A    between atoms: O_9  and  P_2 
REMARK    4  A    between atoms: N_10  and  C_4 
REMARK    5  A    between atoms: C_24  and  O_8 
REMARK    6  A    between atoms: C_23  and  O_9 
REMARK    7  A    between atoms: C_15  and  N_10 
REMARK    8  A    between atoms: O_25  and  C_16 
REMARK    9  A    between atoms: O_26  and  C_17 
ROOT
ATOM      1  C   UNL d   1       0.890  -0.898   0.000  0.00  0.00     0.174 A 
ATOM      2  C   UNL d   1       0.890  -0.067   0.000  0.00  0.00     0.100 A 
ATOM      3  C   UNL d   1       0.175   0.345   0.000  0.00  0.00     0.095 A 
ATOM      4  N   UNL d   1       0.175  -1.309   0.000  0.00  0.00    -0.237 NA
ATOM      5  C   UNL d   1      -0.536  -0.067   0.000  0.00  0.00     0.038 A 
ATOM      6  C   UNL d   1      -0.536  -0.898   0.000  0.00  0.00     0.083 A 
ATOM      7  C   UNL d   1      -1.243   0.345   0.000  0.00  0.00     0.027 A 
ATOM      8 CL   UNL d   1       1.609   0.345   0.000  0.00  0.00    -0.079 Cl
ATOM      9  C   UNL d   1      -1.247  -1.309   0.000  0.00  0.00     0.021 A 
ATOM     10  C   UNL d   1      -1.966  -0.067   0.000  0.00  0.00     0.094 A 
ATOM     11  C   UNL d   1      -1.966  -0.898   0.000  0.00  0.00     0.026 A 
ENDROOT
BRANCH   1  12
ATOM     12  P   UNL d   1       1.609  -1.314   0.000  0.00  0.00     0.392 P 
ATOM     13  O   UNL d   1       1.189  -2.025   0.000  0.00  0.00    -0.251 OA
BRANCH  12  14
ATOM     14  O   UNL d   1       2.187  -0.723   0.000  0.00  0.00    -0.265 OA
BRANCH  14  15
ATOM     15  C   UNL d   1       2.993  -0.927   0.000  0.00  0.00     0.103 C 
ATOM     16  C   UNL d   1       3.571  -0.341   0.000  0.00  0.00     0.027 C 
ATOM     17  C   UNL d   1       3.209  -1.725   0.000  0.00  0.00     0.027 C 
ENDBRANCH  14  15
ENDBRANCH  12  14
BRANCH  12  18
ATOM     18  O   UNL d   1       2.336  -1.700   0.000  0.00  0.00    -0.265 OA
BRANCH  18  19
ATOM     19  C   UNL d   1       2.369  -2.523   0.000  0.00  0.00     0.103 C 
ATOM     20  C   UNL d   1       3.097  -2.910   0.000  0.00  0.00     0.027 C 
ATOM     21  C   UNL d   1       1.671  -2.960   0.000  0.00  0.00     0.027 C 
ENDBRANCH  18  19
ENDBRANCH  12  18
ENDBRANCH   1  12
BRANCH   3  22
ATOM     22  N   UNL d   1       0.175   1.172   0.000  0.00  0.00    -0.245 NA
BRANCH  22  23
ATOM     23  C   UNL d   1       0.890   1.592   0.000  0.00  0.00     0.082 A 
ATOM     24  C   UNL d   1       1.601   1.181   0.000  0.00  0.00     0.021 A 
ATOM     25  C   UNL d   1       2.324   1.592   0.000  0.00  0.00     0.026 A 
ATOM     26  C   UNL d   1       2.311   2.419   0.000  0.00  0.00     0.094 A 
ATOM     27  C   UNL d   1       1.596   2.831   0.000  0.00  0.00     0.026 A 
ATOM     28  C   UNL d   1       0.885   2.415   0.000  0.00  0.00     0.021 A 
BRANCH  26  29
ATOM     29  O   UNL d   1       3.035   2.831   0.000  0.00  0.00    -0.328 OA
ATOM     30  C   UNL d   1       3.030   3.662   0.000  0.00  0.00     0.181 C 
ENDBRANCH  26  29
ENDBRANCH  22  23
ENDBRANCH   3  22
BRANCH  10  31
ATOM     31  O   UNL d   1      -2.677   0.345   0.000  0.00  0.00    -0.328 OA
ATOM     32  C   UNL d   1      -3.388  -0.067   0.000  0.00  0.00     0.181 C 
ENDBRANCH  10  31
TORSDOF 9
