REMARK  4 active torsions:
REMARK  status: ('A' for Active; 'I' for Inactive)
REMARK    1  A    between atoms: C_6  and  C_1 
REMARK    2  A    between atoms: C_8  and  C_5 
REMARK    3  A    between atoms: C_9  and  C_8 
REMARK    4  A    between atoms: C_13  and  C_9 
ROOT
ATOM      1  C   UNL d   1      -1.694  -0.800   0.000  0.00  0.00     0.210 A 
ATOM      2  N   UNL d   1      -1.210  -1.470   0.000  0.00  0.00    -0.120 NA
ATOM      3  O   UNL d   1      -1.238  -0.145   0.000  0.00  0.00    -0.268 OA
ATOM      4  N   UNL d   1      -0.432  -1.189   0.000  0.00  0.00    -0.121 NA
ATOM      5  C   UNL d   1      -0.407  -0.389   0.000  0.00  0.00     0.205 A 
ENDROOT
BRANCH   5   6
ATOM      6  C   UNL d   1       0.281   0.060   0.000  0.00  0.00     0.046 C 
BRANCH   6   7
ATOM      7  C   UNL d   1       1.008  -0.311   0.000  0.00  0.00     0.004 C 
BRANCH   7   8
ATOM      8  C   UNL d   1       1.706   0.133   0.000  0.00  0.00     0.000 A 
ATOM      9  C   UNL d   1       1.675   0.975   0.000  0.00  0.00     0.002 A 
ATOM     10  C   UNL d   1       2.376   1.419   0.000  0.00  0.00     0.030 A 
ATOM     11  C   UNL d   1       3.100   1.029   0.000  0.00  0.00     0.140 A 
ATOM     12  C   UNL d   1       3.136   0.187   0.000  0.00  0.00     0.030 A 
ATOM     13  F   UNL d   1       3.804   1.473   0.000  0.00  0.00    -0.204 F 
ATOM     14  C   UNL d   1       2.436  -0.238   0.000  0.00  0.00     0.002 A 
ENDBRANCH   7   8
ENDBRANCH   6   7
ENDBRANCH   5   6
BRANCH   1  15
ATOM     15  C   UNL d   1      -2.524  -0.800   0.000  0.00  0.00     0.072 A 
ATOM     16  S   UNL d   1      -3.022  -1.461   0.000  0.00  0.00    -0.083 SA
ATOM     17  C   UNL d   1      -3.804  -1.195   0.000  0.00  0.00     0.035 A 
ATOM     18  C   UNL d   1      -3.792  -0.371   0.000  0.00  0.00     0.008 A 
ATOM     19  C   UNL d   1      -2.995  -0.127   0.000  0.00  0.00     0.011 A 
ENDBRANCH   1  15
TORSDOF 4
