REMARK  9 active torsions:
REMARK  status: ('A' for Active; 'I' for Inactive)
REMARK    1  A    between atoms: P_3  and  C_1 
REMARK    2  A    between atoms: O_13  and  P_3 
REMARK    3  A    between atoms: O_14  and  P_3 
REMARK    4  A    between atoms: N_8  and  C_4 
REMARK    5  A    between atoms: C_15  and  N_8 
REMARK    6  A    between atoms: C_25  and  O_13 
REMARK    7  A    between atoms: C_26  and  O_14 
REMARK    8  A    between atoms: O_23  and  C_16 
REMARK    9  A    between atoms: O_24  and  C_17 
ROOT
ATOM      1  C   UNL d   1       2.577  -1.798   0.000  0.00  0.00     0.174 A 
ATOM      2  C   UNL d   1       2.577  -0.966   0.000  0.00  0.00     0.100 A 
ATOM      3  C   UNL d   1       1.861  -0.554   0.000  0.00  0.00     0.095 A 
ATOM      4  N   UNL d   1       1.861  -2.210   0.000  0.00  0.00    -0.237 NA
ATOM      5  C   UNL d   1       1.149  -0.966   0.000  0.00  0.00     0.038 A 
ATOM      6  C   UNL d   1       1.149  -1.798   0.000  0.00  0.00     0.083 A 
ATOM      7  C   UNL d   1       0.441  -0.554   0.000  0.00  0.00     0.027 A 
ATOM      8 CL   UNL d   1       3.297  -0.554   0.000  0.00  0.00    -0.079 Cl
ATOM      9  C   UNL d   1       0.437  -2.210   0.000  0.00  0.00     0.021 A 
ATOM     10  C   UNL d   1      -0.283  -0.966   0.000  0.00  0.00     0.094 A 
ATOM     11  C   UNL d   1      -0.275  -1.798   0.000  0.00  0.00     0.026 A 
ENDROOT
BRANCH   3  12
ATOM     12  N   UNL d   1       1.861   0.275   0.000  0.00  0.00    -0.245 NA
BRANCH  12  13
ATOM     13  C   UNL d   1       2.577   0.695   0.000  0.00  0.00     0.082 A 
ATOM     14  C   UNL d   1       3.289   0.283   0.000  0.00  0.00     0.021 A 
ATOM     15  C   UNL d   1       4.013   0.695   0.000  0.00  0.00     0.026 A 
ATOM     16  C   UNL d   1       4.009   1.524   0.000  0.00  0.00     0.094 A 
ATOM     17  C   UNL d   1       3.284   1.936   0.000  0.00  0.00     0.026 A 
ATOM     18  C   UNL d   1       2.573   1.519   0.000  0.00  0.00     0.021 A 
BRANCH  16  19
ATOM     19  O   UNL d   1       4.725   1.936   0.000  0.00  0.00    -0.328 OA
ATOM     20  C   UNL d   1       4.721   2.768   0.000  0.00  0.00     0.181 C 
ENDBRANCH  16  19
ENDBRANCH  12  13
ENDBRANCH   3  12
BRANCH   1  21
ATOM     21  P   UNL d   1       3.297  -2.215   0.000  0.00  0.00     0.393 P 
ATOM     22  O   UNL d   1       2.877  -2.926   0.000  0.00  0.00    -0.251 OA
BRANCH  21  23
ATOM     23  O   UNL d   1       4.026  -2.602   0.000  0.00  0.00    -0.263 OA
BRANCH  23  24
ATOM     24  C   UNL d   1       4.059  -3.426   0.000  0.00  0.00     0.126 C 
ATOM     25  C   UNL d   1       4.787  -3.813   0.000  0.00  0.00     0.029 C 
ENDBRANCH  23  24
ENDBRANCH  21  23
BRANCH  21  26
ATOM     26  O   UNL d   1       3.884  -1.623   0.000  0.00  0.00    -0.263 OA
BRANCH  26  27
ATOM     27  C   UNL d   1       4.683  -1.827   0.000  0.00  0.00     0.126 C 
ATOM     28  C   UNL d   1       5.262  -1.240   0.000  0.00  0.00     0.029 C 
ENDBRANCH  26  27
ENDBRANCH  21  26
ENDBRANCH   1  21
BRANCH  10  29
ATOM     29  O   UNL d   1      -0.995  -0.554   0.000  0.00  0.00    -0.328 OA
ATOM     30  C   UNL d   1      -1.707  -0.966   0.000  0.00  0.00     0.181 C 
ENDBRANCH  10  29
TORSDOF 9
