REMARK  5 active torsions:
REMARK  status: ('A' for Active; 'I' for Inactive)
REMARK    1  A    between atoms: N_7  and  C_1 
REMARK    2  A    between atoms: C_14  and  N_4 
REMARK    3  A    between atoms: S_5  and  N_8 
REMARK    4  A    between atoms: C_13  and  S_5 
REMARK       I    between atoms: C_9  and  N_7 
REMARK    5  A    between atoms: C_15  and  C_9 
ROOT
ATOM      1  N   UNL d   1       5.032  -1.353   0.000  0.00  0.00    -0.202 NA
ATOM      2  C   UNL d   1       4.308  -1.765   0.000  0.00  0.00     0.279 C 
ATOM      3  O   UNL d   1       3.588  -1.349   0.000  0.00  0.00    -0.265 OA
ENDROOT
BRANCH   2   4
ATOM      4  C   UNL d   1       4.299  -2.589   0.000  0.00  0.00     0.061 A 
ATOM      5  C   UNL d   1       3.588  -3.009   0.000  0.00  0.00     0.025 A 
ATOM      6  C   UNL d   1       3.588  -3.833   0.000  0.00  0.00     0.092 A 
ATOM      7  N   UNL d   1       4.299  -4.245   0.000  0.00  0.00    -0.229 N 
ATOM      8  C   UNL d   1       5.024  -3.833   0.000  0.00  0.00     0.092 A 
ATOM      9  C   UNL d   1       5.024  -3.013   0.000  0.00  0.00     0.025 A 
BRANCH   7  10
ATOM     10  S   UNL d   1       4.295  -5.082   0.000  0.00  0.00     0.271 S 
ATOM     11  O   UNL d   1       5.123  -5.086   0.000  0.00  0.00    -0.200 OA
ATOM     12  O   UNL d   1       3.463  -5.061   0.000  0.00  0.00    -0.200 OA
BRANCH  10  13
ATOM     13  C   UNL d   1       4.283  -5.906   0.000  0.00  0.00     0.104 A 
ATOM     14  C   UNL d   1       3.563  -6.310   0.000  0.00  0.00     0.013 A 
ATOM     15  C   UNL d   1       3.550  -7.134   0.000  0.00  0.00     0.001 A 
ATOM     16  C   UNL d   1       4.262  -7.558   0.000  0.00  0.00     0.000 A 
ATOM     17  C   UNL d   1       4.986  -7.154   0.000  0.00  0.00     0.001 A 
ATOM     18  C   UNL d   1       4.994  -6.322   0.000  0.00  0.00     0.013 A 
ENDBRANCH  10  13
ENDBRANCH   7  10
ENDBRANCH   2   4
BRANCH   1  19
ATOM     19  C   UNL d   1       5.036  -0.529   0.000  0.00  0.00     0.160 A 
ATOM     20  C   UNL d   1       5.706  -0.050   0.000  0.00  0.00     0.298 A 
ATOM     21  N   UNL d   1       5.456   0.733   0.000  0.00  0.00    -0.209 N 
ATOM     22  O   UNL d   1       6.484  -0.312   0.000  0.00  0.00    -0.263 OA
ATOM     23  N   UNL d   1       4.636   0.737   0.000  0.00  0.00    -0.238 N 
ATOM     24  C   UNL d   1       4.374  -0.042   0.000  0.00  0.00     0.104 A 
ATOM     25  C   UNL d   1       4.158   1.407   0.000  0.00  0.00     0.120 C 
ATOM     26  C   UNL d   1       3.588  -0.291   0.000  0.00  0.00     0.022 C 
BRANCH  21  27
ATOM     27  C   UNL d   1       5.948   1.394   0.000  0.00  0.00     0.085 A 
ATOM     28  C   UNL d   1       5.610   2.143   0.000  0.00  0.00     0.019 A 
ATOM     29  C   UNL d   1       6.097   2.809   0.000  0.00  0.00     0.002 A 
ATOM     30  C   UNL d   1       6.921   2.718   0.000  0.00  0.00     0.000 A 
ATOM     31  C   UNL d   1       7.254   1.960   0.000  0.00  0.00     0.002 A 
ATOM     32  C   UNL d   1       6.767   1.299   0.000  0.00  0.00     0.019 A 
ENDBRANCH  21  27
ENDBRANCH   1  19
TORSDOF 5
