REMARK  9 active torsions:
REMARK  status: ('A' for Active; 'I' for Inactive)
REMARK    1  A    between atoms: N_2  and  S_1 
REMARK    2  A    between atoms: C_9  and  S_1 
REMARK    3  A    between atoms: C_4  and  N_2 
REMARK    4  A    between atoms: O_24  and  C_6 
REMARK    5  A    between atoms: O_26  and  C_7 
REMARK       I    between atoms: C_12  and  N_15 
REMARK    6  A    between atoms: C_22  and  C_12 
REMARK    7  A    between atoms: C_14  and  O_16 
REMARK    8  A    between atoms: N_15  and  C_23 
REMARK    9  A    between atoms: O_16  and  C_22 
ROOT
ATOM      1  C   UNL d   1       1.416   1.340   0.000  0.00  0.00     0.105 A 
ATOM      2  C   UNL d   1       1.016   0.625   0.000  0.00  0.00     0.015 A 
ATOM      3  C   UNL d   1       0.992   2.055   0.000  0.00  0.00     0.015 A 
ATOM      4  C   UNL d   1      -0.224   1.316   0.000  0.00  0.00     0.085 A 
ATOM      5  C   UNL d   1       0.191   0.587   0.000  0.00  0.00     0.020 A 
ATOM      6  C   UNL d   1       0.172   2.027   0.000  0.00  0.00     0.020 A 
ENDROOT
BRANCH   1   7
ATOM      7  S   UNL d   1       2.237   1.369   0.000  0.00  0.00     0.287 S 
ATOM      8  O   UNL d   1       2.265   0.515   0.000  0.00  0.00    -0.198 OA
ATOM      9  O   UNL d   1       2.232   2.199   0.000  0.00  0.00    -0.198 OA
BRANCH   7  10
ATOM     10  N   UNL d   1       3.076   1.373   0.000  0.00  0.00    -0.139 NA
BRANCH  10  11
ATOM     11  C   UNL d   1       3.510   0.682   0.000  0.00  0.00     0.182 A 
ATOM     12  N   UNL d   1       4.311   0.701   0.000  0.00  0.00    -0.185 NA
ATOM     13  C   UNL d   1       4.769   0.000   0.000  0.00  0.00     0.274 A 
ATOM     14  N   UNL d   1       4.392  -0.720   0.000  0.00  0.00    -0.181 NA
ATOM     15  C   UNL d   1       3.582  -0.763   0.000  0.00  0.00     0.185 A 
ATOM     16  C   UNL d   1       3.124  -0.033   0.000  0.00  0.00     0.084 A 
BRANCH  13  17
ATOM     17  O   UNL d   1       5.608   0.024   0.000  0.00  0.00    -0.297 OA
ATOM     18  C   UNL d   1       6.009   0.744   0.000  0.00  0.00     0.185 C 
ENDBRANCH  13  17
BRANCH  15  19
ATOM     19  O   UNL d   1       3.224  -1.521   0.000  0.00  0.00    -0.312 OA
ATOM     20  C   UNL d   1       3.720  -2.194   0.000  0.00  0.00     0.183 C 
ENDBRANCH  15  19
ENDBRANCH  10  11
ENDBRANCH   7  10
ENDBRANCH   1   7
BRANCH   4  21
ATOM     21  N   UNL d   1      -1.054   1.316   0.000  0.00  0.00    -0.206 NA
ATOM     22  C   UNL d   1      -1.445   0.572   0.000  0.00  0.00     0.304 C 
ATOM     23  O   UNL d   1      -1.030  -0.100   0.000  0.00  0.00    -0.263 OA
BRANCH  22  24
ATOM     24  C   UNL d   1      -2.270   0.572   0.000  0.00  0.00     0.185 C 
BRANCH  24  25
ATOM     25  O   UNL d   1      -2.690  -0.134   0.000  0.00  0.00    -0.300 OA
BRANCH  25  26
ATOM     26  C   UNL d   1      -3.529  -0.100   0.000  0.00  0.00     0.100 A 
ATOM     27  C   UNL d   1      -3.944   0.610   0.000  0.00  0.00     0.023 A 
ATOM     28  C   UNL d   1      -4.759   0.629   0.000  0.00  0.00     0.002 A 
ATOM     29  C   UNL d   1      -3.529   1.354   0.000  0.00  0.00     0.002 C 
ATOM     30  C   UNL d   1      -5.174  -0.062   0.000  0.00  0.00     0.000 A 
ATOM     31  C   UNL d   1      -4.788  -0.801   0.000  0.00  0.00     0.002 A 
ATOM     32  C   UNL d   1      -6.009  -0.062   0.000  0.00  0.00     0.000 C 
ATOM     33  C   UNL d   1      -3.973  -0.820   0.000  0.00  0.00     0.025 A 
ENDBRANCH  25  26
ENDBRANCH  24  25
ENDBRANCH  22  24
ENDBRANCH   4  21
TORSDOF 9
