REMARK  7 active torsions:
REMARK  status: ('A' for Active; 'I' for Inactive)
REMARK    1  A    between atoms: C_8  and  C_2 
REMARK    2  A    between atoms: C_12  and  N_3 
REMARK    3  A    between atoms: C_6  and  C_4 
REMARK       I    between atoms: C_7  and  N_13 
REMARK    4  A    between atoms: C_9  and  C_7 
REMARK    5  A    between atoms: N_13  and  C_8 
REMARK    6  A    between atoms: C_11  and  C_9 
REMARK    7  A    between atoms: C_10  and  C_11 
ROOT
ATOM      1  N   UNL d   1       2.725  -1.857   0.000  0.00  0.00    -0.165 NA
ATOM      2  C   UNL d   1       3.426  -0.623   0.000  0.00  0.00     0.071 A 
ATOM      3  N   UNL d   1       4.145  -1.857   0.000  0.00  0.00    -0.228 N 
ATOM      4  C   UNL d   1       2.725  -1.035   0.000  0.00  0.00     0.105 A 
ATOM      5  C   UNL d   1       4.145  -1.035   0.000  0.00  0.00     0.105 A 
ENDROOT
BRANCH   2   6
ATOM      6  C   UNL d   1       3.426   0.199   0.000  0.00  0.00     0.168 C 
BRANCH   6   7
ATOM      7  N   UNL d   1       4.145   0.619   0.000  0.00  0.00    -0.362 NA
ATOM      8  C   UNL d   1       4.867   1.046   0.000  0.00  0.00     0.329 C 
ATOM      9  O   UNL d   1       5.596   0.637   0.000  0.00  0.00    -0.251 OA
BRANCH   8  10
ATOM     10  C   UNL d   1       4.860   1.886   0.000  0.00  0.00     0.082 C 
BRANCH  10  11
ATOM     11  C   UNL d   1       5.586   2.312   0.000  0.00  0.00     0.076 C 
BRANCH  11  12
ATOM     12  C   UNL d   1       5.582   3.145   0.000  0.00  0.00     0.211 C 
ATOM     13  O   UNL d   1       4.849   3.547   0.000  0.00  0.00    -0.644 OA
ATOM     14  O   UNL d   1       6.301   3.558   0.000  0.00  0.00    -0.644 OA
ENDBRANCH  11  12
ENDBRANCH  10  11
ENDBRANCH   8  10
ENDBRANCH   6   7
ENDBRANCH   2   6
BRANCH   4  15
ATOM     15  C   UNL d   1       2.000  -0.630   0.000  0.00  0.00     0.020 A 
ATOM     16  C   UNL d   1       1.306  -1.046   0.000  0.00  0.00     0.008 A 
ATOM     17  C   UNL d   1       0.591  -0.644   0.000  0.00  0.00     0.035 A 
ATOM     18 BR   UNL d   1      -0.114  -1.057   0.000  0.00  0.00    -0.049 Br
ATOM     19  C   UNL d   1       0.591   0.189   0.000  0.00  0.00     0.007 A 
ATOM     20  C   UNL d   1       1.295   0.608   0.000  0.00  0.00     0.001 A 
ATOM     21  C   UNL d   1       2.000   0.199   0.000  0.00  0.00     0.002 A 
ENDBRANCH   4  15
BRANCH   3  22
ATOM     22  C   UNL d   1       4.721  -2.437   0.000  0.00  0.00     0.083 A 
ATOM     23  C   UNL d   1       5.511  -2.213   0.000  0.00  0.00     0.019 A 
ATOM     24  C   UNL d   1       6.094  -2.800   0.000  0.00  0.00     0.002 A 
ATOM     25  C   UNL d   1       5.881  -3.597   0.000  0.00  0.00     0.000 A 
ATOM     26  C   UNL d   1       5.084  -3.810   0.000  0.00  0.00     0.002 A 
ATOM     27  C   UNL d   1       4.508  -3.227   0.000  0.00  0.00     0.019 A 
ENDBRANCH   3  22
TORSDOF 7
