REMARK  6 active torsions:
REMARK  status: ('A' for Active; 'I' for Inactive)
REMARK    1  A    between atoms: C_10  and  C_2 
REMARK    2  A    between atoms: C_14  and  N_3 
REMARK    3  A    between atoms: C_15  and  C_4 
REMARK    4  A    between atoms: N_5  and  C_9 
REMARK       I    between atoms: C_7  and  N_8 
REMARK    5  A    between atoms: C_13  and  C_7 
REMARK    6  A    between atoms: N_8  and  C_10 
ROOT
ATOM      1  N   UNL d   1       2.279  -1.870   0.000  0.00  0.00    -0.165 NA
ATOM      2  C   UNL d   1       2.970  -0.613   0.000  0.00  0.00     0.071 A 
ATOM      3  N   UNL d   1       3.676  -1.870   0.000  0.00  0.00    -0.228 N 
ATOM      4  C   UNL d   1       2.279  -1.036   0.000  0.00  0.00     0.105 A 
ATOM      5  C   UNL d   1       3.676  -1.036   0.000  0.00  0.00     0.105 A 
ENDROOT
BRANCH   2   6
ATOM      6  C   UNL d   1       2.970   0.233   0.000  0.00  0.00     0.168 C 
BRANCH   6   7
ATOM      7  N   UNL d   1       3.676   0.663   0.000  0.00  0.00    -0.362 NA
ATOM      8  C   UNL d   1       4.379   1.086   0.000  0.00  0.00     0.328 C 
ATOM      9  O   UNL d   1       5.106   0.695   0.000  0.00  0.00    -0.251 OA
BRANCH   8  10
ATOM     10  C   UNL d   1       4.357   1.910   0.000  0.00  0.00     0.070 A 
ATOM     11  C   UNL d   1       5.063   2.340   0.000  0.00  0.00     0.008 A 
ATOM     12  C   UNL d   1       5.045   3.171   0.000  0.00  0.00     0.024 A 
ATOM     13  C   UNL d   1       4.325   3.562   0.000  0.00  0.00     0.127 A 
ATOM     14  C   UNL d   1       3.615   3.139   0.000  0.00  0.00     0.024 A 
ATOM     15  C   UNL d   1       3.637   2.300   0.000  0.00  0.00     0.008 A 
BRANCH  13  16
ATOM     16  N   UNL d   1       4.303   4.389   0.000  0.00  0.00    -0.114 N 
ATOM     17  O   UNL d   1       5.013   4.809   0.000  0.00  0.00    -0.532 OA
ATOM     18  O   UNL d   1       3.583   4.787   0.000  0.00  0.00    -0.532 OA
ENDBRANCH  13  16
ENDBRANCH   8  10
ENDBRANCH   6   7
ENDBRANCH   2   6
BRANCH   4  19
ATOM     19  C   UNL d   1       1.562  -0.613   0.000  0.00  0.00     0.019 A 
ATOM     20  C   UNL d   1       0.864  -1.046   0.000  0.00  0.00     0.002 A 
ATOM     21  C   UNL d   1       0.150  -0.634   0.000  0.00  0.00     0.000 A 
ATOM     22  C   UNL d   1       0.150   0.215   0.000  0.00  0.00     0.000 A 
ATOM     23  C   UNL d   1       0.853   0.631   0.000  0.00  0.00     0.000 A 
ATOM     24  C   UNL d   1       1.562   0.233   0.000  0.00  0.00     0.002 A 
ENDBRANCH   4  19
BRANCH   3  25
ATOM     25  C   UNL d   1       4.261  -2.462   0.000  0.00  0.00     0.083 A 
ATOM     26  C   UNL d   1       4.045  -3.279   0.000  0.00  0.00     0.019 A 
ATOM     27  C   UNL d   1       4.622  -3.870   0.000  0.00  0.00     0.002 A 
ATOM     28  C   UNL d   1       5.411  -3.648   0.000  0.00  0.00     0.000 A 
ATOM     29  C   UNL d   1       5.615  -2.831   0.000  0.00  0.00     0.002 A 
ATOM     30  C   UNL d   1       5.042  -2.240   0.000  0.00  0.00     0.019 A 
ENDBRANCH   3  25
TORSDOF 6
