REMARK  0 active torsions:
REMARK  status: ('A' for Active; 'I' for Inactive)
ROOT
ATOM      1  C   UNL d   1       1.512  -2.329   0.000  0.00  0.00     0.282 A 
ATOM      2  N   UNL d   1       2.229  -1.917   0.000  0.00  0.00    -0.189 NA
ATOM      3  N   UNL d   1       1.512  -0.679   0.000  0.00  0.00    -0.227 NA
ATOM      4  C   UNL d   1       0.800  -1.917   0.000  0.00  0.00     0.076 A 
ATOM      5  C   UNL d   1       2.229  -1.092   0.000  0.00  0.00     0.166 A 
ATOM      6  C   UNL d   1       0.800  -1.092   0.000  0.00  0.00     0.088 A 
ATOM      7  O   UNL d   1       1.512  -3.154   0.000  0.00  0.00    -0.265 OA
ATOM      8  C   UNL d   1       0.087  -2.329   0.000  0.00  0.00     0.006 A 
ATOM      9  C   UNL d   1       2.950  -0.679   0.000  0.00  0.00     0.042 C 
ATOM     10  C   UNL d   1       0.087  -0.679   0.000  0.00  0.00     0.019 A 
ATOM     11  C   UNL d   1      -0.633  -1.917   0.000  0.00  0.00     0.000 A 
ATOM     12  C   UNL d   1      -0.633  -1.092   0.000  0.00  0.00     0.002 A 
ENDROOT
TORSDOF 0
