REMARK  5 active torsions:
REMARK  status: ('A' for Active; 'I' for Inactive)
REMARK    1  A    between atoms: C_2  and  S_1 
REMARK    2  A    between atoms: N_3  and  S_1 
REMARK    3  A    between atoms: C_5  and  N_3 
REMARK    4  A    between atoms: C_14  and  C_9 
REMARK    5  A    between atoms: O_18  and  C_10 
ROOT
ATOM      1  C   UNL d   1       3.516  -1.079   0.000  0.00  0.00     0.128 A 
ATOM      2  C   UNL d   1       3.925  -1.800   0.000  0.00  0.00     0.015 A 
ATOM      3  C   UNL d   1       4.750  -1.804   0.000  0.00  0.00     0.001 A 
ATOM      4  C   UNL d   1       3.941  -0.367   0.000  0.00  0.00     0.106 A 
ATOM      5  C   UNL d   1       5.166  -1.100   0.000  0.00  0.00     0.002 A 
ATOM      6  C   UNL d   1       4.766  -0.379   0.000  0.00  0.00     0.025 A 
ENDROOT
BRANCH   1   7
ATOM      7  S   UNL d   1       2.691  -1.067   0.000  0.00  0.00     0.288 S 
ATOM      8  O   UNL d   1       2.704  -0.242   0.000  0.00  0.00    -0.198 OA
ATOM      9  O   UNL d   1       2.687  -1.891   0.000  0.00  0.00    -0.198 OA
BRANCH   7  10
ATOM     10  N   UNL d   1       1.867  -1.062   0.000  0.00  0.00    -0.139 NA
BRANCH  10  11
ATOM     11  C   UNL d   1       1.466  -0.342   0.000  0.00  0.00     0.175 A 
ATOM     12  N   UNL d   1       0.642  -0.329   0.000  0.00  0.00    -0.224 NA
ATOM     13  C   UNL d   1       0.237   0.383   0.000  0.00  0.00     0.112 A 
ATOM     14  C   UNL d   1       0.654   1.096   0.000  0.00  0.00     0.077 A 
ATOM     15  C   UNL d   1       1.479   1.083   0.000  0.00  0.00     0.016 A 
ATOM     16 CL   UNL d   1       0.254   1.812   0.000  0.00  0.00    -0.081 Cl
ATOM     17  C   UNL d   1       1.887   0.371   0.000  0.00  0.00     0.041 A 
ENDBRANCH  10  11
ENDBRANCH   7  10
ENDBRANCH   1   7
BRANCH   4  18
ATOM     18  O   UNL d   1       3.537   0.346   0.000  0.00  0.00    -0.327 OA
ATOM     19  C   UNL d   1       3.954   1.058   0.000  0.00  0.00     0.181 C 
ENDBRANCH   4  18
BRANCH   3  20
ATOM     20  C   UNL d   1       5.154  -2.529   0.000  0.00  0.00     0.000 C 
ATOM     21  C   UNL d   1       4.737  -3.237   0.000  0.00  0.00     0.000 C 
ATOM     22  C   UNL d   1       5.979  -2.537   0.000  0.00  0.00     0.000 C 
ENDBRANCH   3  20
TORSDOF 5
