REMARK  5 active torsions:
REMARK  status: ('A' for Active; 'I' for Inactive)
REMARK    1  A    between atoms: C_5  and  C_1 
REMARK    2  A    between atoms: O_8  and  C_5 
REMARK    3  A    between atoms: C_15  and  O_8 
REMARK       I    between atoms: C_9  and  N_11 
REMARK    4  A    between atoms: N_11  and  C_16 
REMARK    5  A    between atoms: O_21  and  C_13 
ROOT
ATOM      1  C   UNL d   1       2.568  -0.280   0.000  0.00  0.00     0.127 A 
ATOM      2  C   UNL d   1       2.568  -1.107   0.000  0.00  0.00     0.305 A 
ATOM      3  O   UNL d   1       1.845  -1.520   0.000  0.00  0.00    -0.271 OA
ATOM      4  C   UNL d   1       1.854   0.134   0.000  0.00  0.00     0.013 A 
ATOM      5  C   UNL d   1       1.131  -1.107   0.000  0.00  0.00     0.125 A 
ATOM      6  C   UNL d   1       1.140  -0.280   0.000  0.00  0.00     0.025 A 
ATOM      7  O   UNL d   1       3.273  -1.528   0.000  0.00  0.00    -0.259 OA
ATOM      8  C   UNL d   1       0.426  -1.516   0.000  0.00  0.00     0.117 A 
ATOM      9  C   UNL d   1       0.426   0.138   0.000  0.00  0.00     0.002 A 
ATOM     10  C   UNL d   1      -0.284  -0.280   0.000  0.00  0.00     0.002 A 
ATOM     11  C   UNL d   1      -0.284  -1.107   0.000  0.00  0.00     0.026 A 
ENDROOT
BRANCH   1  12
ATOM     12  C   UNL d   1       3.286   0.125   0.000  0.00  0.00     0.305 C 
ATOM     13  O   UNL d   1       3.286   0.952   0.000  0.00  0.00    -0.259 OA
BRANCH  12  14
ATOM     14  O   UNL d   1       4.000  -0.292   0.000  0.00  0.00    -0.273 OA
BRANCH  14  15
ATOM     15  C   UNL d   1       4.827  -0.292   0.000  0.00  0.00     0.103 A 
ATOM     16  C   UNL d   1       5.228   0.422   0.000  0.00  0.00     0.026 A 
ATOM     17  C   UNL d   1       6.054   0.426   0.000  0.00  0.00     0.021 A 
ATOM     18  C   UNL d   1       6.468  -0.292   0.000  0.00  0.00     0.085 A 
ATOM     19  C   UNL d   1       6.054  -1.002   0.000  0.00  0.00     0.021 A 
ATOM     20  C   UNL d   1       5.236  -1.006   0.000  0.00  0.00     0.026 A 
BRANCH  18  21
ATOM     21  N   UNL d   1       7.294  -0.288   0.000  0.00  0.00    -0.208 NA
ATOM     22  C   UNL d   1       7.708  -1.002   0.000  0.00  0.00     0.279 C 
ATOM     23  O   UNL d   1       7.294  -1.720   0.000  0.00  0.00    -0.265 OA
ATOM     24  C   UNL d   1       8.534  -1.002   0.000  0.00  0.00     0.068 C 
ENDBRANCH  18  21
ENDBRANCH  14  15
ENDBRANCH  12  14
ENDBRANCH   1  12
BRANCH   8  25
ATOM     25  O   UNL d   1       0.430  -2.334   0.000  0.00  0.00    -0.326 OA
ATOM     26  C   UNL d   1       1.144  -2.747   0.000  0.00  0.00     0.181 C 
ENDBRANCH   8  25
TORSDOF 5
