REMARK  6 active torsions:
REMARK  status: ('A' for Active; 'I' for Inactive)
REMARK    1  A    between atoms: C_2  and  S_1 
REMARK    2  A    between atoms: N_5  and  S_1 
REMARK    3  A    between atoms: O_14  and  C_4 
REMARK    4  A    between atoms: C_11  and  N_5 
REMARK    5  A    between atoms: C_15  and  C_11 
REMARK    6  A    between atoms: C_18  and  O_14 
ROOT
ATOM      1  C   UNL d   1       3.842  -0.317   0.000  0.00  0.00     0.129 A 
ATOM      2  C   UNL d   1       4.254  -1.029   0.000  0.00  0.00     0.026 A 
ATOM      3  C   UNL d   1       4.254   0.396   0.000  0.00  0.00     0.112 A 
ATOM      4  C   UNL d   1       5.079  -1.029   0.000  0.00  0.00     0.059 A 
ATOM      5  C   UNL d   1       5.079   0.396   0.000  0.00  0.00     0.026 A 
ATOM      6  C   UNL d   1       5.492  -0.317   0.000  0.00  0.00     0.013 A 
ATOM      7 CL   UNL d   1       5.492  -1.742   0.000  0.00  0.00    -0.082 Cl
ATOM      8  C   UNL d   1       6.317  -0.317   0.000  0.00  0.00     0.001 C 
ENDROOT
BRANCH   1   9
ATOM      9  S   UNL d   1       3.017  -0.317   0.000  0.00  0.00     0.287 S 
ATOM     10  O   UNL d   1       3.017  -1.142   0.000  0.00  0.00    -0.198 OA
ATOM     11  O   UNL d   1       3.017   0.508   0.000  0.00  0.00    -0.198 OA
BRANCH   9  12
ATOM     12  N   UNL d   1       2.192  -0.317   0.000  0.00  0.00    -0.155 NA
BRANCH  12  13
ATOM     13  C   UNL d   1       1.779   0.396   0.000  0.00  0.00     0.137 C 
BRANCH  13  14
ATOM     14  C   UNL d   1       0.954   0.396   0.000  0.00  0.00     0.120 A 
ATOM     15  O   UNL d   1       0.475   1.062   0.000  0.00  0.00    -0.304 OA
ATOM     16  C   UNL d   1      -0.308   0.808   0.000  0.00  0.00     0.123 A 
ATOM     17  C   UNL d   1      -0.312  -0.017   0.000  0.00  0.00     0.029 A 
ATOM     18  C   UNL d   1       0.475  -0.267   0.000  0.00  0.00     0.028 A 
ENDBRANCH  13  14
ENDBRANCH  12  13
ENDBRANCH   9  12
ENDBRANCH   1   9
BRANCH   3  19
ATOM     19  O   UNL d   1       3.842   1.113   0.000  0.00  0.00    -0.304 OA
BRANCH  19  20
ATOM     20  C   UNL d   1       4.254   1.825   0.000  0.00  0.00     0.123 C 
ATOM     21  C   UNL d   1       3.842   2.546   0.000  0.00  0.00     0.029 C 
ENDBRANCH  19  20
ENDBRANCH   3  19
TORSDOF 6
