REMARK  6 active torsions:
REMARK  status: ('A' for Active; 'I' for Inactive)
REMARK    1  A    between atoms: C_3  and  C_2 
REMARK    2  A    between atoms: O_5  and  C_3 
REMARK    3  A    between atoms: C_9  and  O_5 
REMARK    4  A    between atoms: C_6  and  C_9 
REMARK    5  A    between atoms: C_7  and  C_6 
REMARK    6  A    between atoms: O_19  and  C_16 
ROOT
ATOM      1  C   UNL d   1       2.579  -4.404   0.000  0.00  0.00     0.318 C 
ATOM      2  O   UNL d   1       2.579  -5.229   0.000  0.00  0.00    -0.257 OA
ENDROOT
BRANCH   1   3
ATOM      3  C   UNL d   1       1.867  -3.987   0.000  0.00  0.00     0.145 A 
ATOM      4  N   UNL d   1       1.142  -4.404   0.000  0.00  0.00    -0.240 NA
ATOM      5  C   UNL d   1       0.429  -3.992   0.000  0.00  0.00     0.082 A 
ATOM      6  C   UNL d   1       0.429  -3.154   0.000  0.00  0.00     0.018 A 
ATOM      7  C   UNL d   1      -0.283  -4.400   0.000  0.00  0.00     0.019 A 
ATOM      8  C   UNL d   1       1.150  -2.737   0.000  0.00  0.00     0.003 A 
ATOM      9  C   UNL d   1      -0.283  -2.742   0.000  0.00  0.00     0.002 A 
ATOM     10  C   UNL d   1       1.867  -3.154   0.000  0.00  0.00     0.025 A 
ATOM     11  C   UNL d   1      -0.996  -3.163   0.000  0.00  0.00     0.000 A 
ATOM     12  C   UNL d   1      -0.996  -3.987   0.000  0.00  0.00     0.002 A 
ENDBRANCH   1   3
BRANCH   1  13
ATOM     13  O   UNL d   1       3.300  -3.992   0.000  0.00  0.00    -0.266 OA
BRANCH  13  14
ATOM     14  C   UNL d   1       4.013  -4.404   0.000  0.00  0.00     0.168 C 
BRANCH  14  15
ATOM     15  C   UNL d   1       4.729  -4.000   0.000  0.00  0.00     0.220 C 
ATOM     16  O   UNL d   1       4.729  -3.175   0.000  0.00  0.00    -0.284 OA
BRANCH  15  17
ATOM     17  C   UNL d   1       5.442  -4.417   0.000  0.00  0.00     0.041 A 
ATOM     18  C   UNL d   1       5.429  -5.242   0.000  0.00  0.00     0.005 A 
ATOM     19  C   UNL d   1       6.142  -5.654   0.000  0.00  0.00     0.024 A 
ATOM     20  C   UNL d   1       6.862  -5.242   0.000  0.00  0.00     0.094 A 
ATOM     21  C   UNL d   1       6.862  -4.417   0.000  0.00  0.00     0.024 A 
ATOM     22  C   UNL d   1       6.150  -4.004   0.000  0.00  0.00     0.005 A 
BRANCH  20  23
ATOM     23  O   UNL d   1       7.567  -5.654   0.000  0.00  0.00    -0.328 OA
ATOM     24  C   UNL d   1       8.287  -5.242   0.000  0.00  0.00     0.181 C 
ENDBRANCH  20  23
ENDBRANCH  15  17
ENDBRANCH  14  15
ENDBRANCH  13  14
ENDBRANCH   1  13
TORSDOF 6
