REMARK  8 active torsions:
REMARK  status: ('A' for Active; 'I' for Inactive)
REMARK    1  A    between atoms: N_10  and  C_4 
REMARK    2  A    between atoms: C_17  and  N_5 
REMARK    3  A    between atoms: C_16  and  N_10 
REMARK    4  A    between atoms: C_11  and  S_19 
REMARK    5  A    between atoms: C_20  and  C_16 
REMARK    6  A    between atoms: C_21  and  C_17 
REMARK    7  A    between atoms: S_19  and  C_26 
REMARK    8  A    between atoms: C_26  and  C_21 
ROOT
ATOM      1  C   UNL d   1       3.792  -5.817   0.000  0.00  0.00     0.191 A 
ATOM      2  C   UNL d   1       3.792  -4.992   0.000  0.00  0.00     0.174 A 
ATOM      3  N   UNL d   1       4.579  -6.079   0.000  0.00  0.00    -0.042 NA
ATOM      4  C   UNL d   1       5.054  -5.392   0.000  0.00  0.00     0.722 A 
ATOM      5  N   UNL d   1       4.642  -4.679   0.000  0.00  0.00    -0.132 N 
ATOM      6  N   UNL d   1       3.079  -6.229   0.000  0.00  0.00    -0.239 N 
ATOM      7  C   UNL d   1       2.337  -5.817   0.000  0.00  0.00     0.358 A 
ATOM      8  N   UNL d   1       2.337  -4.992   0.000  0.00  0.00    -0.152 NA
ATOM      9  C   UNL d   1       3.079  -4.579   0.000  0.00  0.00     0.303 A 
ATOM     10  O   UNL d   1       1.604  -6.229   0.000  0.00  0.00    -0.244 OA
ATOM     11  O   UNL d   1       3.079  -3.754   0.000  0.00  0.00    -0.263 OA
ATOM     12  C   UNL d   1       3.079  -7.054   0.000  0.00  0.00     0.105 C 
ENDROOT
BRANCH   5  13
ATOM     13  C   UNL d   1       4.629  -3.862   0.000  0.00  0.00     0.099 C 
BRANCH  13  14
ATOM     14  C   UNL d   1       5.342  -3.454   0.000  0.00  0.00     0.027 C 
BRANCH  14  15
ATOM     15  C   UNL d   1       5.342  -2.638   0.000  0.00  0.00     0.040 C 
BRANCH  15  16
ATOM     16  S   UNL d   1       6.062  -2.229   0.000  0.00  0.00    -0.048 SA
BRANCH  16  17
ATOM     17  C   UNL d   1       6.062  -1.404   0.000  0.00  0.00     0.194 A 
ATOM     18  N   UNL d   1       6.775  -0.992   0.000  0.00  0.00    -0.220 NA
ATOM     19  C   UNL d   1       6.767  -0.179   0.000  0.00  0.00     0.103 A 
ATOM     20  C   UNL d   1       6.050   0.233   0.000  0.00  0.00     0.041 A 
ATOM     21  C   UNL d   1       5.329  -0.179   0.000  0.00  0.00     0.103 A 
ATOM     22  N   UNL d   1       5.342  -1.004   0.000  0.00  0.00    -0.220 NA
ENDBRANCH  16  17
ENDBRANCH  15  16
ENDBRANCH  14  15
ENDBRANCH  13  14
ENDBRANCH   5  13
BRANCH   4  23
ATOM     23  N   UNL d   1       5.879  -5.392   0.000  0.00  0.00    -0.137 N 
ATOM     24  C   UNL d   1       6.292  -4.688   0.000  0.00  0.00     0.118 C 
BRANCH  23  25
ATOM     25  C   UNL d   1       6.292  -6.104   0.000  0.00  0.00     0.098 C 
BRANCH  25  26
ATOM     26  C   UNL d   1       7.117  -6.104   0.000  0.00  0.00     0.018 A 
ATOM     27  C   UNL d   1       7.529  -6.825   0.000  0.00  0.00     0.002 A 
ATOM     28  C   UNL d   1       8.350  -6.829   0.000  0.00  0.00     0.000 A 
ATOM     29  C   UNL d   1       8.767  -6.112   0.000  0.00  0.00     0.000 A 
ATOM     30  C   UNL d   1       8.350  -5.392   0.000  0.00  0.00     0.000 A 
ATOM     31  C   UNL d   1       7.529  -5.392   0.000  0.00  0.00     0.002 A 
ENDBRANCH  25  26
ENDBRANCH  23  25
ENDBRANCH   4  23
TORSDOF 8
