REMARK  3 active torsions:
REMARK  status: ('A' for Active; 'I' for Inactive)
REMARK    1  A    between atoms: C_8  and  C_6 
REMARK    2  A    between atoms: C_9  and  C_8 
REMARK       I    between atoms: N_10  and  C_9 
REMARK    3  A    between atoms: C_14  and  N_10 
ROOT
ATOM      1  N   UNL d   1       0.374   0.846   0.000  0.00  0.00    -0.207 NA
ATOM      2  N   UNL d   1       0.419  -0.830   0.000  0.00  0.00    -0.240 NA
ATOM      3  C   UNL d   1       0.990   0.316   0.000  0.00  0.00     0.297 A 
ATOM      4  C   UNL d   1      -0.439   0.711   0.000  0.00  0.00     0.086 A 
ATOM      5  C   UNL d   1      -0.394  -0.727   0.000  0.00  0.00     0.083 A 
ATOM      6  C   UNL d   1       1.002  -0.251   0.000  0.00  0.00     0.144 A 
ATOM      7  C   UNL d   1      -0.834  -0.025   0.000  0.00  0.00     0.035 A 
ATOM      8  O   UNL d   1       1.741   0.649   0.000  0.00  0.00    -0.264 OA
ATOM      9  C   UNL d   1      -1.659  -0.041   0.000  0.00  0.00     0.003 A 
ATOM     10  C   UNL d   1      -0.784  -1.454   0.000  0.00  0.00     0.019 A 
ATOM     11  C   UNL d   1      -0.875   1.413   0.000  0.00  0.00     0.019 A 
ATOM     12  C   UNL d   1      -1.700   1.388   0.000  0.00  0.00     0.002 A 
ATOM     13  C   UNL d   1      -1.622  -1.478   0.000  0.00  0.00     0.002 A 
ATOM     14  C   UNL d   1      -2.090   0.661   0.000  0.00  0.00     0.000 A 
ATOM     15  C   UNL d   1      -2.053  -0.776   0.000  0.00  0.00     0.000 A 
ENDROOT
BRANCH   6  16
ATOM     16  C   UNL d   1       1.766  -0.559   0.000  0.00  0.00     0.086 C 
BRANCH  16  17
ATOM     17  C   UNL d   1       1.873  -1.384   0.000  0.00  0.00     0.281 C 
ATOM     18  N   UNL d   1       2.637  -1.700   0.000  0.00  0.00    -0.208 NA
ATOM     19  O   UNL d   1       1.220  -1.889   0.000  0.00  0.00    -0.265 OA
BRANCH  18  20
ATOM     20  C   UNL d   1       3.294  -1.199   0.000  0.00  0.00     0.085 A 
ATOM     21  C   UNL d   1       4.054  -1.516   0.000  0.00  0.00     0.019 A 
ATOM     22  C   UNL d   1       4.707  -1.014   0.000  0.00  0.00     0.002 A 
ATOM     23  C   UNL d   1       4.600  -0.197   0.000  0.00  0.00     0.000 A 
ATOM     24  C   UNL d   1       3.832   0.119   0.000  0.00  0.00     0.002 A 
ATOM     25  C   UNL d   1       5.240   0.296   0.000  0.00  0.00     0.000 C 
ATOM     26  C   UNL d   1       3.183  -0.386   0.000  0.00  0.00     0.019 A 
ENDBRANCH  18  20
ENDBRANCH  16  17
ENDBRANCH   6  16
TORSDOF 3
