REMARK  3 active torsions:
REMARK  status: ('A' for Active; 'I' for Inactive)
REMARK    1  A    between atoms: C_8  and  C_6 
REMARK    2  A    between atoms: C_9  and  C_8 
REMARK       I    between atoms: N_10  and  C_9 
REMARK    3  A    between atoms: C_13  and  N_10 
ROOT
ATOM      1  N   UNL d   1       1.067  -0.103   0.000  0.00  0.00    -0.207 NA
ATOM      2  N   UNL d   1       1.105  -1.780   0.000  0.00  0.00    -0.240 NA
ATOM      3  C   UNL d   1       1.682  -0.643   0.000  0.00  0.00     0.297 A 
ATOM      4  C   UNL d   1       0.251  -0.247   0.000  0.00  0.00     0.086 A 
ATOM      5  C   UNL d   1       0.297  -1.673   0.000  0.00  0.00     0.083 A 
ATOM      6  C   UNL d   1       1.686  -1.204   0.000  0.00  0.00     0.144 A 
ATOM      7  C   UNL d   1      -0.144  -0.977   0.000  0.00  0.00     0.035 A 
ATOM      8  O   UNL d   1       2.428  -0.301   0.000  0.00  0.00    -0.264 OA
ATOM      9  C   UNL d   1      -0.964  -0.993   0.000  0.00  0.00     0.003 A 
ATOM     10  C   UNL d   1      -0.185   0.458   0.000  0.00  0.00     0.019 A 
ATOM     11  C   UNL d   1      -0.095  -2.403   0.000  0.00  0.00     0.019 A 
ATOM     12  C   UNL d   1      -0.927  -2.428   0.000  0.00  0.00     0.002 A 
ATOM     13  C   UNL d   1      -1.010   0.429   0.000  0.00  0.00     0.002 A 
ATOM     14  C   UNL d   1      -1.360  -1.723   0.000  0.00  0.00     0.000 A 
ATOM     15  C   UNL d   1      -1.397  -0.288   0.000  0.00  0.00     0.000 A 
ENDROOT
BRANCH   6  16
ATOM     16  C   UNL d   1       2.452  -1.513   0.000  0.00  0.00     0.086 C 
BRANCH  16  17
ATOM     17  C   UNL d   1       2.559  -2.337   0.000  0.00  0.00     0.281 C 
ATOM     18  N   UNL d   1       3.318  -2.650   0.000  0.00  0.00    -0.208 NA
ATOM     19  O   UNL d   1       1.908  -2.844   0.000  0.00  0.00    -0.265 OA
BRANCH  18  20
ATOM     20  C   UNL d   1       3.973  -2.151   0.000  0.00  0.00     0.085 A 
ATOM     21  C   UNL d   1       4.736  -2.465   0.000  0.00  0.00     0.019 A 
ATOM     22  C   UNL d   1       5.383  -1.966   0.000  0.00  0.00     0.002 A 
ATOM     23  C   UNL d   1       6.137  -2.279   0.000  0.00  0.00     0.000 C 
ATOM     24  C   UNL d   1       5.280  -1.150   0.000  0.00  0.00     0.000 A 
ATOM     25  C   UNL d   1       4.513  -0.833   0.000  0.00  0.00     0.002 A 
ATOM     26  C   UNL d   1       3.862  -1.339   0.000  0.00  0.00     0.019 A 
ENDBRANCH  18  20
ENDBRANCH  16  17
ENDBRANCH   6  16
TORSDOF 3
