REMARK  9 active torsions:
REMARK  status: ('A' for Active; 'I' for Inactive)
REMARK    1  A    between atoms: C_2  and  C_1 
REMARK    2  A    between atoms: C_3  and  C_1 
REMARK    3  A    between atoms: C_12  and  C_1 
REMARK    4  A    between atoms: C_13  and  N_4 
REMARK    5  A    between atoms: C_14  and  N_5 
REMARK    6  A    between atoms: C_17  and  C_12 
REMARK    7  A    between atoms: N_16  and  C_15 
REMARK    8  A    between atoms: C_32  and  N_16 
REMARK    9  A    between atoms: C_33  and  N_16 
ROOT
ATOM      1  C   UNL d   1      -0.025  -3.093   0.000  0.00  0.00     0.075 C 
ENDROOT
BRANCH   1   2
ATOM      2  C   UNL d   1      -0.820  -3.313   0.000  0.00  0.00     0.191 A 
ATOM      3  N   UNL d   1      -1.458  -2.806   0.000  0.00  0.00    -0.192 N 
ATOM      4  N   UNL d   1      -2.143  -3.258   0.000  0.00  0.00    -0.039 NA
ATOM      5  N   UNL d   1      -1.923  -4.044   0.000  0.00  0.00    -0.022 NA
ATOM      6  N   UNL d   1      -1.116  -4.082   0.000  0.00  0.00    -0.108 NA
BRANCH   3   7
ATOM      7  C   UNL d   1      -1.466  -1.982   0.000  0.00  0.00     0.086 A 
ATOM      8  C   UNL d   1      -2.168  -1.564   0.000  0.00  0.00     0.019 A 
ATOM      9  C   UNL d   1      -2.168  -0.740   0.000  0.00  0.00     0.002 A 
ATOM     10  C   UNL d   1      -1.466  -0.334   0.000  0.00  0.00     0.000 A 
ATOM     11  C   UNL d   1      -0.748  -0.740   0.000  0.00  0.00     0.002 A 
ATOM     12  C   UNL d   1      -1.466   0.503   0.000  0.00  0.00     0.000 C 
ATOM     13  C   UNL d   1      -0.748  -1.564   0.000  0.00  0.00     0.019 A 
ENDBRANCH   3   7
ENDBRANCH   1   2
BRANCH   1  14
ATOM     14  C   UNL d   1       0.549  -3.676   0.000  0.00  0.00     0.191 A 
ATOM     15  N   UNL d   1       1.335  -3.465   0.000  0.00  0.00    -0.192 N 
ATOM     16  N   UNL d   1       1.779  -4.150   0.000  0.00  0.00    -0.039 NA
ATOM     17  N   UNL d   1       1.280  -4.784   0.000  0.00  0.00    -0.022 NA
ATOM     18  N   UNL d   1       0.511  -4.492   0.000  0.00  0.00    -0.108 NA
BRANCH  15  19
ATOM     19  C   UNL d   1       1.623  -2.705   0.000  0.00  0.00     0.086 A 
ATOM     20  C   UNL d   1       1.107  -2.066   0.000  0.00  0.00     0.019 A 
ATOM     21  C   UNL d   1       1.386  -1.297   0.000  0.00  0.00     0.002 A 
ATOM     22  C   UNL d   1       2.206  -1.171   0.000  0.00  0.00     0.000 A 
ATOM     23  C   UNL d   1       2.726  -1.804   0.000  0.00  0.00     0.002 A 
ATOM     24  C   UNL d   1       2.502  -0.385   0.000  0.00  0.00     0.000 C 
ATOM     25  C   UNL d   1       2.434  -2.574   0.000  0.00  0.00     0.019 A 
ENDBRANCH  15  19
ENDBRANCH   1  14
BRANCH   1  26
ATOM     26  C   UNL d   1       0.385  -2.193   0.000  0.00  0.00     0.006 C 
BRANCH  26  27
ATOM     27  C   UNL d   1       0.220  -1.373   0.000  0.00  0.00     0.000 A 
ATOM     28  C   UNL d   1      -0.545  -0.938   0.000  0.00  0.00     0.002 A 
ATOM     29  C   UNL d   1      -0.554  -0.055   0.000  0.00  0.00     0.018 A 
ATOM     30  C   UNL d   1       0.207   0.401   0.000  0.00  0.00     0.064 A 
ATOM     31  C   UNL d   1       0.980  -0.042   0.000  0.00  0.00     0.018 A 
ATOM     32  C   UNL d   1       0.989  -0.917   0.000  0.00  0.00     0.002 A 
BRANCH  30  33
ATOM     33  N   UNL d   1       0.194   1.289   0.000  0.00  0.00    -0.304 N 
BRANCH  33  34
ATOM     34  C   UNL d   1       0.955   1.737   0.000  0.00  0.00     0.080 C 
ATOM     35  C   UNL d   1       1.728   1.302   0.000  0.00  0.00     0.021 C 
ENDBRANCH  33  34
BRANCH  33  36
ATOM     36  C   UNL d   1      -0.579   1.720   0.000  0.00  0.00     0.080 C 
ATOM     37  C   UNL d   1      -1.340   1.268   0.000  0.00  0.00     0.021 C 
ENDBRANCH  33  36
ENDBRANCH  30  33
ENDBRANCH  26  27
ENDBRANCH   1  26
TORSDOF 9
