REMARK  4 active torsions:
REMARK  status: ('A' for Active; 'I' for Inactive)
REMARK    1  A    between atoms: C_5  and  N_1 
REMARK    2  A    between atoms: C_7  and  C_5 
REMARK    3  A    between atoms: O_14  and  C_10 
REMARK    4  A    between atoms: C_17  and  O_14 
ROOT
ATOM      1  N   UNL d   1       2.994  -1.719   0.000  0.00  0.00    -0.251 N 
ATOM      2  C   UNL d   1       3.488  -2.384   0.000  0.00  0.00     0.378 A 
ATOM      3  C   UNL d   1       2.209  -1.981   0.000  0.00  0.00     0.092 A 
ATOM      4  O   UNL d   1       3.007  -3.057   0.000  0.00  0.00    -0.258 OA
ATOM      5  C   UNL d   1       2.218  -2.807   0.000  0.00  0.00     0.121 A 
ATOM      6  O   UNL d   1       4.311  -2.380   0.000  0.00  0.00    -0.237 OA
ATOM      7  C   UNL d   1       1.499  -1.570   0.000  0.00  0.00     0.020 A 
ATOM      8  C   UNL d   1       1.499  -3.219   0.000  0.00  0.00     0.026 A 
ATOM      9  C   UNL d   1       0.789  -1.981   0.000  0.00  0.00     0.002 A 
ATOM     10  C   UNL d   1       0.789  -2.807   0.000  0.00  0.00     0.002 A 
ATOM     11  C   UNL d   1       0.075  -1.570   0.000  0.00  0.00     0.000 C 
ENDROOT
BRANCH   1  12
ATOM     12  C   UNL d   1       3.206  -0.922   0.000  0.00  0.00     0.087 C 
BRANCH  12  13
ATOM     13  C   UNL d   1       4.003  -0.702   0.000  0.00  0.00     0.041 A 
ATOM     14  C   UNL d   1       4.211   0.083   0.000  0.00  0.00     0.102 A 
ATOM     15  C   UNL d   1       5.000   0.299   0.000  0.00  0.00     0.025 A 
ATOM     16  C   UNL d   1       5.586  -0.278   0.000  0.00  0.00     0.002 A 
ATOM     17  C   UNL d   1       5.374  -1.076   0.000  0.00  0.00     0.000 A 
ATOM     18  C   UNL d   1       4.577  -1.287   0.000  0.00  0.00     0.004 A 
BRANCH  14  19
ATOM     19  O   UNL d   1       3.626   0.669   0.000  0.00  0.00    -0.305 OA
BRANCH  19  20
ATOM     20  C   UNL d   1       2.828   0.457   0.000  0.00  0.00     0.123 C 
ATOM     21  C   UNL d   1       2.243   1.042   0.000  0.00  0.00     0.029 C 
ENDBRANCH  19  20
ENDBRANCH  14  19
ENDBRANCH  12  13
ENDBRANCH   1  12
TORSDOF 4
