REMARK  4 active torsions:
REMARK  status: ('A' for Active; 'I' for Inactive)
REMARK    1  A    between atoms: C_3  and  C_1 
REMARK       I    between atoms: N_8  and  C_3 
REMARK    2  A    between atoms: C_10  and  C_7 
REMARK    3  A    between atoms: C_9  and  N_8 
REMARK    4  A    between atoms: O_14  and  C_10 
ROOT
ATOM      1  C   UNL d   1       4.412  -4.703   0.000  0.00  0.00     0.081 A 
ATOM      2  C   UNL d   1       4.989  -4.117   0.000  0.00  0.00     0.090 A 
ATOM      3  C   UNL d   1       3.614  -4.491   0.000  0.00  0.00     0.007 A 
ATOM      4  C   UNL d   1       4.773  -3.319   0.000  0.00  0.00     0.019 A 
ATOM      5  C   UNL d   1       3.394  -3.693   0.000  0.00  0.00     0.000 A 
ATOM      6  C   UNL d   1       3.980  -3.107   0.000  0.00  0.00     0.002 A 
ENDROOT
BRANCH   2   7
ATOM      7  N   UNL d   1       5.762  -4.391   0.000  0.00  0.00    -0.207 NA
ATOM      8  C   UNL d   1       6.385  -3.851   0.000  0.00  0.00     0.287 C 
ATOM      9  O   UNL d   1       6.231  -3.045   0.000  0.00  0.00    -0.265 OA
BRANCH   8  10
ATOM     10  C   UNL d   1       7.166  -4.117   0.000  0.00  0.00     0.108 A 
ATOM     11  C   UNL d   1       7.843  -3.643   0.000  0.00  0.00     0.094 A 
ATOM     12  N   UNL d   1       8.500  -4.142   0.000  0.00  0.00    -0.219 NA
ATOM     13  C   UNL d   1       7.856  -2.821   0.000  0.00  0.00     0.021 C 
ATOM     14  C   UNL d   1       8.230  -4.915   0.000  0.00  0.00     0.215 A 
ATOM     15  S   UNL d   1       7.407  -4.902   0.000  0.00  0.00    -0.041 SA
ATOM     16  N   UNL d   1       8.699  -5.596   0.000  0.00  0.00    -0.120 N 
ENDBRANCH   8  10
ENDBRANCH   2   7
BRANCH   1  17
ATOM     17  C   UNL d   1       4.628  -5.496   0.000  0.00  0.00     0.297 C 
ATOM     18  O   UNL d   1       5.421  -5.700   0.000  0.00  0.00    -0.259 OA
BRANCH  17  19
ATOM     19  O   UNL d   1       4.050  -6.074   0.000  0.00  0.00    -0.296 OA
ATOM     20  C   UNL d   1       4.266  -6.871   0.000  0.00  0.00     0.185 C 
ENDBRANCH  17  19
ENDBRANCH   1  17
TORSDOF 4
