REMARK  3 active torsions:
REMARK  status: ('A' for Active; 'I' for Inactive)
REMARK    1  A    between atoms: C_8  and  C_6 
REMARK    2  A    between atoms: C_9  and  C_8 
REMARK       I    between atoms: N_10  and  C_9 
REMARK    3  A    between atoms: C_14  and  N_10 
ROOT
ATOM      1  C   UNL d   1       4.193  -1.828   0.000  0.00  0.00     0.085 A 
ATOM      2  C   UNL d   1       5.499  -0.826   0.000  0.00  0.00     0.094 A 
ATOM      3  C   UNL d   1       4.953  -2.144   0.000  0.00  0.00     0.021 A 
ATOM      4  C   UNL d   1       4.082  -1.014   0.000  0.00  0.00     0.021 A 
ATOM      5  C   UNL d   1       4.731  -0.509   0.000  0.00  0.00     0.026 A 
ATOM      6  C   UNL d   1       5.606  -1.643   0.000  0.00  0.00     0.026 A 
ATOM      7  O   UNL d   1       6.140  -0.333   0.000  0.00  0.00    -0.328 OA
ATOM      8  C   UNL d   1       6.789   0.168   0.000  0.00  0.00     0.181 C 
ENDROOT
BRANCH   1   9
ATOM      9  N   UNL d   1       3.536  -2.329   0.000  0.00  0.00    -0.208 NA
ATOM     10  C   UNL d   1       2.772  -2.012   0.000  0.00  0.00     0.281 C 
ATOM     11  O   UNL d   1       2.119  -2.518   0.000  0.00  0.00    -0.265 OA
BRANCH  10  12
ATOM     12  C   UNL d   1       2.665  -1.187   0.000  0.00  0.00     0.086 C 
BRANCH  12  13
ATOM     13  C   UNL d   1       1.901  -0.879   0.000  0.00  0.00     0.144 A 
ATOM     14  N   UNL d   1       1.318  -1.458   0.000  0.00  0.00    -0.240 NA
ATOM     15  C   UNL d   1       0.505  -1.355   0.000  0.00  0.00     0.083 A 
ATOM     16  C   UNL d   1       0.066  -0.653   0.000  0.00  0.00     0.035 A 
ATOM     17  C   UNL d   1       0.115  -2.082   0.000  0.00  0.00     0.019 A 
ATOM     18  C   UNL d   1       0.460   0.082   0.000  0.00  0.00     0.086 A 
ATOM     19  C   UNL d   1      -0.760  -0.669   0.000  0.00  0.00     0.003 A 
ATOM     20  N   UNL d   1       1.273   0.218   0.000  0.00  0.00    -0.207 NA
ATOM     21  C   UNL d   1       0.025   0.784   0.000  0.00  0.00     0.019 A 
ATOM     22  C   UNL d   1       1.889  -0.312   0.000  0.00  0.00     0.297 A 
ATOM     23  O   UNL d   1       2.641   0.021   0.000  0.00  0.00    -0.264 OA
ATOM     24  C   UNL d   1      -0.801   0.760   0.000  0.00  0.00     0.002 A 
ATOM     25  C   UNL d   1      -1.191   0.033   0.000  0.00  0.00     0.000 A 
ATOM     26  C   UNL d   1      -1.154  -1.405   0.000  0.00  0.00     0.000 A 
ATOM     27  C   UNL d   1      -0.723  -2.107   0.000  0.00  0.00     0.002 A 
ENDBRANCH  12  13
ENDBRANCH  10  12
ENDBRANCH   1   9
TORSDOF 3
