REMARK  3 active torsions:
REMARK  status: ('A' for Active; 'I' for Inactive)
REMARK    1  A    between atoms: C_12  and  C_9 
REMARK    2  A    between atoms: O_26  and  C_19 
REMARK    3  A    between atoms: O_27  and  C_22 
ROOT
ATOM      1  C   UNL d   1      -2.419   0.120   0.000  0.00  0.00     0.156 A 
ATOM      2  C   UNL d   1      -2.415   0.944   0.000  0.00  0.00     0.091 A 
ATOM      3  N   UNL d   1      -3.130  -0.291   0.000  0.00  0.00    -0.241 N 
ATOM      4  N   UNL d   1      -3.837   0.944   0.000  0.00  0.00    -0.224 N 
ATOM      5  C   UNL d   1      -3.837   0.120   0.000  0.00  0.00     0.343 A 
ATOM      6  C   UNL d   1      -3.130   1.355   0.000  0.00  0.00     0.271 A 
ATOM      7  C   UNL d   1      -0.994   0.944   0.000  0.00  0.00     0.056 A 
ATOM      8  N   UNL d   1      -1.708  -0.291   0.000  0.00  0.00    -0.228 NA
ATOM      9  C   UNL d   1      -1.708   1.355   0.000  0.00  0.00     0.012 A 
ATOM     10  C   UNL d   1      -0.998   0.112   0.000  0.00  0.00     0.082 A 
ATOM     11  C   UNL d   1      -0.283   1.355   0.000  0.00  0.00     0.193 A 
ATOM     12  C   UNL d   1      -0.287  -0.299   0.000  0.00  0.00    -0.003 A 
ATOM     13  C   UNL d   1       0.428   0.108   0.000  0.00  0.00     0.042 A 
ATOM     14  O   UNL d   1      -4.552  -0.291   0.000  0.00  0.00    -0.245 OA
ATOM     15  C   UNL d   1       0.428   0.935   0.000  0.00  0.00     0.019 A 
ATOM     16  O   UNL d   1      -3.151   1.983   0.000  0.00  0.00    -0.266 OA
ATOM     17  O   UNL d   1      -0.287   2.078   0.000  0.00  0.00    -0.287 OA
ATOM     18  C   UNL d   1      -3.130  -1.114   0.000  0.00  0.00     0.105 C 
ATOM     19  C   UNL d   1      -4.552   1.355   0.000  0.00  0.00     0.107 C 
ATOM     20  C   UNL d   1       0.428  -0.553   0.000  0.00  0.00     0.009 C 
ATOM     21  C   UNL d   1       1.139   0.524   0.000  0.00  0.00     0.009 C 
ENDROOT
BRANCH   9  22
ATOM     22  C   UNL d   1      -1.708   2.228   0.000  0.00  0.00     0.003 A 
ATOM     23  C   UNL d   1      -2.532   2.727   0.000  0.00  0.00     0.026 A 
ATOM     24  C   UNL d   1      -2.478   3.600   0.000  0.00  0.00     0.116 A 
ATOM     25  C   UNL d   1      -1.708   3.978   0.000  0.00  0.00     0.116 A 
ATOM     26  C   UNL d   1      -0.981   3.500   0.000  0.00  0.00     0.026 A 
ATOM     27  C   UNL d   1      -1.031   2.640   0.000  0.00  0.00     0.002 A 
BRANCH  24  28
ATOM     28  O   UNL d   1      -3.201   4.066   0.000  0.00  0.00    -0.326 OA
ATOM     29  C   UNL d   1      -3.974   3.675   0.000  0.00  0.00     0.181 C 
ENDBRANCH  24  28
BRANCH  25  30
ATOM     30  O   UNL d   1      -1.667   4.830   0.000  0.00  0.00    -0.326 OA
ATOM     31  C   UNL d   1      -2.390   5.313   0.000  0.00  0.00     0.181 C 
ENDBRANCH  25  30
ENDBRANCH   9  22
TORSDOF 3
