REMARK  3 active torsions:
REMARK  status: ('A' for Active; 'I' for Inactive)
REMARK    1  A    between atoms: C_8  and  C_6 
REMARK    2  A    between atoms: C_9  and  C_8 
REMARK       I    between atoms: N_10  and  C_9 
REMARK    3  A    between atoms: C_14  and  N_10 
ROOT
ATOM      1  N   UNL d   1       0.041   1.220   0.000  0.00  0.00    -0.207 NA
ATOM      2  N   UNL d   1       0.078  -0.456   0.000  0.00  0.00    -0.240 NA
ATOM      3  C   UNL d   1       0.657   0.686   0.000  0.00  0.00     0.297 A 
ATOM      4  C   UNL d   1      -0.776   1.080   0.000  0.00  0.00     0.086 A 
ATOM      5  C   UNL d   1      -0.735  -0.349   0.000  0.00  0.00     0.083 A 
ATOM      6  C   UNL d   1       0.665   0.119   0.000  0.00  0.00     0.144 A 
ATOM      7  C   UNL d   1      -1.166   0.353   0.000  0.00  0.00     0.035 A 
ATOM      8  O   UNL d   1       1.409   1.022   0.000  0.00  0.00    -0.264 OA
ATOM      9  C   UNL d   1      -1.992   0.329   0.000  0.00  0.00     0.003 A 
ATOM     10  C   UNL d   1      -1.121  -1.076   0.000  0.00  0.00     0.019 A 
ATOM     11  C   UNL d   1      -1.216   1.786   0.000  0.00  0.00     0.019 A 
ATOM     12  C   UNL d   1      -1.955  -1.101   0.000  0.00  0.00     0.002 A 
ATOM     13  C   UNL d   1      -2.041   1.758   0.000  0.00  0.00     0.002 A 
ATOM     14  C   UNL d   1      -2.390  -0.398   0.000  0.00  0.00     0.000 A 
ATOM     15  C   UNL d   1      -2.427   1.035   0.000  0.00  0.00     0.000 A 
ENDROOT
BRANCH   6  16
ATOM     16  C   UNL d   1       1.429  -0.189   0.000  0.00  0.00     0.086 C 
BRANCH  16  17
ATOM     17  C   UNL d   1       1.532  -1.010   0.000  0.00  0.00     0.281 C 
ATOM     18  N   UNL d   1       2.296  -1.322   0.000  0.00  0.00    -0.208 NA
ATOM     19  O   UNL d   1       0.879  -1.519   0.000  0.00  0.00    -0.265 OA
BRANCH  18  20
ATOM     20  C   UNL d   1       2.957  -0.825   0.000  0.00  0.00     0.085 A 
ATOM     21  C   UNL d   1       3.712  -1.137   0.000  0.00  0.00     0.019 A 
ATOM     22  C   UNL d   1       4.365  -0.641   0.000  0.00  0.00     0.002 A 
ATOM     23  C   UNL d   1       4.263   0.181   0.000  0.00  0.00     0.000 A 
ATOM     24  C   UNL d   1       3.490   0.493   0.000  0.00  0.00     0.002 A 
ATOM     25  C   UNL d   1       2.846  -0.012   0.000  0.00  0.00     0.019 A 
ENDBRANCH  18  20
ENDBRANCH  16  17
ENDBRANCH   6  16
TORSDOF 3
