REMARK  4 active torsions:
REMARK  status: ('A' for Active; 'I' for Inactive)
REMARK    1  A    between atoms: C_3  and  C_1 
REMARK    2  A    between atoms: C_4  and  C_1 
REMARK    3  A    between atoms: C_2  and  C_3 
REMARK    4  A    between atoms: C_6  and  C_4 
ROOT
ATOM      1  C   UNL d   1       5.587  -3.624   0.000  0.00  0.00     0.196 C 
ATOM      2  O   UNL d   1       5.591  -2.797   0.000  0.00  0.00    -0.287 OA
ENDROOT
BRANCH   1   3
ATOM      3  C   UNL d   1       6.301  -4.038   0.000  0.00  0.00     0.044 C 
BRANCH   3   4
ATOM      4  C   UNL d   1       7.094  -3.820   0.000  0.00  0.00     0.028 C 
BRANCH   4   5
ATOM      5  C   UNL d   1       7.808  -4.234   0.000  0.00  0.00     0.100 A 
ATOM      6  O   UNL d   1       7.958  -5.048   0.000  0.00  0.00    -0.305 OA
ATOM      7  C   UNL d   1       8.772  -5.165   0.000  0.00  0.00     0.123 A 
ATOM      8  C   UNL d   1       9.136  -4.413   0.000  0.00  0.00     0.029 A 
ATOM      9  C   UNL d   1       8.547  -3.837   0.000  0.00  0.00     0.027 A 
ENDBRANCH   4   5
ENDBRANCH   3   4
ENDBRANCH   1   3
BRANCH   1  10
ATOM     10  C   UNL d   1       4.864  -4.025   0.000  0.00  0.00     0.039 A 
ATOM     11  C   UNL d   1       4.150  -3.612   0.000  0.00  0.00     0.006 A 
ATOM     12  C   UNL d   1       3.436  -4.025   0.000  0.00  0.00     0.042 A 
ATOM     13  C   UNL d   1       3.436  -4.852   0.000  0.00  0.00     0.196 A 
ATOM     14  C   UNL d   1       4.159  -5.265   0.000  0.00  0.00     0.042 A 
ATOM     15  O   UNL d   1       2.722  -5.265   0.000  0.00  0.00    -0.287 OA
ATOM     16  C   UNL d   1       4.864  -4.852   0.000  0.00  0.00     0.006 A 
ENDBRANCH   1  10
TORSDOF 4
