REMARK  6 active torsions:
REMARK  status: ('A' for Active; 'I' for Inactive)
REMARK    1  A    between atoms: C_2  and  C_4 
REMARK    2  A    between atoms: C_3  and  C_2 
REMARK       I    between atoms: N_8  and  C_3 
REMARK    3  A    between atoms: C_5  and  C_9 
REMARK    4  A    between atoms: O_16  and  C_5 
REMARK    5  A    between atoms: C_15  and  N_8 
REMARK    6  A    between atoms: C_21  and  O_16 
ROOT
ATOM      1  C   UNL d   1       4.481   0.468   0.000  0.00  0.00     0.064 A 
ATOM      2  C   UNL d   1       4.481  -0.361   0.000  0.00  0.00     0.007 A 
ATOM      3  C   UNL d   1       3.760   0.879   0.000  0.00  0.00     0.007 A 
ATOM      4  C   UNL d   1       3.051  -0.352   0.000  0.00  0.00     0.085 A 
ATOM      5  C   UNL d   1       3.051   0.468   0.000  0.00  0.00     0.019 A 
ATOM      6  C   UNL d   1       3.768  -0.771   0.000  0.00  0.00     0.019 A 
ENDROOT
BRANCH   4   7
ATOM      7  N   UNL d   1       2.338  -0.763   0.000  0.00  0.00    -0.208 NA
ATOM      8  C   UNL d   1       1.621  -0.352   0.000  0.00  0.00     0.281 C 
ATOM      9  O   UNL d   1       1.629   0.473   0.000  0.00  0.00    -0.265 OA
BRANCH   8  10
ATOM     10  C   UNL d   1       0.912  -0.763   0.000  0.00  0.00     0.086 C 
BRANCH  10  11
ATOM     11  C   UNL d   1       0.191  -0.352   0.000  0.00  0.00     0.144 A 
ATOM     12  C   UNL d   1       0.191   0.473   0.000  0.00  0.00     0.297 A 
ATOM     13  N   UNL d   1      -0.518   0.891   0.000  0.00  0.00    -0.204 NA
ATOM     14  O   UNL d   1       0.912   0.883   0.000  0.00  0.00    -0.264 OA
ATOM     15  C   UNL d   1      -1.227   0.473   0.000  0.00  0.00     0.123 A 
ATOM     16  C   UNL d   1      -1.227  -0.352   0.000  0.00  0.00     0.120 A 
ATOM     17  N   UNL d   1      -0.518  -0.763   0.000  0.00  0.00    -0.237 NA
ENDBRANCH  10  11
ENDBRANCH   8  10
ENDBRANCH   4   7
BRANCH   1  18
ATOM     18  C   UNL d   1       5.199   0.879   0.000  0.00  0.00     0.300 C 
ATOM     19  O   UNL d   1       5.203   1.704   0.000  0.00  0.00    -0.259 OA
BRANCH  18  20
ATOM     20  O   UNL d   1       5.912   0.468   0.000  0.00  0.00    -0.271 OA
BRANCH  20  21
ATOM     21  C   UNL d   1       5.912  -0.352   0.000  0.00  0.00     0.126 C 
ATOM     22  C   UNL d   1       6.620  -0.763   0.000  0.00  0.00     0.029 C 
ENDBRANCH  20  21
ENDBRANCH  18  20
ENDBRANCH   1  18
TORSDOF 6
