REMARK  5 active torsions:
REMARK  status: ('A' for Active; 'I' for Inactive)
REMARK    1  A    between atoms: C_8  and  C_6 
REMARK    2  A    between atoms: C_9  and  C_8 
REMARK       I    between atoms: N_10  and  C_9 
REMARK    3  A    between atoms: C_14  and  N_10 
REMARK    4  A    between atoms: O_22  and  C_15 
REMARK    5  A    between atoms: C_27  and  O_22 
ROOT
ATOM      1  N   UNL d   1       1.274   0.218   0.000  0.00  0.00    -0.207 NA
ATOM      2  N   UNL d   1       1.319  -1.458   0.000  0.00  0.00    -0.240 NA
ATOM      3  C   UNL d   1       1.890  -0.312   0.000  0.00  0.00     0.297 A 
ATOM      4  C   UNL d   1       0.460   0.082   0.000  0.00  0.00     0.086 A 
ATOM      5  C   UNL d   1       0.505  -1.356   0.000  0.00  0.00     0.083 A 
ATOM      6  C   UNL d   1       1.902  -0.879   0.000  0.00  0.00     0.144 A 
ATOM      7  C   UNL d   1       0.066  -0.653   0.000  0.00  0.00     0.035 A 
ATOM      8  O   UNL d   1       2.642   0.021   0.000  0.00  0.00    -0.264 OA
ATOM      9  C   UNL d   1      -0.760  -0.670   0.000  0.00  0.00     0.003 A 
ATOM     10  C   UNL d   1       0.025   0.785   0.000  0.00  0.00     0.019 A 
ATOM     11  C   UNL d   1       0.115  -2.083   0.000  0.00  0.00     0.019 A 
ATOM     12  C   UNL d   1      -0.723  -2.108   0.000  0.00  0.00     0.002 A 
ATOM     13  C   UNL d   1      -0.801   0.760   0.000  0.00  0.00     0.002 A 
ATOM     14  C   UNL d   1      -1.154  -1.405   0.000  0.00  0.00     0.000 A 
ATOM     15  C   UNL d   1      -1.191   0.033   0.000  0.00  0.00     0.000 A 
ENDROOT
BRANCH   6  16
ATOM     16  C   UNL d   1       2.666  -1.187   0.000  0.00  0.00     0.086 C 
BRANCH  16  17
ATOM     17  C   UNL d   1       2.773  -2.013   0.000  0.00  0.00     0.281 C 
ATOM     18  N   UNL d   1       3.537  -2.329   0.000  0.00  0.00    -0.208 NA
ATOM     19  O   UNL d   1       2.120  -2.518   0.000  0.00  0.00    -0.265 OA
BRANCH  18  20
ATOM     20  C   UNL d   1       4.195  -1.828   0.000  0.00  0.00     0.085 A 
ATOM     21  C   UNL d   1       4.955  -2.145   0.000  0.00  0.00     0.021 A 
ATOM     22  C   UNL d   1       5.608  -1.643   0.000  0.00  0.00     0.026 A 
ATOM     23  C   UNL d   1       5.501  -0.826   0.000  0.00  0.00     0.100 A 
ATOM     24  C   UNL d   1       4.733  -0.509   0.000  0.00  0.00     0.026 A 
ATOM     25  C   UNL d   1       4.084  -1.015   0.000  0.00  0.00     0.021 A 
BRANCH  23  26
ATOM     26  O   UNL d   1       6.142  -0.333   0.000  0.00  0.00    -0.305 OA
BRANCH  26  27
ATOM     27  C   UNL d   1       6.791   0.168   0.000  0.00  0.00     0.123 C 
ATOM     28  C   UNL d   1       6.680   0.970   0.000  0.00  0.00     0.029 C 
ENDBRANCH  26  27
ENDBRANCH  23  26
ENDBRANCH  18  20
ENDBRANCH  16  17
ENDBRANCH   6  16
TORSDOF 5
