REMARK  4 active torsions:
REMARK  status: ('A' for Active; 'I' for Inactive)
REMARK    1  A    between atoms: C_5  and  C_1 
REMARK    2  A    between atoms: C_2  and  C_5 
REMARK    3  A    between atoms: C_12  and  N_3 
REMARK    4  A    between atoms: C_13  and  N_4 
ROOT
ATOM      1  C   UNL d   1       1.314  -2.442   0.000  0.00  0.00     0.133 C 
ATOM      2 CL   UNL d   1       1.518  -1.632   0.000  0.00  0.00    -0.076 Cl
ENDROOT
BRANCH   1   3
ATOM      3  C   UNL d   1       1.895  -3.026   0.000  0.00  0.00     0.202 A 
ATOM      4  N   UNL d   1       2.675  -2.815   0.000  0.00  0.00    -0.191 N 
ATOM      5  N   UNL d   1       3.128  -3.501   0.000  0.00  0.00    -0.039 NA
ATOM      6  N   UNL d   1       2.624  -4.137   0.000  0.00  0.00    -0.022 NA
ATOM      7  N   UNL d   1       1.857  -3.845   0.000  0.00  0.00    -0.107 NA
BRANCH   4   8
ATOM      8  C   UNL d   1       2.967  -2.052   0.000  0.00  0.00     0.086 A 
ATOM      9  C   UNL d   1       3.781  -1.920   0.000  0.00  0.00     0.019 A 
ATOM     10  C   UNL d   1       4.074  -1.149   0.000  0.00  0.00     0.002 A 
ATOM     11  C   UNL d   1       3.552  -0.513   0.000  0.00  0.00     0.000 A 
ATOM     12  C   UNL d   1       2.734  -0.640   0.000  0.00  0.00     0.002 A 
ATOM     13  C   UNL d   1       3.845   0.276   0.000  0.00  0.00     0.000 C 
ATOM     14  C   UNL d   1       2.446  -1.411   0.000  0.00  0.00     0.019 A 
ENDBRANCH   4   8
ENDBRANCH   1   3
BRANCH   1  15
ATOM     15  C   UNL d   1       0.513  -2.662   0.000  0.00  0.00     0.202 A 
ATOM     16  N   UNL d   1      -0.127  -2.153   0.000  0.00  0.00    -0.191 N 
ATOM     17  N   UNL d   1      -0.810  -2.607   0.000  0.00  0.00    -0.039 NA
ATOM     18  N   UNL d   1      -0.585  -3.395   0.000  0.00  0.00    -0.022 NA
ATOM     19  N   UNL d   1       0.220  -3.433   0.000  0.00  0.00    -0.107 NA
BRANCH  16  20
ATOM     20  C   UNL d   1      -0.127  -1.327   0.000  0.00  0.00     0.086 A 
ATOM     21  C   UNL d   1       0.589  -0.907   0.000  0.00  0.00     0.019 A 
ATOM     22  C   UNL d   1       0.589  -0.081   0.000  0.00  0.00     0.002 A 
ATOM     23  C   UNL d   1      -0.127   0.326   0.000  0.00  0.00     0.000 A 
ATOM     24  C   UNL d   1      -0.835  -0.081   0.000  0.00  0.00     0.002 A 
ATOM     25  C   UNL d   1      -0.136   1.166   0.000  0.00  0.00     0.000 C 
ATOM     26  C   UNL d   1      -0.835  -0.907   0.000  0.00  0.00     0.019 A 
ENDBRANCH  16  20
ENDBRANCH   1  15
TORSDOF 4
