REMARK  6 active torsions:
REMARK  status: ('A' for Active; 'I' for Inactive)
REMARK    1  A    between atoms: C_8  and  C_6 
REMARK    2  A    between atoms: C_9  and  C_8 
REMARK       I    between atoms: N_11  and  C_9 
REMARK    3  A    between atoms: C_10  and  C_12 
REMARK    4  A    between atoms: O_20  and  C_10 
REMARK    5  A    between atoms: C_19  and  N_11 
REMARK    6  A    between atoms: C_29  and  O_20 
ROOT
ATOM      1  N   UNL d   1       1.274   0.218   0.000  0.00  0.00    -0.207 NA
ATOM      2  N   UNL d   1       1.319  -1.459   0.000  0.00  0.00    -0.240 NA
ATOM      3  C   UNL d   1       1.891  -0.312   0.000  0.00  0.00     0.297 A 
ATOM      4  C   UNL d   1       0.460   0.082   0.000  0.00  0.00     0.086 A 
ATOM      5  C   UNL d   1       0.506  -1.357   0.000  0.00  0.00     0.083 A 
ATOM      6  C   UNL d   1       1.903  -0.880   0.000  0.00  0.00     0.144 A 
ATOM      7  C   UNL d   1       0.066  -0.654   0.000  0.00  0.00     0.035 A 
ATOM      8  O   UNL d   1       2.643   0.021   0.000  0.00  0.00    -0.264 OA
ATOM      9  C   UNL d   1      -0.760  -0.670   0.000  0.00  0.00     0.003 A 
ATOM     10  C   UNL d   1       0.115  -2.084   0.000  0.00  0.00     0.019 A 
ATOM     11  C   UNL d   1       0.025   0.785   0.000  0.00  0.00     0.019 A 
ATOM     12  C   UNL d   1      -0.723  -2.109   0.000  0.00  0.00     0.002 A 
ATOM     13  C   UNL d   1      -0.802   0.760   0.000  0.00  0.00     0.002 A 
ATOM     14  C   UNL d   1      -1.155  -1.406   0.000  0.00  0.00     0.000 A 
ATOM     15  C   UNL d   1      -1.192   0.033   0.000  0.00  0.00     0.000 A 
ENDROOT
BRANCH   6  16
ATOM     16  C   UNL d   1       2.668  -1.188   0.000  0.00  0.00     0.086 C 
BRANCH  16  17
ATOM     17  C   UNL d   1       2.775  -2.014   0.000  0.00  0.00     0.281 C 
ATOM     18  N   UNL d   1       3.539  -2.331   0.000  0.00  0.00    -0.208 NA
ATOM     19  O   UNL d   1       2.121  -2.520   0.000  0.00  0.00    -0.265 OA
BRANCH  18  20
ATOM     20  C   UNL d   1       4.197  -1.829   0.000  0.00  0.00     0.085 A 
ATOM     21  C   UNL d   1       4.086  -1.015   0.000  0.00  0.00     0.019 A 
ATOM     22  C   UNL d   1       4.736  -0.510   0.000  0.00  0.00     0.007 A 
ATOM     23  C   UNL d   1       5.504  -0.826   0.000  0.00  0.00     0.064 A 
ATOM     24  C   UNL d   1       5.611  -1.644   0.000  0.00  0.00     0.007 A 
ATOM     25  C   UNL d   1       4.957  -2.146   0.000  0.00  0.00     0.019 A 
BRANCH  23  26
ATOM     26  C   UNL d   1       6.146  -0.333   0.000  0.00  0.00     0.300 C 
ATOM     27  O   UNL d   1       6.043   0.477   0.000  0.00  0.00    -0.259 OA
BRANCH  26  28
ATOM     28  O   UNL d   1       6.898  -0.641   0.000  0.00  0.00    -0.271 OA
BRANCH  28  29
ATOM     29  C   UNL d   1       7.009  -1.447   0.000  0.00  0.00     0.126 C 
ATOM     30  C   UNL d   1       7.761  -1.755   0.000  0.00  0.00     0.029 C 
ENDBRANCH  28  29
ENDBRANCH  26  28
ENDBRANCH  23  26
ENDBRANCH  18  20
ENDBRANCH  16  17
ENDBRANCH   6  16
TORSDOF 6
