REMARK  4 active torsions:
REMARK  status: ('A' for Active; 'I' for Inactive)
REMARK    1  A    between atoms: C_9  and  N_2 
REMARK    2  A    between atoms: C_7  and  O_10 
REMARK    3  A    between atoms: C_11  and  C_9 
REMARK    4  A    between atoms: O_10  and  C_11 
ROOT
ATOM      1  C   UNL d   1       4.491  -5.114   0.000  0.00  0.00     0.378 A 
ATOM      2  N   UNL d   1       4.000  -4.441   0.000  0.00  0.00    -0.249 N 
ATOM      3  O   UNL d   1       4.005  -5.787   0.000  0.00  0.00    -0.258 OA
ATOM      4  C   UNL d   1       3.215  -4.702   0.000  0.00  0.00     0.092 A 
ATOM      5  C   UNL d   1       3.220  -5.533   0.000  0.00  0.00     0.121 A 
ATOM      6  O   UNL d   1       5.313  -5.101   0.000  0.00  0.00    -0.237 OA
ATOM      7  C   UNL d   1       2.497  -4.291   0.000  0.00  0.00     0.020 A 
ATOM      8  C   UNL d   1       2.497  -5.945   0.000  0.00  0.00     0.026 A 
ATOM      9  C   UNL d   1       1.786  -4.711   0.000  0.00  0.00     0.002 A 
ATOM     10  C   UNL d   1       1.786  -5.533   0.000  0.00  0.00     0.002 A 
ENDROOT
BRANCH   2  11
ATOM     11  C   UNL d   1       4.212  -3.643   0.000  0.00  0.00     0.112 C 
BRANCH  11  12
ATOM     12  C   UNL d   1       5.002  -3.431   0.000  0.00  0.00     0.142 C 
BRANCH  12  13
ATOM     13  O   UNL d   1       5.213  -2.634   0.000  0.00  0.00    -0.304 OA
BRANCH  13  14
ATOM     14  C   UNL d   1       6.011  -2.418   0.000  0.00  0.00     0.100 A 
ATOM     15  C   UNL d   1       6.210  -1.624   0.000  0.00  0.00     0.023 A 
ATOM     16  C   UNL d   1       5.625  -1.047   0.000  0.00  0.00     0.002 C 
ATOM     17  C   UNL d   1       7.008  -1.400   0.000  0.00  0.00     0.002 A 
ATOM     18  C   UNL d   1       7.594  -1.986   0.000  0.00  0.00     0.000 A 
ATOM     19  C   UNL d   1       7.382  -2.783   0.000  0.00  0.00     0.002 A 
ATOM     20  C   UNL d   1       6.593  -2.995   0.000  0.00  0.00     0.025 A 
ENDBRANCH  13  14
ENDBRANCH  12  13
ENDBRANCH  11  12
ENDBRANCH   2  11
TORSDOF 4
