REMARK  5 active torsions:
REMARK  status: ('A' for Active; 'I' for Inactive)
REMARK    1  A    between atoms: C_2  and  C_1 
REMARK    2  A    between atoms: C_3  and  C_1 
REMARK    3  A    between atoms: C_4  and  C_2 
REMARK    4  A    between atoms: C_8  and  C_3 
REMARK    5  A    between atoms: O_18  and  C_10 
ROOT
ATOM      1  C   UNL d   1       5.077  -3.624   0.000  0.00  0.00     0.196 C 
ATOM      2  O   UNL d   1       5.077  -2.797   0.000  0.00  0.00    -0.287 OA
ENDROOT
BRANCH   1   3
ATOM      3  C   UNL d   1       5.791  -4.038   0.000  0.00  0.00     0.042 C 
BRANCH   3   4
ATOM      4  C   UNL d   1       6.589  -3.820   0.000  0.00  0.00     0.003 C 
BRANCH   4   5
ATOM      5  C   UNL d   1       7.303  -4.234   0.000  0.00  0.00     0.000 A 
ATOM      6  C   UNL d   1       7.294  -5.061   0.000  0.00  0.00     0.003 A 
ATOM      7  C   UNL d   1       8.008  -5.478   0.000  0.00  0.00     0.042 A 
ATOM      8  C   UNL d   1       8.722  -5.065   0.000  0.00  0.00     0.196 A 
ATOM      9  C   UNL d   1       8.722  -4.238   0.000  0.00  0.00     0.042 A 
ATOM     10  O   UNL d   1       9.436  -5.478   0.000  0.00  0.00    -0.287 OA
ATOM     11  C   UNL d   1       8.017  -3.825   0.000  0.00  0.00     0.003 A 
ENDBRANCH   4   5
ENDBRANCH   3   4
ENDBRANCH   1   3
BRANCH   1  12
ATOM     12  C   UNL d   1       4.351  -4.025   0.000  0.00  0.00     0.039 A 
ATOM     13  C   UNL d   1       3.637  -3.612   0.000  0.00  0.00     0.005 A 
ATOM     14  C   UNL d   1       2.923  -4.025   0.000  0.00  0.00     0.024 A 
ATOM     15  C   UNL d   1       2.923  -4.852   0.000  0.00  0.00     0.094 A 
ATOM     16  C   UNL d   1       3.649  -5.265   0.000  0.00  0.00     0.024 A 
ATOM     17  C   UNL d   1       4.359  -4.852   0.000  0.00  0.00     0.005 A 
BRANCH  15  18
ATOM     18  O   UNL d   1       2.209  -5.265   0.000  0.00  0.00    -0.328 OA
ATOM     19  C   UNL d   1       1.495  -4.852   0.000  0.00  0.00     0.181 C 
ENDBRANCH  15  18
ENDBRANCH   1  12
TORSDOF 5
