REMARK  3 active torsions:
REMARK  status: ('A' for Active; 'I' for Inactive)
REMARK    1  A    between atoms: C_4  and  C_1 
REMARK       I    between atoms: N_7  and  C_4 
REMARK    2  A    between atoms: C_9  and  N_7 
REMARK    3  A    between atoms: N_8  and  C_11 
ROOT
ATOM      1  C   UNL d   1       5.098  -4.797   0.000  0.00  0.00     0.263 C 
ATOM      2  N   UNL d   1       5.804  -4.376   0.000  0.00  0.00    -0.210 NA
ATOM      3  O   UNL d   1       5.102  -5.624   0.000  0.00  0.00    -0.270 OA
ENDROOT
BRANCH   1   4
ATOM      4  C   UNL d   1       4.509  -4.213   0.000  0.00  0.00     0.113 A 
ATOM      5  C   UNL d   1       3.311  -3.470   0.000  0.00  0.00     0.025 A 
ATOM      6  C   UNL d   1       4.038  -3.708   0.000  0.00  0.00     0.074 A 
ATOM      7  C   UNL d   1       2.509  -3.687   0.000  0.00  0.00     0.002 C 
ATOM      8  C   UNL d   1       3.086  -2.672   0.000  0.00  0.00     0.002 C 
ATOM      9  C   UNL d   1       3.950  -2.885   0.000  0.00  0.00     0.012 C 
ATOM     10  C   UNL d   1       4.113  -4.426   0.000  0.00  0.00    -0.023 A 
ATOM     11  C   UNL d   1       4.772  -3.282   0.000  0.00  0.00     0.172 A 
ATOM     12  C   UNL d   1       4.476  -5.015   0.000  0.00  0.00    -0.018 A 
ATOM     13  C   UNL d   1       5.136  -3.800   0.000  0.00  0.00     0.024 A 
ATOM     14  O   UNL d   1       4.948  -2.472   0.000  0.00  0.00    -0.291 OA
ENDBRANCH   1   4
BRANCH   2  15
ATOM     15  C   UNL d   1       6.526  -4.789   0.000  0.00  0.00     0.100 A 
ATOM     16  C   UNL d   1       7.232  -4.363   0.000  0.00  0.00     0.082 A 
ATOM     17  C   UNL d   1       7.946  -4.772   0.000  0.00  0.00     0.019 A 
ATOM     18  C   UNL d   1       7.958  -5.603   0.000  0.00  0.00     0.002 A 
ATOM     19  C   UNL d   1       7.244  -6.017   0.000  0.00  0.00     0.002 A 
ATOM     20  C   UNL d   1       6.530  -5.612   0.000  0.00  0.00     0.021 A 
BRANCH  16  21
ATOM     21  N   UNL d   1       7.219  -3.537   0.000  0.00  0.00    -0.302 N 
ATOM     22  C   UNL d   1       7.883  -3.048   0.000  0.00  0.00     0.080 A 
ATOM     23  C   UNL d   1       7.620  -2.259   0.000  0.00  0.00     0.021 A 
ATOM     24  C   UNL d   1       6.793  -2.271   0.000  0.00  0.00     0.021 A 
ATOM     25  C   UNL d   1       6.543  -3.061   0.000  0.00  0.00     0.080 A 
ENDBRANCH  16  21
ENDBRANCH   2  15
TORSDOF 3
