REMARK  5 active torsions:
REMARK  status: ('A' for Active; 'I' for Inactive)
REMARK    1  A    between atoms: C_5  and  N_1 
REMARK    2  A    between atoms: C_2  and  C_7 
REMARK    3  A    between atoms: C_9  and  C_2 
REMARK    4  A    between atoms: C_3  and  C_4 
REMARK    5  A    between atoms: C_7  and  C_8 
ROOT
ATOM      1  C   UNL d   1       5.197  -1.652   0.000  0.00  0.00     0.100 C 
ATOM      2  C   UNL d   1       5.035  -0.841   0.000  0.00  0.00     0.103 C 
ATOM      3  N   UNL d   1       4.873  -0.029   0.000  0.00  0.00    -0.191 NA
ENDROOT
BRANCH   1   4
ATOM      4  C   UNL d   1       4.581  -2.197   0.000  0.00  0.00     0.037 C 
BRANCH   4   5
ATOM      5  C   UNL d   1       3.799  -1.935   0.000  0.00  0.00     0.101 A 
ATOM      6  O   UNL d   1       3.125  -2.409   0.000  0.00  0.00    -0.307 OA
ATOM      7  C   UNL d   1       2.472  -1.910   0.000  0.00  0.00     0.102 A 
ATOM      8  C   UNL d   1       2.738  -1.128   0.000  0.00  0.00     0.027 A 
ATOM      9  C   UNL d   1       3.549  -1.136   0.000  0.00  0.00     0.027 A 
BRANCH   7  10
ATOM     10  C   UNL d   1       1.685  -2.151   0.000  0.00  0.00     0.045 A 
ATOM     11  C   UNL d   1       1.078  -1.590   0.000  0.00  0.00     0.129 A 
ATOM     12  C   UNL d   1       0.291  -1.827   0.000  0.00  0.00     0.024 A 
ATOM     13  C   UNL d   1       0.104  -2.634   0.000  0.00  0.00     0.002 A 
ATOM     14  C   UNL d   1       0.703  -3.200   0.000  0.00  0.00     0.000 A 
ATOM     15  C   UNL d   1      -0.682  -2.875   0.000  0.00  0.00     0.000 C 
ATOM     16  C   UNL d   1       1.498  -2.958   0.000  0.00  0.00     0.004 A 
BRANCH  11  17
ATOM     17  N   UNL d   1       1.265  -0.786   0.000  0.00  0.00    -0.114 N 
ATOM     18  O   UNL d   1       2.051  -0.541   0.000  0.00  0.00    -0.532 OA
ATOM     19  O   UNL d   1       0.666  -0.216   0.000  0.00  0.00    -0.532 OA
ENDBRANCH  11  17
ENDBRANCH   7  10
ENDBRANCH   4   5
ENDBRANCH   1   4
BRANCH   1  20
ATOM     20  C   UNL d   1       5.979  -1.914   0.000  0.00  0.00     0.167 C 
ATOM     21  S   UNL d   1       6.142  -2.725   0.000  0.00  0.00    -0.055 SA
ATOM     22  N   UNL d   1       6.595  -1.373   0.000  0.00  0.00    -0.136 N 
ENDBRANCH   1  20
TORSDOF 5
