REMARK  3 active torsions:
REMARK  status: ('A' for Active; 'I' for Inactive)
REMARK    1  A    between atoms: C_7  and  C_3 
REMARK       I    between atoms: N_10  and  C_7 
REMARK    2  A    between atoms: C_16  and  N_10 
REMARK    3  A    between atoms: C_15  and  C_16 
ROOT
ATOM      1  C   UNL d   1       5.529  -2.438   0.000  0.00  0.00     0.063 A 
ATOM      2  C   UNL d   1       6.317  -2.179   0.000  0.00  0.00     0.033 A 
ATOM      3  C   UNL d   1       6.804  -2.850   0.000  0.00  0.00     0.158 A 
ATOM      4  C   UNL d   1       5.529  -3.263   0.000  0.00  0.00     0.099 A 
ATOM      5  O   UNL d   1       6.317  -3.517   0.000  0.00  0.00    -0.302 OA
ATOM      6  C   UNL d   1       4.817  -2.013   0.000  0.00  0.00     0.194 A 
ATOM      7  C   UNL d   1       4.817  -3.667   0.000  0.00  0.00     0.002 A 
ATOM      8  C   UNL d   1       4.104  -3.267   0.000  0.00  0.00     0.042 A 
ATOM      9  C   UNL d   1       4.104  -2.438   0.000  0.00  0.00     0.019 A 
ATOM     10  O   UNL d   1       4.817  -1.179   0.000  0.00  0.00    -0.287 OA
ATOM     11  C   UNL d   1       6.729  -1.462   0.000  0.00  0.00     0.002 C 
ATOM     12  C   UNL d   1       3.275  -3.267   0.000  0.00  0.00     0.009 C 
ATOM     13  C   UNL d   1       3.888  -4.062   0.000  0.00  0.00     0.009 C 
ENDROOT
BRANCH   3  14
ATOM     14  C   UNL d   1       7.629  -2.854   0.000  0.00  0.00     0.302 C 
ATOM     15  N   UNL d   1       8.050  -2.138   0.000  0.00  0.00    -0.205 NA
ATOM     16  O   UNL d   1       8.042  -3.575   0.000  0.00  0.00    -0.263 OA
BRANCH  15  17
ATOM     17  C   UNL d   1       8.875  -2.138   0.000  0.00  0.00     0.104 C 
BRANCH  17  18
ATOM     18  C   UNL d   1       9.287  -1.425   0.000  0.00  0.00     0.038 A 
ATOM     19  C   UNL d   1      10.113  -1.429   0.000  0.00  0.00     0.101 A 
ATOM     20  N   UNL d   1      10.517  -0.717   0.000  0.00  0.00    -0.242 NA
ATOM     21  C   UNL d   1      10.117  -0.004   0.000  0.00  0.00     0.099 A 
ATOM     22  C   UNL d   1       9.287  -0.004   0.000  0.00  0.00     0.021 A 
ATOM     23  C   UNL d   1       8.875  -0.717   0.000  0.00  0.00     0.005 A 
ENDBRANCH  17  18
ENDBRANCH  15  17
ENDBRANCH   3  14
TORSDOF 3
