REMARK  3 active torsions:
REMARK  status: ('A' for Active; 'I' for Inactive)
REMARK    1  A    between atoms: C_6  and  C_1 
REMARK       I    between atoms: N_10  and  C_6 
REMARK    2  A    between atoms: C_23  and  N_10 
REMARK    3  A    between atoms: C_22  and  C_23 
ROOT
ATOM      1  C   UNL d   1       6.141  -3.179   0.000  0.00  0.00     0.266 C 
ATOM      2  N   UNL d   1       6.856  -2.778   0.000  0.00  0.00    -0.210 NA
ATOM      3  O   UNL d   1       6.287  -3.982   0.000  0.00  0.00    -0.269 OA
ENDROOT
BRANCH   1   4
ATOM      4  C   UNL d   1       5.471  -2.715   0.000  0.00  0.00     0.150 A 
ATOM      5  C   UNL d   1       4.158  -2.121   0.000  0.00  0.00     0.028 A 
ATOM      6  C   UNL d   1       4.869  -2.183   0.000  0.00  0.00     0.078 A 
ATOM      7  C   UNL d   1       3.355  -2.326   0.000  0.00  0.00     0.002 C 
ATOM      8  C   UNL d   1       4.007  -1.309   0.000  0.00  0.00     0.002 C 
ATOM      9  C   UNL d   1       4.710  -1.372   0.000  0.00  0.00     0.012 C 
ATOM     10  C   UNL d   1       4.974  -2.953   0.000  0.00  0.00    -0.023 A 
ATOM     11  C   UNL d   1       5.325  -1.510   0.000  0.00  0.00     0.211 A 
ATOM     12  C   UNL d   1       5.476  -3.451   0.000  0.00  0.00    -0.015 A 
ATOM     13  C   UNL d   1       5.902  -2.062   0.000  0.00  0.00     0.219 A 
ATOM     14  O   UNL d   1       5.174  -0.694   0.000  0.00  0.00    -0.288 OA
ATOM     15  O   UNL d   1       6.367  -1.393   0.000  0.00  0.00    -0.287 OA
ENDBRANCH   1   4
BRANCH   2  16
ATOM     16  C   UNL d   1       7.567  -3.200   0.000  0.00  0.00     0.102 C 
BRANCH  16  17
ATOM     17  C   UNL d   1       8.387  -3.142   0.000  0.00  0.00     0.021 A 
ATOM     18  C   UNL d   1       8.847  -3.832   0.000  0.00  0.00     0.028 A 
ATOM     19  C   UNL d   1       9.680  -3.777   0.000  0.00  0.00     0.119 A 
ATOM     20  O   UNL d   1      10.269  -4.346   0.000  0.00  0.00    -0.300 OA
ATOM     21  C   UNL d   1      10.043  -3.029   0.000  0.00  0.00     0.119 A 
ATOM     22  C   UNL d   1      10.997  -3.966   0.000  0.00  0.00     0.304 A 
ATOM     23  O   UNL d   1      10.859  -3.150   0.000  0.00  0.00    -0.300 OA
ATOM     24  C   UNL d   1       9.575  -2.347   0.000  0.00  0.00     0.026 A 
ATOM     25  C   UNL d   1       8.751  -2.401   0.000  0.00  0.00     0.004 A 
ENDBRANCH  16  17
ENDBRANCH   2  16
TORSDOF 3
