REMARK  8 active torsions:
REMARK  status: ('A' for Active; 'I' for Inactive)
REMARK    1  A    between atoms: C_6  and  N_1 
REMARK    2  A    between atoms: S_10  and  C_2 
REMARK    3  A    between atoms: C_12  and  C_3 
REMARK    4  A    between atoms: C_7  and  C_8 
REMARK    5  A    between atoms: C_21  and  S_10 
REMARK    6  A    between atoms: O_15  and  C_12 
REMARK    7  A    between atoms: C_13  and  C_21 
REMARK    8  A    between atoms: C_16  and  O_15 
ROOT
ATOM      1  N   UNL d   1       2.922  -0.093   0.000  0.00  0.00    -0.268 N 
ATOM      2  C   UNL d   1       3.354   0.656   0.000  0.00  0.00     0.198 A 
ATOM      3  C   UNL d   1       2.075   0.085   0.000  0.00  0.00     0.196 A 
ATOM      4  N   UNL d   1       2.769   1.304   0.000  0.00  0.00    -0.122 NA
ATOM      5  N   UNL d   1       1.982   0.940   0.000  0.00  0.00    -0.126 NA
ENDROOT
BRANCH   3   6
ATOM      6  C   UNL d   1       1.435  -0.500   0.000  0.00  0.00     0.162 C 
BRANCH   6   7
ATOM      7  O   UNL d   1       0.610  -0.233   0.000  0.00  0.00    -0.300 OA
BRANCH   7   8
ATOM      8  C   UNL d   1      -0.102  -0.648   0.000  0.00  0.00     0.118 A 
ATOM      9  C   UNL d   1      -0.813  -0.233   0.000  0.00  0.00     0.104 A 
ATOM     10  N   UNL d   1      -0.813   0.593   0.000  0.00  0.00    -0.242 NA
ATOM     11  C   UNL d   1      -1.533  -0.648   0.000  0.00  0.00     0.020 A 
ATOM     12  C   UNL d   1      -1.533   0.999   0.000  0.00  0.00     0.099 A 
ATOM     13  C   UNL d   1      -2.236   0.584   0.000  0.00  0.00     0.021 A 
ATOM     14  C   UNL d   1      -2.236  -0.233   0.000  0.00  0.00     0.003 A 
ATOM     15  C   UNL d   1      -1.533  -1.465   0.000  0.00  0.00     0.002 A 
ATOM     16  C   UNL d   1      -0.822  -1.880   0.000  0.00  0.00     0.002 A 
ATOM     17  C   UNL d   1      -0.097  -1.465   0.000  0.00  0.00     0.026 A 
ENDBRANCH   7   8
ENDBRANCH   6   7
ENDBRANCH   3   6
BRANCH   1  18
ATOM     18  C   UNL d   1       3.256  -0.843   0.000  0.00  0.00     0.067 A 
ATOM     19  C   UNL d   1       4.069  -0.927   0.000  0.00  0.00     0.021 A 
ATOM     20  C   UNL d   1       4.408  -1.668   0.000  0.00  0.00     0.073 A 
ATOM     21  C   UNL d   1       3.925  -2.342   0.000  0.00  0.00     0.004 A 
ATOM     22  C   UNL d   1       3.104  -2.253   0.000  0.00  0.00     0.001 A 
ATOM     23  C   UNL d   1       2.774  -1.512   0.000  0.00  0.00     0.018 A 
BRANCH  20  24
ATOM     24  C   UNL d   1       5.238  -1.753   0.000  0.00  0.00     0.419 C 
ATOM     25  F   UNL d   1       6.000  -1.829   0.000  0.00  0.00    -0.166 F 
ATOM     26  F   UNL d   1       5.729  -2.482   0.000  0.00  0.00    -0.166 F 
ATOM     27  F   UNL d   1       5.861  -1.131   0.000  0.00  0.00    -0.166 F 
ENDBRANCH  20  24
ENDBRANCH   1  18
BRANCH   2  28
ATOM     28  S   UNL d   1       4.209   0.745   0.000  0.00  0.00    -0.064 SA
BRANCH  28  29
ATOM     29  C   UNL d   1       4.726   0.051   0.000  0.00  0.00     0.162 C 
BRANCH  29  30
ATOM     30  C   UNL d   1       5.581   0.140   0.000  0.00  0.00     0.197 C 
ATOM     31  O   UNL d   1       6.089  -0.563   0.000  0.00  0.00    -0.647 OA
ATOM     32  O   UNL d   1       5.933   0.927   0.000  0.00  0.00    -0.647 OA
ENDBRANCH  29  30
ENDBRANCH  28  29
ENDBRANCH   2  28
TORSDOF 8
