REMARK  3 active torsions:
REMARK  status: ('A' for Active; 'I' for Inactive)
REMARK    1  A    between atoms: C_2  and  C_1 
REMARK       I    between atoms: N_7  and  C_2 
REMARK    2  A    between atoms: C_9  and  N_7 
REMARK    3  A    between atoms: O_13  and  C_11 
ROOT
ATOM      1  C   UNL d   1       3.936  -0.781   0.000  0.00  0.00     0.280 C 
ATOM      2  N   UNL d   1       4.738  -0.605   0.000  0.00  0.00    -0.208 NA
ATOM      3  O   UNL d   1       3.381  -0.175   0.000  0.00  0.00    -0.265 OA
ENDROOT
BRANCH   1   4
ATOM      4  C   UNL d   1       3.686  -1.569   0.000  0.00  0.00     0.065 A 
ATOM      5  C   UNL d   1       2.909  -1.833   0.000  0.00  0.00     0.011 A 
ATOM      6  C   UNL d   1       2.909  -2.659   0.000  0.00  0.00     0.030 A 
ATOM      7  C   UNL d   1       2.196  -1.419   0.000  0.00  0.00     0.001 A 
ATOM      8  C   UNL d   1       2.196  -3.072   0.000  0.00  0.00     0.006 A 
ATOM      9  S   UNL d   1       3.698  -2.922   0.000  0.00  0.00    -0.086 SA
ATOM     10  C   UNL d   1       1.482  -2.659   0.000  0.00  0.00     0.001 A 
ATOM     11  C   UNL d   1       1.482  -1.833   0.000  0.00  0.00     0.000 A 
ATOM     12  C   UNL d   1       4.187  -2.254   0.000  0.00  0.00     0.040 A 
ENDBRANCH   1   4
BRANCH   2  13
ATOM     13  C   UNL d   1       5.301  -1.219   0.000  0.00  0.00     0.087 A 
ATOM     14  C   UNL d   1       6.103  -1.031   0.000  0.00  0.00     0.043 A 
ATOM     15  C   UNL d   1       6.662  -1.645   0.000  0.00  0.00     0.096 A 
ATOM     16  C   UNL d   1       6.412  -2.434   0.000  0.00  0.00     0.024 A 
ATOM     17  C   UNL d   1       5.602  -2.609   0.000  0.00  0.00     0.004 A 
ATOM     18  C   UNL d   1       5.047  -2.004   0.000  0.00  0.00     0.019 A 
BRANCH  15  19
ATOM     19  O   UNL d   1       7.463  -1.457   0.000  0.00  0.00    -0.328 OA
ATOM     20  C   UNL d   1       7.706  -0.668   0.000  0.00  0.00     0.181 C 
ENDBRANCH  15  19
ENDBRANCH   2  13
TORSDOF 3
