REMARK  8 active torsions:
REMARK  status: ('A' for Active; 'I' for Inactive)
REMARK    1  A    between atoms: C_3  and  C_1 
REMARK    2  A    between atoms: N_4  and  C_2 
REMARK    3  A    between atoms: O_21  and  C_3 
REMARK       I    between atoms: C_11  and  N_4 
REMARK    4  A    between atoms: C_6  and  C_7 
REMARK    5  A    between atoms: O_22  and  C_6 
REMARK    6  A    between atoms: C_10  and  C_20 
REMARK    7  A    between atoms: C_19  and  C_11 
REMARK    8  A    between atoms: C_20  and  C_19 
ROOT
ATOM      1  C   UNL d   1       6.085  -0.841   0.000  0.00  0.00     0.081 A 
ATOM      2  C   UNL d   1       5.449  -1.365   0.000  0.00  0.00     0.090 A 
ATOM      3  C   UNL d   1       6.343  -2.472   0.000  0.00  0.00     0.065 A 
ATOM      4  C   UNL d   1       5.573  -2.177   0.000  0.00  0.00     0.025 A 
ATOM      5  C   UNL d   1       6.855  -1.136   0.000  0.00  0.00     0.007 A 
ATOM      6  C   UNL d   1       6.984  -1.952   0.000  0.00  0.00     0.006 A 
ENDROOT
BRANCH   2   7
ATOM      7  N   UNL d   1       4.683  -1.066   0.000  0.00  0.00    -0.208 NA
ATOM      8  C   UNL d   1       4.037  -1.586   0.000  0.00  0.00     0.279 C 
ATOM      9  O   UNL d   1       4.171  -2.402   0.000  0.00  0.00    -0.265 OA
BRANCH   8  10
ATOM     10  C   UNL d   1       3.272  -1.290   0.000  0.00  0.00     0.065 C 
BRANCH  10  11
ATOM     11  C   UNL d   1       2.627  -1.811   0.000  0.00  0.00     0.030 C 
BRANCH  11  12
ATOM     12  C   UNL d   1       1.861  -1.515   0.000  0.00  0.00     0.100 A 
ATOM     13  O   UNL d   1       1.165  -1.960   0.000  0.00  0.00    -0.307 OA
ATOM     14  C   UNL d   1       0.537  -1.440   0.000  0.00  0.00     0.100 A 
ATOM     15  C   UNL d   1      -0.262  -1.648   0.000  0.00  0.00     0.027 C 
ATOM     16  C   UNL d   1       0.828  -0.674   0.000  0.00  0.00     0.027 A 
ATOM     17  C   UNL d   1       1.640  -0.712   0.000  0.00  0.00     0.027 A 
ENDBRANCH  11  12
ENDBRANCH  10  11
ENDBRANCH   8  10
ENDBRANCH   2   7
BRANCH   1  18
ATOM     18  C   UNL d   1       5.948  -0.029   0.000  0.00  0.00     0.297 C 
ATOM     19  O   UNL d   1       5.182   0.262   0.000  0.00  0.00    -0.259 OA
BRANCH  18  20
ATOM     20  O   UNL d   1       6.585   0.495   0.000  0.00  0.00    -0.296 OA
ATOM     21  C   UNL d   1       7.359   0.200   0.000  0.00  0.00     0.185 C 
ENDBRANCH  18  20
ENDBRANCH   1  18
BRANCH   3  22
ATOM     22  C   UNL d   1       6.473  -3.288   0.000  0.00  0.00     0.296 C 
ATOM     23  O   UNL d   1       7.242  -3.588   0.000  0.00  0.00    -0.259 OA
BRANCH  22  24
ATOM     24  O   UNL d   1       5.832  -3.809   0.000  0.00  0.00    -0.296 OA
ATOM     25  C   UNL d   1       5.960  -4.624   0.000  0.00  0.00     0.185 C 
ENDBRANCH  22  24
ENDBRANCH   3  22
TORSDOF 8
