REMARK  2 active torsions:
REMARK  status: ('A' for Active; 'I' for Inactive)
REMARK       I    between atoms: N_2  and  C_1 
REMARK    1  A    between atoms: C_3  and  C_1 
REMARK    2  A    between atoms: C_4  and  N_2 
ROOT
ATOM      1  C   UNL d   1       6.154  -3.129   0.000  0.00  0.00     0.059 A 
ATOM      2  C   UNL d   1       6.867  -3.542   0.000  0.00  0.00     0.025 A 
ATOM      3  C   UNL d   1       7.588  -3.125   0.000  0.00  0.00     0.099 A 
ATOM      4  N   UNL d   1       8.304  -3.538   0.000  0.00  0.00    -0.241 NA
ATOM      5  N   UNL d   1       8.292  -1.879   0.000  0.00  0.00    -0.241 NA
ATOM      6  C   UNL d   1       7.588  -2.300   0.000  0.00  0.00     0.099 A 
ATOM      7  C   UNL d   1       6.154  -2.300   0.000  0.00  0.00     0.006 A 
ATOM      8  C   UNL d   1       6.867  -1.887   0.000  0.00  0.00     0.021 A 
ATOM      9  C   UNL d   1       9.017  -3.117   0.000  0.00  0.00     0.120 A 
ATOM     10  C   UNL d   1       9.012  -2.292   0.000  0.00  0.00     0.120 A 
ENDROOT
BRANCH   1  11
ATOM     11  C   UNL d   1       5.442  -3.542   0.000  0.00  0.00     0.281 C 
ATOM     12  N   UNL d   1       5.442  -4.367   0.000  0.00  0.00    -0.189 NA
ATOM     13  O   UNL d   1       4.729  -3.129   0.000  0.00  0.00    -0.265 OA
BRANCH  12  14
ATOM     14  C   UNL d   1       4.729  -4.779   0.000  0.00  0.00     0.166 A 
ATOM     15  N   UNL d   1       4.017  -4.362   0.000  0.00  0.00    -0.225 NA
ATOM     16  C   UNL d   1       3.300  -4.775   0.000  0.00  0.00     0.107 A 
ATOM     17  C   UNL d   1       3.300  -5.600   0.000  0.00  0.00     0.054 A 
ATOM     18  C   UNL d   1       4.017  -6.013   0.000  0.00  0.00     0.011 A 
ATOM     19 BR   UNL d   1       2.587  -6.013   0.000  0.00  0.00    -0.048 Br
ATOM     20  C   UNL d   1       4.729  -5.600   0.000  0.00  0.00     0.039 A 
ENDBRANCH  12  14
ENDBRANCH   1  11
TORSDOF 2
