REMARK  4 active torsions:
REMARK  status: ('A' for Active; 'I' for Inactive)
REMARK    1  A    between atoms: C_7  and  C_1 
REMARK    2  A    between atoms: C_8  and  C_7 
REMARK       I    between atoms: N_9  and  C_8 
REMARK    3  A    between atoms: C_14  and  N_9 
REMARK    4  A    between atoms: C_15  and  C_14 
ROOT
ATOM      1  C   UNL d   1       1.685   0.632   0.000  0.00  0.00     0.032 A 
ATOM      2  C   UNL d   1       0.899   0.374   0.000  0.00  0.00     0.025 A 
ATOM      3  C   UNL d   1       2.239   0.021   0.000  0.00  0.00     0.123 A 
ATOM      4  O   UNL d   1       1.685  -0.712   0.000  0.00  0.00    -0.305 OA
ATOM      5  C   UNL d   1       0.179   0.782   0.000  0.00  0.00     0.002 A 
ATOM      6  C   UNL d   1       0.899  -0.454   0.000  0.00  0.00     0.100 A 
ATOM      7  C   UNL d   1      -0.533   0.374   0.000  0.00  0.00     0.000 A 
ATOM      8  C   UNL d   1       0.179  -0.866   0.000  0.00  0.00     0.025 A 
ATOM      9  C   UNL d   1      -0.533  -0.454   0.000  0.00  0.00     0.002 A 
ATOM     10  C   UNL d   1       0.179   1.606   0.000  0.00  0.00     0.000 A 
ATOM     11  C   UNL d   1      -1.236   0.782   0.000  0.00  0.00     0.000 A 
ATOM     12  C   UNL d   1      -0.533   2.018   0.000  0.00  0.00     0.000 A 
ATOM     13  C   UNL d   1      -1.244   1.594   0.000  0.00  0.00     0.000 A 
ENDROOT
BRANCH   1  14
ATOM     14  C   UNL d   1       1.939   1.419   0.000  0.00  0.00     0.065 C 
BRANCH  14  15
ATOM     15  C   UNL d   1       2.747   1.594   0.000  0.00  0.00     0.279 C 
ATOM     16  N   UNL d   1       3.300   0.982   0.000  0.00  0.00    -0.206 NA
ATOM     17  O   UNL d   1       3.001   2.372   0.000  0.00  0.00    -0.265 OA
BRANCH  16  18
ATOM     18  C   UNL d   1       4.099   1.149   0.000  0.00  0.00     0.102 C 
BRANCH  18  19
ATOM     19  C   UNL d   1       4.657   0.537   0.000  0.00  0.00     0.019 A 
ATOM     20  C   UNL d   1       4.399  -0.241   0.000  0.00  0.00     0.002 A 
ATOM     21  C   UNL d   1       4.948  -0.853   0.000  0.00  0.00     0.000 A 
ATOM     22  C   UNL d   1       5.755  -0.687   0.000  0.00  0.00     0.000 A 
ATOM     23  C   UNL d   1       6.009   0.108   0.000  0.00  0.00     0.000 A 
ATOM     24  C   UNL d   1       5.456   0.712   0.000  0.00  0.00     0.002 A 
ENDBRANCH  18  19
ENDBRANCH  16  18
ENDBRANCH  14  15
ENDBRANCH   1  14
TORSDOF 4
