REMARK  5 active torsions:
REMARK  status: ('A' for Active; 'I' for Inactive)
REMARK       I    between atoms: N_2  and  C_5 
REMARK    1  A    between atoms: C_3  and  N_2 
REMARK    2  A    between atoms: C_14  and  C_4 
REMARK    3  A    between atoms: C_5  and  C_13 
REMARK    4  A    between atoms: C_17  and  C_6 
REMARK    5  A    between atoms: C_13  and  C_14 
ROOT
ATOM      1  N   UNL d   1       5.897  -2.588   0.000  0.00  0.00    -0.208 NA
ATOM      2  C   UNL d   1       5.293  -2.039   0.000  0.00  0.00     0.279 C 
ATOM      3  O   UNL d   1       5.468  -1.228   0.000  0.00  0.00    -0.265 OA
ENDROOT
BRANCH   2   4
ATOM      4  C   UNL d   1       4.507  -2.289   0.000  0.00  0.00     0.065 C 
BRANCH   4   5
ATOM      5  C   UNL d   1       3.895  -1.735   0.000  0.00  0.00     0.030 C 
BRANCH   5   6
ATOM      6  C   UNL d   1       3.113  -1.985   0.000  0.00  0.00     0.100 A 
ATOM      7  O   UNL d   1       2.439  -1.498   0.000  0.00  0.00    -0.307 OA
ATOM      8  C   UNL d   1       1.777  -1.977   0.000  0.00  0.00     0.100 A 
ATOM      9  C   UNL d   1       2.027  -2.763   0.000  0.00  0.00     0.027 A 
ATOM     10  C   UNL d   1       2.851  -2.763   0.000  0.00  0.00     0.027 A 
BRANCH   8  11
ATOM     11  C   UNL d   1       0.999  -1.715   0.000  0.00  0.00     0.025 C 
ATOM     12  C   UNL d   1       0.379  -2.264   0.000  0.00  0.00     0.002 C 
ENDBRANCH   8  11
ENDBRANCH   5   6
ENDBRANCH   4   5
ENDBRANCH   2   4
BRANCH   1  13
ATOM     13  C   UNL d   1       5.722  -3.396   0.000  0.00  0.00     0.085 A 
ATOM     14  C   UNL d   1       6.334  -3.945   0.000  0.00  0.00     0.018 A 
ATOM     15  C   UNL d   1       6.159  -4.748   0.000  0.00  0.00     0.002 A 
ATOM     16  C   UNL d   1       7.120  -3.687   0.000  0.00  0.00     0.002 C 
ATOM     17  C   UNL d   1       5.373  -4.998   0.000  0.00  0.00     0.000 A 
ATOM     18  C   UNL d   1       4.761  -4.449   0.000  0.00  0.00     0.002 A 
ATOM     19  C   UNL d   1       5.198  -5.810   0.000  0.00  0.00     0.000 C 
ATOM     20  C   UNL d   1       4.944  -3.637   0.000  0.00  0.00     0.019 A 
ENDBRANCH   1  13
TORSDOF 5
