REMARK  7 active torsions:
REMARK  status: ('A' for Active; 'I' for Inactive)
REMARK    1  A    between atoms: C_11  and  C_3 
REMARK    2  A    between atoms: C_10  and  C_5 
REMARK    3  A    between atoms: O_22  and  C_13 
REMARK    4  A    between atoms: O_25  and  C_14 
REMARK    5  A    between atoms: O_24  and  C_15 
REMARK    6  A    between atoms: O_26  and  C_21 
REMARK    7  A    between atoms: C_30  and  O_26 
ROOT
ATOM      1  N   UNL d   1       3.737  -1.382   0.000  0.00  0.00    -0.208 N 
ATOM      2  N   UNL d   1       2.931  -1.219   0.000  0.00  0.00    -0.162 NA
ATOM      3  C   UNL d   1       4.150  -2.096   0.000  0.00  0.00     0.184 A 
ATOM      4  C   UNL d   1       4.150  -0.668   0.000  0.00  0.00     0.088 A 
ATOM      5  C   UNL d   1       2.843  -0.393   0.000  0.00  0.00     0.126 A 
ATOM      6  O   UNL d   1       4.973  -2.096   0.000  0.00  0.00    -0.287 OA
ATOM      7  C   UNL d   1       4.977  -0.668   0.000  0.00  0.00     0.043 A 
ATOM      8  C   UNL d   1       5.386  -1.382   0.000  0.00  0.00     0.126 A 
ATOM      9  C   UNL d   1       3.599  -0.054   0.000  0.00  0.00     0.042 A 
ATOM     10  C   UNL d   1       6.205  -1.390   0.000  0.00  0.00     0.123 A 
ATOM     11  C   UNL d   1       5.386   0.046   0.000  0.00  0.00     0.004 A 
ATOM     12  C   UNL d   1       6.205   0.046   0.000  0.00  0.00     0.002 A 
ATOM     13  C   UNL d   1       6.618  -0.676   0.000  0.00  0.00     0.027 A 
ENDROOT
BRANCH   3  14
ATOM     14  C   UNL d   1       3.737  -2.810   0.000  0.00  0.00     0.045 A 
ATOM     15  C   UNL d   1       2.906  -2.810   0.000  0.00  0.00     0.030 A 
ATOM     16  C   UNL d   1       2.493  -3.524   0.000  0.00  0.00     0.118 A 
ATOM     17  C   UNL d   1       2.898  -4.238   0.000  0.00  0.00     0.138 A 
ATOM     18  C   UNL d   1       3.733  -4.238   0.000  0.00  0.00     0.118 A 
ATOM     19  C   UNL d   1       4.146  -3.524   0.000  0.00  0.00     0.030 A 
BRANCH  16  20
ATOM     20  O   UNL d   1       1.670  -3.520   0.000  0.00  0.00    -0.326 OA
ATOM     21  C   UNL d   1       1.253  -4.234   0.000  0.00  0.00     0.181 C 
ENDBRANCH  16  20
BRANCH  17  22
ATOM     22  O   UNL d   1       2.484  -4.952   0.000  0.00  0.00    -0.324 OA
ATOM     23  C   UNL d   1       2.898  -5.666   0.000  0.00  0.00     0.182 C 
ENDBRANCH  17  22
BRANCH  18  24
ATOM     24  O   UNL d   1       4.146  -4.952   0.000  0.00  0.00    -0.326 OA
ATOM     25  C   UNL d   1       4.973  -4.952   0.000  0.00  0.00     0.181 C 
ENDBRANCH  18  24
ENDBRANCH   3  14
BRANCH   5  26
ATOM     26  C   UNL d   1       2.121   0.021   0.000  0.00  0.00     0.119 A 
ATOM     27  O   UNL d   1       1.369  -0.317   0.000  0.00  0.00    -0.306 OA
ATOM     28  C   UNL d   1       0.818   0.309   0.000  0.00  0.00     0.100 A 
ATOM     29  C   UNL d   1       0.000   0.221   0.000  0.00  0.00     0.027 C 
ATOM     30  C   UNL d   1       1.240   1.023   0.000  0.00  0.00     0.027 A 
ATOM     31  C   UNL d   1       2.042   0.860   0.000  0.00  0.00     0.028 A 
ENDBRANCH   5  26
BRANCH  10  32
ATOM     32  O   UNL d   1       6.618  -2.104   0.000  0.00  0.00    -0.303 OA
BRANCH  32  33
ATOM     33  C   UNL d   1       7.445  -2.109   0.000  0.00  0.00     0.123 C 
ATOM     34  C   UNL d   1       7.854  -2.822   0.000  0.00  0.00     0.029 C 
ENDBRANCH  32  33
ENDBRANCH  10  32
TORSDOF 7
