REMARK  4 active torsions:
REMARK  status: ('A' for Active; 'I' for Inactive)
REMARK    1  A    between atoms: C_9  and  C_2 
REMARK    2  A    between atoms: C_7  and  C_9 
REMARK       I    between atoms: N_13  and  C_7 
REMARK    3  A    between atoms: C_10  and  C_19 
REMARK    4  A    between atoms: C_19  and  N_13 
ROOT
ATOM      1  C   UNL d   1       2.583  -3.890   0.000  0.00  0.00     0.100 A 
ATOM      2  C   UNL d   1       3.579  -3.006   0.000  0.00  0.00     0.032 A 
ATOM      3  O   UNL d   1       3.292  -4.301   0.000  0.00  0.00    -0.305 OA
ATOM      4  C   UNL d   1       2.757  -3.081   0.000  0.00  0.00     0.025 A 
ATOM      5  C   UNL d   1       3.915  -3.753   0.000  0.00  0.00     0.123 A 
ATOM      6  C   UNL d   1       1.798  -4.148   0.000  0.00  0.00     0.023 A 
ATOM      7  C   UNL d   1       2.147  -2.533   0.000  0.00  0.00     0.002 A 
ATOM      8  C   UNL d   1       1.183  -3.591   0.000  0.00  0.00     0.002 A 
ATOM      9  C   UNL d   1       1.362  -2.782   0.000  0.00  0.00     0.000 A 
ATOM     10  C   UNL d   1       1.623  -4.949   0.000  0.00  0.00     0.002 C 
ATOM     11  C   UNL d   1       0.403  -3.841   0.000  0.00  0.00     0.000 C 
ENDROOT
BRANCH   2  12
ATOM     12  C   UNL d   1       4.003  -2.292   0.000  0.00  0.00     0.065 C 
BRANCH  12  13
ATOM     13  C   UNL d   1       4.825  -2.292   0.000  0.00  0.00     0.279 C 
ATOM     14  N   UNL d   1       5.236  -1.582   0.000  0.00  0.00    -0.204 NA
ATOM     15  O   UNL d   1       5.236  -3.006   0.000  0.00  0.00    -0.265 OA
BRANCH  14  16
ATOM     16  C   UNL d   1       4.837  -0.864   0.000  0.00  0.00     0.127 C 
BRANCH  16  17
ATOM     17  C   UNL d   1       5.248  -0.154   0.000  0.00  0.00     0.119 A 
ATOM     18  O   UNL d   1       4.924   0.594   0.000  0.00  0.00    -0.304 OA
ATOM     19  C   UNL d   1       5.543   1.146   0.000  0.00  0.00     0.123 A 
ATOM     20  C   UNL d   1       6.257   0.731   0.000  0.00  0.00     0.029 A 
ATOM     21  C   UNL d   1       6.078  -0.075   0.000  0.00  0.00     0.028 A 
ENDBRANCH  16  17
ENDBRANCH  14  16
ENDBRANCH  12  13
ENDBRANCH   2  12
TORSDOF 4
