REMARK  8 active torsions:
REMARK  status: ('A' for Active; 'I' for Inactive)
REMARK    1  A    between atoms: C_2  and  C_8 
REMARK    2  A    between atoms: O_17  and  C_2 
REMARK    3  A    between atoms: C_15  and  C_3 
REMARK    4  A    between atoms: C_20  and  C_4 
REMARK    5  A    between atoms: C_5  and  C_16 
REMARK       I    between atoms: N_9  and  C_5 
REMARK    6  A    between atoms: C_14  and  N_9 
REMARK    7  A    between atoms: C_16  and  C_15 
REMARK    8  A    between atoms: C_21  and  O_17 
ROOT
ATOM      1  C   UNL d   1       5.297  -2.040   0.000  0.00  0.00     0.279 C 
ATOM      2  N   UNL d   1       5.901  -2.590   0.000  0.00  0.00    -0.208 NA
ATOM      3  O   UNL d   1       5.472  -1.228   0.000  0.00  0.00    -0.265 OA
ENDROOT
BRANCH   2   4
ATOM      4  C   UNL d   1       5.726  -3.398   0.000  0.00  0.00     0.085 A 
ATOM      5  C   UNL d   1       6.338  -3.948   0.000  0.00  0.00     0.019 A 
ATOM      6  C   UNL d   1       6.163  -4.751   0.000  0.00  0.00     0.007 A 
ATOM      7  C   UNL d   1       5.376  -5.001   0.000  0.00  0.00     0.064 A 
ATOM      8  C   UNL d   1       4.764  -4.452   0.000  0.00  0.00     0.007 A 
ATOM      9  C   UNL d   1       4.947  -3.639   0.000  0.00  0.00     0.019 A 
BRANCH   7  10
ATOM     10  C   UNL d   1       5.201  -5.813   0.000  0.00  0.00     0.300 C 
ATOM     11  O   UNL d   1       5.813  -6.363   0.000  0.00  0.00    -0.259 OA
BRANCH  10  12
ATOM     12  O   UNL d   1       4.422  -6.063   0.000  0.00  0.00    -0.271 OA
BRANCH  12  13
ATOM     13  C   UNL d   1       3.810  -5.509   0.000  0.00  0.00     0.126 C 
ATOM     14  C   UNL d   1       3.023  -5.763   0.000  0.00  0.00     0.029 C 
ENDBRANCH  12  13
ENDBRANCH  10  12
ENDBRANCH   7  10
ENDBRANCH   2   4
BRANCH   1  15
ATOM     15  C   UNL d   1       4.510  -2.290   0.000  0.00  0.00     0.065 C 
BRANCH  15  16
ATOM     16  C   UNL d   1       3.898  -1.736   0.000  0.00  0.00     0.030 C 
BRANCH  16  17
ATOM     17  C   UNL d   1       3.115  -1.986   0.000  0.00  0.00     0.100 A 
ATOM     18  O   UNL d   1       2.440  -1.499   0.000  0.00  0.00    -0.307 OA
ATOM     19  C   UNL d   1       1.778  -1.978   0.000  0.00  0.00     0.100 A 
ATOM     20  C   UNL d   1       2.028  -2.765   0.000  0.00  0.00     0.027 A 
ATOM     21  C   UNL d   1       2.853  -2.765   0.000  0.00  0.00     0.027 A 
BRANCH  19  22
ATOM     22  C   UNL d   1       0.999  -1.716   0.000  0.00  0.00     0.025 C 
ATOM     23  C   UNL d   1       0.379  -2.265   0.000  0.00  0.00     0.002 C 
ENDBRANCH  19  22
ENDBRANCH  16  17
ENDBRANCH  15  16
ENDBRANCH   1  15
TORSDOF 8
