REMARK  5 active torsions:
REMARK  status: ('A' for Active; 'I' for Inactive)
REMARK    1  A    between atoms: C_3  and  N_1 
REMARK    2  A    between atoms: C_4  and  N_1 
REMARK    3  A    between atoms: N_7  and  C_3 
REMARK    4  A    between atoms: C_10  and  N_7 
REMARK    5  A    between atoms: C_8  and  C_10 
ROOT
ATOM      1  N   UNL d   1       5.028  -3.304   0.000  0.00  0.00    -0.198 NA
ENDROOT
BRANCH   1   2
ATOM      2  C   UNL d   1       5.830  -3.523   0.000  0.00  0.00     0.222 C 
ATOM      3  S   UNL d   1       6.033  -4.284   0.000  0.00  0.00    -0.037 SA
BRANCH   2   4
ATOM      4  N   UNL d   1       6.393  -2.957   0.000  0.00  0.00    -0.216 NA
BRANCH   4   5
ATOM      5  C   UNL d   1       7.187  -3.167   0.000  0.00  0.00     0.101 C 
BRANCH   5   6
ATOM      6  C   UNL d   1       7.406  -3.974   0.000  0.00  0.00     0.019 C 
ATOM      7  C   UNL d   1       8.204  -4.185   0.000  0.00  0.00     0.002 C 
ATOM      8  C   UNL d   1       6.823  -4.557   0.000  0.00  0.00     0.002 C 
ENDBRANCH   5   6
ENDBRANCH   4   5
ENDBRANCH   2   4
ENDBRANCH   1   2
BRANCH   1   9
ATOM      9  C   UNL d   1       4.445  -3.887   0.000  0.00  0.00     0.167 A 
ATOM     10  N   UNL d   1       3.647  -3.676   0.000  0.00  0.00    -0.206 NA
ATOM     11  C   UNL d   1       3.064  -4.259   0.000  0.00  0.00     0.185 A 
ATOM     12  N   UNL d   1       2.274  -4.036   0.000  0.00  0.00    -0.127 N 
ATOM     13  C   UNL d   1       3.279  -5.053   0.000  0.00  0.00     0.041 A 
ATOM     14  C   UNL d   1       4.081  -5.272   0.000  0.00  0.00     0.006 A 
ATOM     15  C   UNL d   1       4.664  -4.681   0.000  0.00  0.00     0.039 A 
ENDBRANCH   1   9
TORSDOF 5
