REMARK  3 active torsions:
REMARK  status: ('A' for Active; 'I' for Inactive)
REMARK    1  A    between atoms: C_6  and  C_1 
REMARK    2  A    between atoms: C_7  and  C_3 
REMARK    3  A    between atoms: C_11  and  C_7 
ROOT
ATOM      1  C   UNL d   1       3.733   1.431   0.000  0.00  0.00     0.085 A 
ATOM      2  C   UNL d   1       3.993   0.652   0.000  0.00  0.00     0.137 A 
ATOM      3  C   UNL d   1       2.667   0.640   0.000  0.00  0.00     0.031 A 
ATOM      4  S   UNL d   1       3.326   0.166   0.000  0.00  0.00    -0.066 SA
ATOM      5  C   UNL d   1       2.908   1.431   0.000  0.00  0.00     0.013 A 
ATOM      6  N   UNL d   1       4.796   0.426   0.000  0.00  0.00    -0.141 N 
ATOM      7  C   UNL d   1       2.430   2.068   0.000  0.00  0.00     0.001 C 
ENDROOT
BRANCH   3   8
ATOM      8  C   UNL d   1       1.857   0.460   0.000  0.00  0.00     0.006 C 
BRANCH   8   9
ATOM      9  C   UNL d   1       1.597  -0.320   0.000  0.00  0.00     0.001 A 
ATOM     10  C   UNL d   1       2.140  -0.930   0.000  0.00  0.00     0.000 A 
ATOM     11  C   UNL d   1       1.869  -1.722   0.000  0.00  0.00     0.000 A 
ATOM     12  C   UNL d   1       1.066  -1.865   0.000  0.00  0.00     0.000 A 
ATOM     13  C   UNL d   1       0.512  -1.247   0.000  0.00  0.00     0.000 A 
ATOM     14  C   UNL d   1       0.784  -0.490   0.000  0.00  0.00     0.000 A 
ENDBRANCH   8   9
ENDBRANCH   3   8
BRANCH   1  15
ATOM     15  C   UNL d   1       4.238   2.098   0.000  0.00  0.00     0.299 C 
ATOM     16  O   UNL d   1       5.052   2.023   0.000  0.00  0.00    -0.264 OA
ATOM     17  N   UNL d   1       3.876   2.867   0.000  0.00  0.00    -0.102 N 
ENDBRANCH   1  15
TORSDOF 3
