REMARK  5 active torsions:
REMARK  status: ('A' for Active; 'I' for Inactive)
REMARK    1  A    between atoms: C_6  and  N_1 
REMARK    2  A    between atoms: C_8  and  C_4 
REMARK    3  A    between atoms: C_13  and  C_8 
REMARK    4  A    between atoms: O_20  and  C_11 
REMARK    5  A    between atoms: O_21  and  C_16 
ROOT
ATOM      1  N   UNL d   1       6.450  -4.767   0.000  0.00  0.00    -0.231 N 
ATOM      2  C   UNL d   1       6.704  -3.979   0.000  0.00  0.00     0.204 A 
ATOM      3  C   UNL d   1       5.625  -4.767   0.000  0.00  0.00     0.274 A 
ATOM      4  C   UNL d   1       5.367  -3.979   0.000  0.00  0.00     0.089 A 
ATOM      5  S   UNL d   1       6.037  -3.500   0.000  0.00  0.00    -0.043 SA
ATOM      6  N   UNL d   1       7.492  -3.729   0.000  0.00  0.00    -0.121 N 
ATOM      7  O   UNL d   1       5.138  -5.438   0.000  0.00  0.00    -0.266 OA
ENDROOT
BRANCH   4   8
ATOM      8  C   UNL d   1       4.588  -3.729   0.000  0.00  0.00     0.011 C 
BRANCH   8   9
ATOM      9  C   UNL d   1       4.412  -2.925   0.000  0.00  0.00     0.003 A 
ATOM     10  C   UNL d   1       3.629  -2.667   0.000  0.00  0.00     0.026 A 
ATOM     11  C   UNL d   1       3.454  -1.867   0.000  0.00  0.00     0.116 A 
ATOM     12  C   UNL d   1       4.067  -1.304   0.000  0.00  0.00     0.116 A 
ATOM     13  C   UNL d   1       4.854  -1.567   0.000  0.00  0.00     0.026 A 
ATOM     14  C   UNL d   1       5.029  -2.367   0.000  0.00  0.00     0.002 A 
BRANCH  11  15
ATOM     15  O   UNL d   1       2.667  -1.617   0.000  0.00  0.00    -0.326 OA
ATOM     16  C   UNL d   1       2.492  -0.804   0.000  0.00  0.00     0.181 C 
ENDBRANCH  11  15
BRANCH  12  17
ATOM     17  O   UNL d   1       3.900  -0.504   0.000  0.00  0.00    -0.326 OA
ATOM     18  C   UNL d   1       4.513   0.050   0.000  0.00  0.00     0.181 C 
ENDBRANCH  12  17
ENDBRANCH   8   9
ENDBRANCH   4   8
BRANCH   1  19
ATOM     19  C   UNL d   1       6.929  -5.438   0.000  0.00  0.00     0.183 A 
ATOM     20  N   UNL d   1       6.679  -6.217   0.000  0.00  0.00    -0.220 NA
ATOM     21  C   UNL d   1       7.342  -6.704   0.000  0.00  0.00     0.108 A 
ATOM     22  C   UNL d   1       8.012  -6.217   0.000  0.00  0.00     0.059 A 
ATOM     23  S   UNL d   1       7.754  -5.438   0.000  0.00  0.00    -0.048 SA
ENDBRANCH   1  19
TORSDOF 5
