REMARK  6 active torsions:
REMARK  status: ('A' for Active; 'I' for Inactive)
REMARK    1  A    between atoms: C_8  and  C_6 
REMARK    2  A    between atoms: C_10  and  C_8 
REMARK       I    between atoms: N_13  and  C_10 
REMARK    3  A    between atoms: C_11  and  C_14 
REMARK    4  A    between atoms: O_20  and  C_11 
REMARK    5  A    between atoms: C_19  and  N_13 
REMARK    6  A    between atoms: C_23  and  O_20 
ROOT
ATOM      1  C   UNL d   1       6.892  -1.800   0.000  0.00  0.00     0.280 C 
ATOM      2  N   UNL d   1       7.679  -2.054   0.000  0.00  0.00    -0.208 NA
ATOM      3  O   UNL d   1       6.725  -0.992   0.000  0.00  0.00    -0.265 OA
ENDROOT
BRANCH   1   4
ATOM      4  C   UNL d   1       6.279  -2.350   0.000  0.00  0.00     0.074 C 
BRANCH   4   5
ATOM      5  C   UNL d   1       5.492  -2.092   0.000  0.00  0.00     0.095 A 
ATOM      6  C   UNL d   1       4.825  -2.575   0.000  0.00  0.00     0.288 A 
ATOM      7  N   UNL d   1       4.162  -2.092   0.000  0.00  0.00    -0.169 N 
ATOM      8  O   UNL d   1       4.825  -3.400   0.000  0.00  0.00    -0.265 OA
ATOM      9  C   UNL d   1       4.417  -1.304   0.000  0.00  0.00     0.200 A 
ATOM     10  N   UNL d   1       3.337  -2.092   0.000  0.00  0.00    -0.138 NA
ATOM     11  N   UNL d   1       3.750  -0.817   0.000  0.00  0.00    -0.197 NA
ATOM     12  S   UNL d   1       5.242  -1.304   0.000  0.00  0.00    -0.043 SA
ATOM     13  C   UNL d   1       3.079  -1.304   0.000  0.00  0.00     0.222 A 
ENDBRANCH   4   5
ENDBRANCH   1   4
BRANCH   2  14
ATOM     14  C   UNL d   1       7.842  -2.862   0.000  0.00  0.00     0.085 A 
ATOM     15  C   UNL d   1       8.629  -3.117   0.000  0.00  0.00     0.019 A 
ATOM     16  C   UNL d   1       8.804  -3.917   0.000  0.00  0.00     0.007 A 
ATOM     17  C   UNL d   1       8.188  -4.475   0.000  0.00  0.00     0.064 A 
ATOM     18  C   UNL d   1       7.400  -4.217   0.000  0.00  0.00     0.007 A 
ATOM     19  C   UNL d   1       7.229  -3.413   0.000  0.00  0.00     0.019 A 
BRANCH  17  20
ATOM     20  C   UNL d   1       8.354  -5.279   0.000  0.00  0.00     0.300 C 
ATOM     21  O   UNL d   1       9.142  -5.537   0.000  0.00  0.00    -0.259 OA
BRANCH  20  22
ATOM     22  O   UNL d   1       7.742  -5.829   0.000  0.00  0.00    -0.271 OA
BRANCH  22  23
ATOM     23  C   UNL d   1       7.917  -6.638   0.000  0.00  0.00     0.126 C 
ATOM     24  C   UNL d   1       7.304  -7.192   0.000  0.00  0.00     0.029 C 
ENDBRANCH  22  23
ENDBRANCH  20  22
ENDBRANCH  17  20
ENDBRANCH   2  14
TORSDOF 6
