REMARK  5 active torsions:
REMARK  status: ('A' for Active; 'I' for Inactive)
REMARK    1  A    between atoms: N_2  and  S_1 
REMARK    2  A    between atoms: C_11  and  S_1 
REMARK    3  A    between atoms: C_3  and  N_9 
REMARK    4  A    between atoms: N_9  and  N_16 
REMARK    5  A    between atoms: N_16  and  C_23 
ROOT
ATOM      1  C   UNL d   1       1.312   0.666   0.000  0.00  0.00     0.104 A 
ATOM      2  C   UNL d   1       0.876   1.374   0.000  0.00  0.00     0.015 A 
ATOM      3  C   UNL d   1       0.903  -0.051   0.000  0.00  0.00     0.015 A 
ATOM      4  C   UNL d   1      -0.339   0.650   0.000  0.00  0.00     0.103 A 
ATOM      5  C   UNL d   1       0.093  -0.062   0.000  0.00  0.00     0.022 A 
ATOM      6  C   UNL d   1       0.062   1.366   0.000  0.00  0.00     0.022 A 
ENDROOT
BRANCH   1   7
ATOM      7  S   UNL d   1       2.137   0.666   0.000  0.00  0.00     0.271 S 
ATOM      8  O   UNL d   1       2.129   1.495   0.000  0.00  0.00    -0.200 OA
ATOM      9  O   UNL d   1       2.148  -0.144   0.000  0.00  0.00    -0.200 OA
BRANCH   7  10
ATOM     10  N   UNL d   1       2.970   0.673   0.000  0.00  0.00    -0.231 N 
ATOM     11  C   UNL d   1       3.491   0.019   0.000  0.00  0.00     0.075 A 
ATOM     12  C   UNL d   1       4.266   0.300   0.000  0.00  0.00     0.018 A 
ATOM     13  C   UNL d   1       3.332  -0.794   0.000  0.00  0.00     0.018 A 
ATOM     14  C   UNL d   1       4.904  -0.214   0.000  0.00  0.00     0.002 A 
ATOM     15  C   UNL d   1       4.231   1.140   0.000  0.00  0.00     0.021 A 
ATOM     16  C   UNL d   1       4.764  -1.028   0.000  0.00  0.00     0.000 A 
ATOM     17  C   UNL d   1       3.974  -1.312   0.000  0.00  0.00     0.002 A 
ATOM     18  C   UNL d   1       3.456   1.355   0.000  0.00  0.00     0.092 A 
ENDBRANCH   7  10
ENDBRANCH   1   7
BRANCH   4  19
ATOM     19  N   UNL d   1      -1.168   0.650   0.000  0.00  0.00    -0.148 NA
BRANCH  19  20
ATOM     20  N   UNL d   1      -1.572  -0.047   0.000  0.00  0.00    -0.138 NA
BRANCH  20  21
ATOM     21  C   UNL d   1      -2.401  -0.051   0.000  0.00  0.00     0.218 A 
ATOM     22  C   UNL d   1      -2.802   0.638   0.000  0.00  0.00     0.305 A 
ATOM     23  N   UNL d   1      -3.639   0.638   0.000  0.00  0.00    -0.177 NA
ATOM     24  O   UNL d   1      -2.382   1.355   0.000  0.00  0.00    -0.263 OA
ATOM     25  C   UNL d   1      -4.048  -0.047   0.000  0.00  0.00     0.226 A 
ATOM     26  N   UNL d   1      -3.663  -0.775   0.000  0.00  0.00    -0.177 NA
ATOM     27  S   UNL d   1      -4.904  -0.027   0.000  0.00  0.00    -0.037 SA
ATOM     28  C   UNL d   1      -2.822  -0.775   0.000  0.00  0.00     0.305 A 
ATOM     29  O   UNL d   1      -2.413  -1.495   0.000  0.00  0.00    -0.263 OA
ENDBRANCH  20  21
ENDBRANCH  19  20
ENDBRANCH   4  19
TORSDOF 5
