REMARK  3 active torsions:
REMARK  status: ('A' for Active; 'I' for Inactive)
REMARK    1  A    between atoms: C_9  and  N_1 
REMARK    2  A    between atoms: C_7  and  C_9 
REMARK    3  A    between atoms: C_8  and  C_7 
ROOT
ATOM      1  N   UNL d   1       3.241  -0.943   0.000  0.00  0.00    -0.190 N 
ATOM      2  N   UNL d   1       3.241  -1.768   0.000  0.00  0.00    -0.120 NA
ATOM      3  C   UNL d   1       2.528  -0.530   0.000  0.00  0.00     0.281 A 
ATOM      4  C   UNL d   1       2.528  -2.182   0.000  0.00  0.00     0.296 A 
ATOM      5  C   UNL d   1       1.819  -0.943   0.000  0.00  0.00     0.068 A 
ATOM      6  C   UNL d   1       1.819  -1.768   0.000  0.00  0.00     0.069 A 
ATOM      7  O   UNL d   1       2.528   0.296   0.000  0.00  0.00    -0.265 OA
ATOM      8  O   UNL d   1       2.528  -3.007   0.000  0.00  0.00    -0.264 OA
ENDROOT
BRANCH   1   9
ATOM      9  C   UNL d   1       3.958  -0.530   0.000  0.00  0.00     0.110 C 
BRANCH   9  10
ATOM     10  C   UNL d   1       4.671  -0.951   0.000  0.00  0.00     0.091 C 
BRANCH  10  11
ATOM     11  C   UNL d   1       5.385  -0.538   0.000  0.00  0.00     0.213 C 
ATOM     12  O   UNL d   1       5.393   0.288   0.000  0.00  0.00    -0.644 OA
ATOM     13  O   UNL d   1       6.098  -0.955   0.000  0.00  0.00    -0.644 OA
ENDBRANCH  10  11
ENDBRANCH   9  10
ENDBRANCH   1   9
TORSDOF 3
