REMARK  6 active torsions:
REMARK  status: ('A' for Active; 'I' for Inactive)
REMARK    1  A    between atoms: N_2  and  C_1 
REMARK    2  A    between atoms: N_3  and  C_1 
REMARK       I    between atoms: C_4  and  N_2 
REMARK    3  A    between atoms: C_5  and  N_3 
REMARK    4  A    between atoms: C_14  and  C_4 
REMARK    5  A    between atoms: C_8  and  O_10 
REMARK    6  A    between atoms: O_10  and  C_14 
ROOT
ATOM      1  N   UNL d   1       0.641  -0.715   0.000  0.00  0.00    -0.177 NA
ATOM      2  C   UNL d   1       0.199  -0.014   0.000  0.00  0.00     0.306 C 
ATOM      3  O   UNL d   1       0.621   0.727   0.000  0.00  0.00    -0.263 OA
ENDROOT
BRANCH   2   4
ATOM      4  C   UNL d   1      -0.620  -0.003   0.000  0.00  0.00     0.185 C 
BRANCH   4   5
ATOM      5  O   UNL d   1      -1.048   0.693   0.000  0.00  0.00    -0.300 OA
BRANCH   5   6
ATOM      6  C   UNL d   1      -1.853   0.686   0.000  0.00  0.00     0.106 A 
ATOM      7  C   UNL d   1      -2.289   1.417   0.000  0.00  0.00     0.057 A 
ATOM      8  C   UNL d   1      -3.122   1.379   0.000  0.00  0.00     0.009 A 
ATOM      9 BR   UNL d   1      -1.877   2.146   0.000  0.00  0.00    -0.047 Br
ATOM     10  C   UNL d   1      -3.524   0.704   0.000  0.00  0.00     0.001 A 
ATOM     11  C   UNL d   1      -3.081  -0.034   0.000  0.00  0.00     0.002 A 
ATOM     12  C   UNL d   1      -4.357   0.686   0.000  0.00  0.00     0.000 C 
ATOM     13  C   UNL d   1      -2.261  -0.003   0.000  0.00  0.00     0.025 A 
ENDBRANCH   5   6
ENDBRANCH   4   5
ENDBRANCH   2   4
BRANCH   1  14
ATOM     14  C   UNL d   1       1.465  -0.708   0.000  0.00  0.00     0.225 C 
ATOM     15  S   UNL d   1       1.880   0.019   0.000  0.00  0.00    -0.037 SA
BRANCH  14  16
ATOM     16  N   UNL d   1       1.870  -1.424   0.000  0.00  0.00    -0.198 NA
BRANCH  16  17
ATOM     17  C   UNL d   1       2.707  -1.424   0.000  0.00  0.00     0.165 A 
ATOM     18  N   UNL d   1       3.143  -0.698   0.000  0.00  0.00    -0.225 NA
ATOM     19  C   UNL d   1       3.966  -0.708   0.000  0.00  0.00     0.101 A 
ATOM     20  C   UNL d   1       4.357  -1.434   0.000  0.00  0.00     0.021 A 
ATOM     21  C   UNL d   1       3.921  -2.139   0.000  0.00  0.00     0.005 A 
ATOM     22  C   UNL d   1       3.115  -2.135   0.000  0.00  0.00     0.039 A 
ENDBRANCH  16  17
ENDBRANCH  14  16
ENDBRANCH   1  14
TORSDOF 6
