REMARK  3 active torsions:
REMARK  status: ('A' for Active; 'I' for Inactive)
REMARK       I    between atoms: N_2  and  C_1 
REMARK       I    between atoms: N_5  and  C_1 
REMARK       I    between atoms: C_4  and  N_3 
REMARK    1  A    between atoms: O_14  and  C_4 
REMARK    2  A    between atoms: C_12  and  N_5 
REMARK    3  A    between atoms: C_20  and  O_14 
ROOT
ATOM      1  C   UNL d   1       1.534   1.640   0.000  0.00  0.00     0.354 C 
ATOM      2  N   UNL d   1       0.872   1.137   0.000  0.00  0.00    -0.253 N 
ATOM      3  N   UNL d   1      -0.442   0.177   0.000  0.00  0.00    -0.249 N 
ATOM      4  C   UNL d   1      -1.131  -0.317   0.000  0.00  0.00     0.378 C 
ATOM      5  N   UNL d   1       2.310   1.305   0.000  0.00  0.00    -0.192 NA
ATOM      6  O   UNL d   1       1.464   2.469   0.000  0.00  0.00    -0.244 OA
ATOM      7  C   UNL d   1       0.952   0.309   0.000  0.00  0.00     0.104 A 
ATOM      8  C   UNL d   1       0.131   1.472   0.000  0.00  0.00     0.104 A 
ATOM      9  C   UNL d   1      -0.539   0.978   0.000  0.00  0.00     0.104 A 
ATOM     10  C   UNL d   1       0.282  -0.158   0.000  0.00  0.00     0.104 A 
ATOM     11  O   UNL d   1      -1.077  -1.129   0.000  0.00  0.00    -0.237 OA
ENDROOT
BRANCH   5  12
ATOM     12  C   UNL d   1       2.398   0.512   0.000  0.00  0.00     0.087 A 
ATOM     13  C   UNL d   1       1.755   0.000   0.000  0.00  0.00     0.031 A 
ATOM     14  C   UNL d   1       1.861  -0.794   0.000  0.00  0.00     0.059 A 
ATOM     15 CL   UNL d   1       1.181  -1.287   0.000  0.00  0.00    -0.082 Cl
ATOM     16  C   UNL d   1       2.619  -1.119   0.000  0.00  0.00     0.011 A 
ATOM     17  C   UNL d   1       3.272  -0.608   0.000  0.00  0.00     0.002 A 
ATOM     18  C   UNL d   1       3.166   0.186   0.000  0.00  0.00     0.019 A 
ENDBRANCH   5  12
BRANCH   4  19
ATOM     19  O   UNL d   1      -1.879   0.036   0.000  0.00  0.00    -0.257 OA
BRANCH  19  20
ATOM     20  C   UNL d   1      -2.549  -0.431   0.000  0.00  0.00     0.128 C 
ATOM     21  C   UNL d   1      -3.299  -0.088   0.000  0.00  0.00     0.029 C 
ENDBRANCH  19  20
ENDBRANCH   4  19
TORSDOF 3
