REMARK  6 active torsions:
REMARK  status: ('A' for Active; 'I' for Inactive)
REMARK    1  A    between atoms: N_15  and  C_1 
REMARK    2  A    between atoms: C_21  and  N_6 
REMARK    3  A    between atoms: C_16  and  C_8 
REMARK    4  A    between atoms: C_9  and  S_17 
REMARK       I    between atoms: C_20  and  N_15 
REMARK    5  A    between atoms: S_17  and  C_23 
REMARK    6  A    between atoms: C_23  and  C_20 
ROOT
ATOM      1  C   UNL d   1      -2.865   5.652   0.000  0.00  0.00     0.099 C 
ENDROOT
BRANCH   1   2
ATOM      2  S   UNL d   1      -2.243   5.021   0.000  0.00  0.00    -0.064 SA
BRANCH   2   3
ATOM      3  C   UNL d   1      -2.256   4.162   0.000  0.00  0.00     0.096 A 
ATOM      4  N   UNL d   1      -2.979   3.768   0.000  0.00  0.00    -0.285 N 
ATOM      5  C   UNL d   1      -2.992   2.926   0.000  0.00  0.00     0.150 A 
ATOM      6  C   UNL d   1      -4.425   3.781   0.000  0.00  0.00     0.084 A 
ATOM      7  N   UNL d   1      -3.720   2.519   0.000  0.00  0.00    -0.227 NA
ATOM      8  C   UNL d   1      -2.283   2.506   0.000  0.00  0.00     0.056 A 
ATOM      9  C   UNL d   1      -4.438   2.940   0.000  0.00  0.00     0.099 A 
ATOM     10  C   UNL d   1      -5.161   2.545   0.000  0.00  0.00     0.021 A 
ATOM     11  C   UNL d   1      -5.871   2.966   0.000  0.00  0.00     0.002 A 
ATOM     12  C   UNL d   1      -5.857   3.794   0.000  0.00  0.00     0.002 A 
ATOM     13  C   UNL d   1      -5.135   4.202   0.000  0.00  0.00     0.019 A 
ATOM     14  C   UNL d   1      -1.551   2.913   0.000  0.00  0.00     0.006 A 
ATOM     15  C   UNL d   1      -1.546   3.741   0.000  0.00  0.00     0.025 A 
ATOM     16  C   UNL d   1      -0.850   2.493   0.000  0.00  0.00     0.000 C 
BRANCH   8  17
ATOM     17  C   UNL d   1      -2.287   1.678   0.000  0.00  0.00     0.125 C 
ATOM     18  N   UNL d   1      -1.551   1.297   0.000  0.00  0.00    -0.146 N 
ENDBRANCH   8  17
ENDBRANCH   2   3
ENDBRANCH   1   2
BRANCH   1  19
ATOM     19  C   UNL d   1      -2.624   6.497   0.000  0.00  0.00     0.286 C 
ATOM     20  N   UNL d   1      -3.242   7.128   0.000  0.00  0.00    -0.201 NA
ATOM     21  O   UNL d   1      -1.770   6.721   0.000  0.00  0.00    -0.265 OA
BRANCH  20  22
ATOM     22  C   UNL d   1      -3.005   7.982   0.000  0.00  0.00     0.160 A 
ATOM     23  C   UNL d   1      -2.300   8.377   0.000  0.00  0.00     0.298 A 
ATOM     24  N   UNL d   1      -2.296   9.187   0.000  0.00  0.00    -0.209 N 
ATOM     25  O   UNL d   1      -1.612   7.969   0.000  0.00  0.00    -0.263 OA
ATOM     26  N   UNL d   1      -2.983   9.599   0.000  0.00  0.00    -0.238 N 
ATOM     27  C   UNL d   1      -3.689   9.200   0.000  0.00  0.00     0.104 A 
ATOM     28  C   UNL d   1      -2.979  10.401   0.000  0.00  0.00     0.120 C 
ATOM     29  C   UNL d   1      -4.535   9.441   0.000  0.00  0.00     0.022 C 
BRANCH  24  30
ATOM     30  C   UNL d   1      -1.590   9.582   0.000  0.00  0.00     0.085 A 
ATOM     31  C   UNL d   1      -0.902   9.165   0.000  0.00  0.00     0.019 A 
ATOM     32  C   UNL d   1      -0.197   9.560   0.000  0.00  0.00     0.002 A 
ATOM     33  C   UNL d   1      -0.193  10.370   0.000  0.00  0.00     0.000 A 
ATOM     34  C   UNL d   1      -0.889  10.769   0.000  0.00  0.00     0.002 A 
ATOM     35  C   UNL d   1      -1.586  10.374   0.000  0.00  0.00     0.019 A 
ENDBRANCH  24  30
ENDBRANCH  20  22
ENDBRANCH   1  19
TORSDOF 6
