REMARK  7 active torsions:
REMARK  status: ('A' for Active; 'I' for Inactive)
REMARK    1  A    between atoms: C_11  and  C_1 
REMARK    2  A    between atoms: C_12  and  C_3 
REMARK    3  A    between atoms: C_10  and  C_5 
REMARK    4  A    between atoms: O_21  and  C_11 
REMARK    5  A    between atoms: O_22  and  C_12 
REMARK    6  A    between atoms: O_23  and  C_14 
REMARK    7  A    between atoms: O_24  and  C_17 
ROOT
ATOM      1  C   UNL d   1       4.299  -0.753   0.000  0.00  0.00     0.075 A 
ATOM      2  C   UNL d   1       5.398   0.470   0.000  0.00  0.00     0.121 A 
ATOM      3  C   UNL d   1       4.049   0.037   0.000  0.00  0.00     0.099 A 
ATOM      4  C   UNL d   1       5.656  -0.316   0.000  0.00  0.00     0.058 A 
ATOM      5  C   UNL d   1       5.098  -0.928   0.000  0.00  0.00     0.014 A 
ATOM      6  S   UNL d   1       4.599   0.645   0.000  0.00  0.00    -0.062 SA
ATOM      7  N   UNL d   1       6.068   0.949   0.000  0.00  0.00    -0.195 NA
ATOM      8  C   UNL d   1       6.733   0.470   0.000  0.00  0.00     0.311 A 
ATOM      9  S   UNL d   1       6.480  -0.316   0.000  0.00  0.00    -0.024 SA
ATOM     10  O   UNL d   1       7.520   0.720   0.000  0.00  0.00    -0.258 OA
ENDROOT
BRANCH   5  11
ATOM     11  C   UNL d   1       5.356  -1.710   0.000  0.00  0.00     0.003 A 
ATOM     12  C   UNL d   1       6.155  -1.877   0.000  0.00  0.00     0.026 A 
ATOM     13  C   UNL d   1       6.409  -2.663   0.000  0.00  0.00     0.116 A 
ATOM     14  C   UNL d   1       5.855  -3.275   0.000  0.00  0.00     0.116 A 
ATOM     15  C   UNL d   1       5.048  -3.100   0.000  0.00  0.00     0.026 A 
ATOM     16  C   UNL d   1       4.798  -2.322   0.000  0.00  0.00     0.002 A 
BRANCH  13  17
ATOM     17  O   UNL d   1       7.216  -2.834   0.000  0.00  0.00    -0.326 OA
ATOM     18  C   UNL d   1       7.470  -3.621   0.000  0.00  0.00     0.181 C 
ENDBRANCH  13  17
BRANCH  14  19
ATOM     19  O   UNL d   1       6.109  -4.062   0.000  0.00  0.00    -0.326 OA
ATOM     20  C   UNL d   1       5.556  -4.673   0.000  0.00  0.00     0.181 C 
ENDBRANCH  14  19
ENDBRANCH   5  11
BRANCH   1  21
ATOM     21  C   UNL d   1       3.745  -1.361   0.000  0.00  0.00     0.296 C 
ATOM     22  O   UNL d   1       2.938  -1.186   0.000  0.00  0.00    -0.259 OA
BRANCH  21  23
ATOM     23  O   UNL d   1       3.995  -2.147   0.000  0.00  0.00    -0.296 OA
ATOM     24  C   UNL d   1       3.438  -2.751   0.000  0.00  0.00     0.185 C 
ENDBRANCH  21  23
ENDBRANCH   1  21
BRANCH   3  25
ATOM     25  C   UNL d   1       3.250   0.212   0.000  0.00  0.00     0.302 C 
ATOM     26  O   UNL d   1       2.688  -0.391   0.000  0.00  0.00    -0.259 OA
BRANCH  25  27
ATOM     27  O   UNL d   1       3.001   0.999   0.000  0.00  0.00    -0.295 OA
ATOM     28  C   UNL d   1       3.562   1.606   0.000  0.00  0.00     0.185 C 
ENDBRANCH  25  27
ENDBRANCH   3  25
TORSDOF 7
