REMARK  2 active torsions:
REMARK  status: ('A' for Active; 'I' for Inactive)
REMARK       I    between atoms: C_3  and  N_1 
REMARK    1  A    between atoms: C_7  and  C_3 
REMARK    2  A    between atoms: O_15  and  C_11 
ROOT
ATOM      1  N   UNL d   1       0.481   0.017   0.000  0.00  0.00    -0.195 N 
ATOM      2  N   UNL d   1       0.336  -0.803   0.000  0.00  0.00    -0.163 NA
ATOM      3  C   UNL d   1       1.208   0.401   0.000  0.00  0.00     0.280 C 
ATOM      4  C   UNL d   1      -0.208   0.401   0.000  0.00  0.00     0.088 A 
ATOM      5  C   UNL d   1      -0.827  -0.156   0.000  0.00  0.00     0.040 A 
ATOM      6  C   UNL d   1      -0.484  -0.896   0.000  0.00  0.00     0.103 A 
ATOM      7  O   UNL d   1       1.229   1.215   0.000  0.00  0.00    -0.265 OA
ATOM      8  C   UNL d   1      -0.301   1.246   0.000  0.00  0.00     0.021 C 
ATOM      9  C   UNL d   1      -0.910  -1.623   0.000  0.00  0.00     0.022 C 
ENDROOT
BRANCH   3  10
ATOM     10  C   UNL d   1       1.924  -0.024   0.000  0.00  0.00     0.058 A 
ATOM     11  C   UNL d   1       2.640   0.384   0.000  0.00  0.00     0.007 A 
ATOM     12  C   UNL d   1       3.353  -0.024   0.000  0.00  0.00     0.024 A 
ATOM     13  C   UNL d   1       3.353  -0.844   0.000  0.00  0.00     0.094 A 
ATOM     14  C   UNL d   1       2.640  -1.260   0.000  0.00  0.00     0.024 A 
ATOM     15  C   UNL d   1       1.924  -0.862   0.000  0.00  0.00     0.007 A 
BRANCH  13  16
ATOM     16  O   UNL d   1       4.084  -1.246   0.000  0.00  0.00    -0.328 OA
ATOM     17  C   UNL d   1       4.800  -0.813   0.000  0.00  0.00     0.181 C 
ENDBRANCH  13  16
ENDBRANCH   3  10
TORSDOF 2
