REMARK  8 active torsions:
REMARK  status: ('A' for Active; 'I' for Inactive)
REMARK       I    between atoms: C_2  and  N_1 
REMARK    1  A    between atoms: C_3  and  N_1 
REMARK    2  A    between atoms: C_4  and  C_2 
REMARK    3  A    between atoms: N_12  and  C_3 
REMARK    4  A    between atoms: O_19  and  C_5 
REMARK    5  A    between atoms: O_20  and  C_6 
REMARK    6  A    between atoms: O_21  and  C_7 
REMARK    7  A    between atoms: C_10  and  C_18 
REMARK    8  A    between atoms: C_18  and  N_12 
ROOT
ATOM      1  C   UNL d   1       0.945   0.212   0.000  0.00  0.00     0.062 A 
ATOM      2  C   UNL d   1       2.600   0.329   0.000  0.00  0.00     0.138 A 
ATOM      3  C   UNL d   1       2.134   1.019   0.000  0.00  0.00     0.118 A 
ATOM      4  C   UNL d   1       2.221  -0.407   0.000  0.00  0.00     0.118 A 
ATOM      5  C   UNL d   1       1.405  -0.466   0.000  0.00  0.00     0.031 A 
ATOM      6  C   UNL d   1       1.304   0.955   0.000  0.00  0.00     0.031 A 
ENDROOT
BRANCH   1   7
ATOM      7  C   UNL d   1       0.109   0.146   0.000  0.00  0.00     0.281 C 
ATOM      8  N   UNL d   1      -0.352   0.839   0.000  0.00  0.00    -0.179 NA
ATOM      9  O   UNL d   1      -0.256  -0.583   0.000  0.00  0.00    -0.265 OA
BRANCH   8  10
ATOM     10  C   UNL d   1      -1.180   0.773   0.000  0.00  0.00     0.224 C 
ATOM     11  S   UNL d   1      -1.593   0.059   0.000  0.00  0.00    -0.037 SA
BRANCH  10  12
ATOM     12  N   UNL d   1      -1.587   1.477   0.000  0.00  0.00    -0.214 NA
BRANCH  12  13
ATOM     13  C   UNL d   1      -2.411   1.477   0.000  0.00  0.00     0.126 C 
BRANCH  13  14
ATOM     14  C   UNL d   1      -2.833   0.773   0.000  0.00  0.00     0.119 A 
ATOM     15  O   UNL d   1      -3.670   0.671   0.000  0.00  0.00    -0.304 OA
ATOM     16  C   UNL d   1      -3.824  -0.137   0.000  0.00  0.00     0.123 A 
ATOM     17  C   UNL d   1      -3.117  -0.539   0.000  0.00  0.00     0.029 A 
ATOM     18  C   UNL d   1      -2.490   0.023   0.000  0.00  0.00     0.028 A 
ENDBRANCH  13  14
ENDBRANCH  12  13
ENDBRANCH  10  12
ENDBRANCH   8  10
ENDBRANCH   1   7
BRANCH   4  19
ATOM     19  O   UNL d   1       2.695  -1.099   0.000  0.00  0.00    -0.326 OA
ATOM     20  C   UNL d   1       2.316  -1.849   0.000  0.00  0.00     0.181 C 
ENDBRANCH   4  19
BRANCH   3  21
ATOM     21  O   UNL d   1       2.505   1.776   0.000  0.00  0.00    -0.326 OA
ATOM     22  C   UNL d   1       3.320   1.849   0.000  0.00  0.00     0.181 C 
ENDBRANCH   3  21
BRANCH   2  23
ATOM     23  O   UNL d   1       3.437   0.379   0.000  0.00  0.00    -0.324 OA
ATOM     24  C   UNL d   1       3.824   1.113   0.000  0.00  0.00     0.182 C 
ENDBRANCH   2  23
TORSDOF 8
