REMARK  10 active torsions:
REMARK  status: ('A' for Active; 'I' for Inactive)
REMARK    1  A    between atoms: N_2  and  S_1 
REMARK    2  A    between atoms: C_12  and  S_1 
REMARK    3  A    between atoms: C_4  and  N_2 
REMARK    4  A    between atoms: O_22  and  C_6 
REMARK    5  A    between atoms: C_7  and  N_15 
REMARK    6  A    between atoms: N_8  and  C_7 
REMARK       I    between atoms: C_10  and  N_8 
REMARK    7  A    between atoms: O_23  and  C_9 
REMARK    8  A    between atoms: C_20  and  C_10 
REMARK    9  A    between atoms: N_15  and  C_21 
REMARK   10  A    between atoms: C_26  and  C_20 
ROOT
ATOM      1  C   UNL d   1       0.792   0.692   0.000  0.00  0.00     0.105 A 
ATOM      2  C   UNL d   1       0.402  -0.018   0.000  0.00  0.00     0.015 A 
ATOM      3  C   UNL d   1       0.369   1.389   0.000  0.00  0.00     0.015 A 
ATOM      4  C   UNL d   1      -0.846   0.663   0.000  0.00  0.00     0.084 A 
ATOM      5  C   UNL d   1      -0.413  -0.061   0.000  0.00  0.00     0.020 A 
ATOM      6  C   UNL d   1      -0.444   1.368   0.000  0.00  0.00     0.020 A 
ENDROOT
BRANCH   1   7
ATOM      7  S   UNL d   1       1.639   0.726   0.000  0.00  0.00     0.287 S 
ATOM      8  O   UNL d   1       1.660  -0.111   0.000  0.00  0.00    -0.198 OA
ATOM      9  O   UNL d   1       1.609   1.554   0.000  0.00  0.00    -0.198 OA
BRANCH   7  10
ATOM     10  N   UNL d   1       2.475   0.743   0.000  0.00  0.00    -0.139 NA
BRANCH  10  11
ATOM     11  C   UNL d   1       2.919   0.032   0.000  0.00  0.00     0.182 A 
ATOM     12  N   UNL d   1       3.712   0.062   0.000  0.00  0.00    -0.185 NA
ATOM     13  C   UNL d   1       4.177  -0.627   0.000  0.00  0.00     0.274 A 
ATOM     14  N   UNL d   1       3.805  -1.351   0.000  0.00  0.00    -0.181 NA
ATOM     15  C   UNL d   1       3.001  -1.413   0.000  0.00  0.00     0.185 A 
ATOM     16  C   UNL d   1       2.526  -0.678   0.000  0.00  0.00     0.084 A 
BRANCH  13  17
ATOM     17  O   UNL d   1       5.010  -0.598   0.000  0.00  0.00    -0.297 OA
ATOM     18  C   UNL d   1       5.415   0.126   0.000  0.00  0.00     0.185 C 
ENDBRANCH  13  17
BRANCH  15  19
ATOM     19  O   UNL d   1       2.650  -2.166   0.000  0.00  0.00    -0.312 OA
ATOM     20  C   UNL d   1       3.135  -2.836   0.000  0.00  0.00     0.183 C 
ENDBRANCH  15  19
ENDBRANCH  10  11
ENDBRANCH   7  10
ENDBRANCH   1   7
BRANCH   4  21
ATOM     21  N   UNL d   1      -1.682   0.663   0.000  0.00  0.00    -0.217 NA
BRANCH  21  22
ATOM     22  C   UNL d   1      -2.073   1.389   0.000  0.00  0.00     0.223 C 
ATOM     23  S   UNL d   1      -1.653   2.104   0.000  0.00  0.00    -0.037 SA
BRANCH  22  24
ATOM     24  N   UNL d   1      -2.898   1.402   0.000  0.00  0.00    -0.179 NA
ATOM     25  C   UNL d   1      -3.310   2.124   0.000  0.00  0.00     0.281 C 
ATOM     26  O   UNL d   1      -2.887   2.836   0.000  0.00  0.00    -0.265 OA
BRANCH  25  27
ATOM     27  C   UNL d   1      -4.135   2.134   0.000  0.00  0.00     0.063 C 
BRANCH  27  28
ATOM     28  C   UNL d   1      -4.569   1.431   0.000  0.00  0.00     0.005 C 
ATOM     29  C   UNL d   1      -5.415   1.431   0.000  0.00  0.00     0.000 C 
ATOM     30  C   UNL d   1      -4.167   0.714   0.000  0.00  0.00     0.000 C 
ENDBRANCH  27  28
ENDBRANCH  25  27
ENDBRANCH  22  24
ENDBRANCH  21  22
ENDBRANCH   4  21
TORSDOF 10
