REMARK  3 active torsions:
REMARK  status: ('A' for Active; 'I' for Inactive)
REMARK    1  A    between atoms: N_2  and  C_1 
REMARK    2  A    between atoms: N_3  and  C_1 
REMARK       I    between atoms: C_4  and  N_3 
REMARK    3  A    between atoms: C_5  and  C_4 
ROOT
ATOM      1  C   UNL d   1      11.290  -5.149   0.000  0.00  0.00     0.209 C 
ATOM      2  S   UNL d   1      10.725  -5.765   0.000  0.00  0.00    -0.038 SA
ENDROOT
BRANCH   1   3
ATOM      3  N   UNL d   1      11.033  -4.358   0.000  0.00  0.00    -0.282 N 
ATOM      4  C   UNL d   1      10.249  -4.112   0.000  0.00  0.00     0.066 A 
ATOM      5  C   UNL d   1      10.249  -3.286   0.000  0.00  0.00     0.018 A 
ATOM      6  C   UNL d   1       9.534  -4.522   0.000  0.00  0.00     0.018 A 
ATOM      7  C   UNL d   1       9.534  -2.869   0.000  0.00  0.00     0.002 A 
ATOM      8  C   UNL d   1      11.033  -3.030   0.000  0.00  0.00     0.021 A 
ATOM      9  C   UNL d   1       8.815  -3.286   0.000  0.00  0.00     0.000 A 
ATOM     10  C   UNL d   1       8.815  -4.112   0.000  0.00  0.00     0.002 A 
ATOM     11  C   UNL d   1      11.516  -3.697   0.000  0.00  0.00     0.082 A 
ENDBRANCH   1   3
BRANCH   1  12
ATOM     12  N   UNL d   1      12.091  -5.323   0.000  0.00  0.00    -0.178 NA
ATOM     13  C   UNL d   1      12.338  -6.114   0.000  0.00  0.00     0.304 C 
ATOM     14  O   UNL d   1      13.146  -6.289   0.000  0.00  0.00    -0.263 OA
BRANCH  13  15
ATOM     15  C   UNL d   1      11.790  -6.730   0.000  0.00  0.00     0.158 A 
ATOM     16  O   UNL d   1      11.876  -7.542   0.000  0.00  0.00    -0.296 OA
ATOM     17  C   UNL d   1      11.116  -7.880   0.000  0.00  0.00     0.134 A 
ATOM     18 BR   UNL d   1      10.910  -8.692   0.000  0.00  0.00    -0.022 Br
ATOM     19  C   UNL d   1      10.571  -7.264   0.000  0.00  0.00     0.034 A 
ATOM     20  C   UNL d   1      10.989  -6.556   0.000  0.00  0.00     0.032 A 
ENDBRANCH  13  15
ENDBRANCH   1  12
TORSDOF 3
