REMARK  7 active torsions:
REMARK  status: ('A' for Active; 'I' for Inactive)
REMARK    1  A    between atoms: C_2  and  C_8 
REMARK    2  A    between atoms: O_17  and  C_2 
REMARK    3  A    between atoms: C_15  and  C_3 
REMARK    4  A    between atoms: C_5  and  C_16 
REMARK       I    between atoms: N_9  and  C_5 
REMARK    5  A    between atoms: C_14  and  N_9 
REMARK    6  A    between atoms: C_16  and  C_15 
REMARK    7  A    between atoms: C_21  and  O_17 
ROOT
ATOM      1  C   UNL d   1       5.204  -4.479   0.000  0.00  0.00     0.064 A 
ATOM      2  C   UNL d   1       4.588  -3.917   0.000  0.00  0.00     0.007 A 
ATOM      3  C   UNL d   1       5.992  -4.217   0.000  0.00  0.00     0.007 A 
ATOM      4  C   UNL d   1       5.550  -2.867   0.000  0.00  0.00     0.085 A 
ATOM      5  C   UNL d   1       4.767  -3.117   0.000  0.00  0.00     0.019 A 
ATOM      6  C   UNL d   1       6.154  -3.413   0.000  0.00  0.00     0.019 A 
ENDROOT
BRANCH   4   7
ATOM      7  N   UNL d   1       5.725  -2.054   0.000  0.00  0.00    -0.208 NA
ATOM      8  C   UNL d   1       5.112  -1.504   0.000  0.00  0.00     0.279 C 
ATOM      9  O   UNL d   1       5.279  -0.700   0.000  0.00  0.00    -0.265 OA
BRANCH   8  10
ATOM     10  C   UNL d   1       4.325  -1.754   0.000  0.00  0.00     0.065 C 
BRANCH  10  11
ATOM     11  C   UNL d   1       3.717  -1.204   0.000  0.00  0.00     0.030 C 
BRANCH  11  12
ATOM     12  C   UNL d   1       2.929  -1.454   0.000  0.00  0.00     0.100 A 
ATOM     13  O   UNL d   1       2.254  -0.975   0.000  0.00  0.00    -0.307 OA
ATOM     14  C   UNL d   1       1.592  -1.454   0.000  0.00  0.00     0.100 A 
ATOM     15  C   UNL d   1       1.850  -2.242   0.000  0.00  0.00     0.027 A 
ATOM     16  C   UNL d   1       0.812  -1.204   0.000  0.00  0.00     0.027 C 
ATOM     17  C   UNL d   1       2.675  -2.242   0.000  0.00  0.00     0.027 A 
ENDBRANCH  11  12
ENDBRANCH  10  11
ENDBRANCH   8  10
ENDBRANCH   4   7
BRANCH   1  18
ATOM     18  C   UNL d   1       5.029  -5.279   0.000  0.00  0.00     0.300 C 
ATOM     19  O   UNL d   1       5.650  -5.838   0.000  0.00  0.00    -0.259 OA
BRANCH  18  20
ATOM     20  O   UNL d   1       4.242  -5.542   0.000  0.00  0.00    -0.271 OA
BRANCH  20  21
ATOM     21  C   UNL d   1       3.629  -4.979   0.000  0.00  0.00     0.126 C 
ATOM     22  C   UNL d   1       2.842  -5.242   0.000  0.00  0.00     0.029 C 
ENDBRANCH  20  21
ENDBRANCH  18  20
ENDBRANCH   1  18
TORSDOF 7
