REMARK  1 active torsions:
REMARK  status: ('A' for Active; 'I' for Inactive)
REMARK    1  A    between atoms: C_7  and  C_4 
ROOT
ATOM      1  N   UNL d   1       0.275  -0.279   0.000  0.00  0.00    -0.211 NA
ATOM      2  C   UNL d   1      -0.470   0.096   0.000  0.00  0.00     0.140 A 
ATOM      3  C   UNL d   1      -1.156  -0.362   0.000  0.00  0.00     0.051 A 
ATOM      4  C   UNL d   1       0.316  -1.111   0.000  0.00  0.00     0.183 A 
ATOM      5  C   UNL d   1      -1.111  -1.190   0.000  0.00  0.00     0.104 A 
ATOM      6  O   UNL d   1      -0.374  -1.560   0.000  0.00  0.00    -0.289 OA
ATOM      7  S   UNL d   1      -0.520   0.919   0.000  0.00  0.00    -0.057 SA
ATOM      8  C   UNL d   1      -1.905   0.008   0.000  0.00  0.00     0.004 A 
ATOM      9  C   UNL d   1      -1.792  -1.639   0.000  0.00  0.00     0.025 A 
ATOM     10  C   UNL d   1      -2.591  -0.453   0.000  0.00  0.00     0.000 A 
ATOM     11  C   UNL d   1      -2.533  -1.273   0.000  0.00  0.00     0.002 A 
ENDROOT
BRANCH   4  12
ATOM     12  C   UNL d   1       1.052  -1.476   0.000  0.00  0.00     0.041 A 
ATOM     13  C   UNL d   1       1.738  -1.027   0.000  0.00  0.00     0.004 A 
ATOM     14  C   UNL d   1       2.470  -1.402   0.000  0.00  0.00     0.000 A 
ATOM     15  C   UNL d   1       3.161  -0.948   0.000  0.00  0.00     0.000 C 
ATOM     16  C   UNL d   1       2.520  -2.225   0.000  0.00  0.00     0.000 A 
ATOM     17  C   UNL d   1       1.826  -2.674   0.000  0.00  0.00     0.000 A 
ATOM     18  C   UNL d   1       1.090  -2.300   0.000  0.00  0.00     0.004 A 
ENDBRANCH   4  12
TORSDOF 1
