REMARK  3 active torsions:
REMARK  status: ('A' for Active; 'I' for Inactive)
REMARK    1  A    between atoms: C_9  and  S_1 
REMARK       I    between atoms: C_4  and  N_8 
REMARK    2  A    between atoms: C_5  and  C_4 
REMARK    3  A    between atoms: N_8  and  C_18 
ROOT
ATOM      1  C   UNL d   1       3.519   0.337   0.000  0.00  0.00     0.302 C 
ATOM      2  N   UNL d   1       4.229  -0.075   0.000  0.00  0.00    -0.206 NA
ATOM      3  O   UNL d   1       3.519   1.159   0.000  0.00  0.00    -0.263 OA
ENDROOT
BRANCH   1   4
ATOM      4  C   UNL d   1       2.804  -0.067   0.000  0.00  0.00     0.161 A 
ATOM      5  O   UNL d   1       2.804  -0.901   0.000  0.00  0.00    -0.268 OA
ATOM      6  C   UNL d   1       2.081  -1.313   0.000  0.00  0.00     0.300 A 
ATOM      7  O   UNL d   1       2.081  -2.135   0.000  0.00  0.00    -0.259 OA
ATOM      8  C   UNL d   1       1.363  -0.901   0.000  0.00  0.00     0.064 A 
ATOM      9  C   UNL d   1       1.371  -0.067   0.000  0.00  0.00     0.007 A 
ATOM     10  C   UNL d   1       0.652  -1.309   0.000  0.00  0.00     0.005 A 
ATOM     11  C   UNL d   1       2.085   0.349   0.000  0.00  0.00     0.030 A 
ATOM     12  C   UNL d   1       0.652   0.345   0.000  0.00  0.00     0.000 A 
ATOM     13  C   UNL d   1      -0.058  -0.075   0.000  0.00  0.00     0.000 A 
ATOM     14  C   UNL d   1      -0.058  -0.897   0.000  0.00  0.00     0.000 A 
ENDBRANCH   1   4
BRANCH   2  15
ATOM     15  C   UNL d   1       4.225  -0.901   0.000  0.00  0.00     0.085 A 
ATOM     16  C   UNL d   1       4.935  -1.309   0.000  0.00  0.00     0.020 A 
ATOM     17  C   UNL d   1       4.935  -2.131   0.000  0.00  0.00     0.015 A 
ATOM     18  C   UNL d   1       4.216  -2.542   0.000  0.00  0.00     0.107 A 
ATOM     19  C   UNL d   1       3.506  -2.123   0.000  0.00  0.00     0.015 A 
ATOM     20  C   UNL d   1       3.506  -1.309   0.000  0.00  0.00     0.020 A 
BRANCH  18  21
ATOM     21  S   UNL d   1       4.216  -3.365   0.000  0.00  0.00     0.302 S 
ATOM     22  O   UNL d   1       3.406  -3.440   0.000  0.00  0.00    -0.197 OA
ATOM     23  O   UNL d   1       5.039  -3.278   0.000  0.00  0.00    -0.197 OA
ATOM     24  N   UNL d   1       4.304  -4.179   0.000  0.00  0.00    -0.043 N 
ENDBRANCH  18  21
ENDBRANCH   2  15
TORSDOF 3
