REMARK  5 active torsions:
REMARK  status: ('A' for Active; 'I' for Inactive)
REMARK    1  A    between atoms: C_18  and  N_1 
REMARK    2  A    between atoms: C_13  and  C_6 
REMARK    3  A    between atoms: C_12  and  C_7 
REMARK    4  A    between atoms: C_23  and  C_14 
REMARK    5  A    between atoms: C_19  and  C_18 
ROOT
ATOM      1  C   UNL d   1       8.112  -2.170   0.000  0.00  0.00     0.121 A 
ATOM      2  C   UNL d   1       8.112  -2.999   0.000  0.00  0.00     0.058 A 
ATOM      3  N   UNL d   1       8.898  -1.922   0.000  0.00  0.00    -0.195 NA
ATOM      4  S   UNL d   1       7.399  -1.760   0.000  0.00  0.00    -0.068 SA
ATOM      5  C   UNL d   1       6.681  -2.170   0.000  0.00  0.00     0.026 A 
ATOM      6  C   UNL d   1       6.681  -2.999   0.000  0.00  0.00    -0.001 A 
ATOM      7  C   UNL d   1       5.745  -2.080   0.000  0.00  0.00    -0.011 A 
ATOM      8  C   UNL d   1       5.861  -2.999   0.000  0.00  0.00    -0.027 A 
ATOM      9  C   UNL d   1       7.399  -3.413   0.000  0.00  0.00     0.008 A 
ATOM     10  C   UNL d   1       9.380  -2.593   0.000  0.00  0.00     0.311 A 
ATOM     11  S   UNL d   1       8.898  -3.255   0.000  0.00  0.00    -0.024 SA
ATOM     12  C   UNL d   1       5.156  -1.504   0.000  0.00  0.00     0.049 A 
ATOM     13  O   UNL d   1      10.205  -2.593   0.000  0.00  0.00    -0.258 OA
ENDROOT
BRANCH   9  14
ATOM     14  C   UNL d   1       7.399  -4.233   0.000  0.00  0.00     0.001 A 
ATOM     15  C   UNL d   1       6.689  -4.652   0.000  0.00  0.00     0.000 A 
ATOM     16  C   UNL d   1       6.689  -5.476   0.000  0.00  0.00     0.000 A 
ATOM     17  C   UNL d   1       7.399  -5.895   0.000  0.00  0.00     0.000 A 
ATOM     18  C   UNL d   1       8.116  -5.476   0.000  0.00  0.00     0.000 A 
ATOM     19  C   UNL d   1       8.116  -4.652   0.000  0.00  0.00     0.000 A 
ENDBRANCH   9  14
BRANCH   8  20
ATOM     20  C   UNL d   1       5.348  -3.639   0.000  0.00  0.00     0.125 A 
ATOM     21  C   UNL d   1       4.554  -3.862   0.000  0.00  0.00     0.251 A 
ATOM     22  N   UNL d   1       4.101  -3.170   0.000  0.00  0.00    -0.239 N 
ATOM     23  O   UNL d   1       4.259  -4.639   0.000  0.00  0.00    -0.271 OA
ATOM     24  C   UNL d   1       4.605  -2.529   0.000  0.00  0.00     0.263 A 
ATOM     25  C   UNL d   1       5.387  -2.819   0.000  0.00  0.00     0.044 A 
ATOM     26  O   UNL d   1       4.374  -1.734   0.000  0.00  0.00    -0.267 OA
BRANCH  22  27
ATOM     27  C   UNL d   1       3.255  -3.131   0.000  0.00  0.00     0.134 C 
ATOM     28  C   UNL d   1       2.862  -2.384   0.000  0.00  0.00     0.026 C 
BRANCH  27  29
ATOM     29  C   UNL d   1       2.798  -3.849   0.000  0.00  0.00     0.228 C 
ATOM     30  O   UNL d   1       1.952  -3.810   0.000  0.00  0.00    -0.643 OA
ATOM     31  O   UNL d   1       3.191  -4.592   0.000  0.00  0.00    -0.643 OA
ENDBRANCH  27  29
ENDBRANCH  22  27
ENDBRANCH   8  20
TORSDOF 5
