REMARK  5 active torsions:
REMARK  status: ('A' for Active; 'I' for Inactive)
REMARK    1  A    between atoms: C_2  and  C_1 
REMARK       I    between atoms: N_4  and  C_2 
REMARK    2  A    between atoms: C_7  and  N_4 
REMARK    3  A    between atoms: C_12  and  C_6 
REMARK    4  A    between atoms: S_11  and  C_12 
REMARK    5  A    between atoms: C_14  and  S_11 
ROOT
ATOM      1  C   UNL d   1       2.850  -0.279   0.000  0.00  0.00     0.158 A 
ATOM      2  O   UNL d   1       2.179   0.200   0.000  0.00  0.00    -0.302 OA
ATOM      3  C   UNL d   1       2.592  -1.067   0.000  0.00  0.00     0.032 A 
ATOM      4  C   UNL d   1       1.517  -0.279   0.000  0.00  0.00     0.107 A 
ATOM      5  C   UNL d   1       1.767  -1.067   0.000  0.00  0.00     0.027 A 
ENDROOT
BRANCH   1   6
ATOM      6  C   UNL d   1       3.638  -0.029   0.000  0.00  0.00     0.302 C 
ATOM      7  N   UNL d   1       4.250  -0.579   0.000  0.00  0.00    -0.204 NA
ATOM      8  O   UNL d   1       3.804   0.775   0.000  0.00  0.00    -0.263 OA
BRANCH   7   9
ATOM      9  C   UNL d   1       4.067  -1.392   0.000  0.00  0.00     0.112 A 
ATOM     10  C   UNL d   1       4.688  -1.938   0.000  0.00  0.00     0.158 A 
ATOM     11  F   UNL d   1       5.467  -1.679   0.000  0.00  0.00    -0.203 F 
ATOM     12  C   UNL d   1       4.513  -2.742   0.000  0.00  0.00     0.031 A 
ATOM     13  C   UNL d   1       3.725  -3.000   0.000  0.00  0.00     0.002 A 
ATOM     14  C   UNL d   1       3.112  -2.450   0.000  0.00  0.00     0.002 A 
ATOM     15  C   UNL d   1       3.288  -1.642   0.000  0.00  0.00     0.021 A 
ENDBRANCH   7   9
ENDBRANCH   1   6
BRANCH   4  16
ATOM     16  C   UNL d   1       0.729  -0.029   0.000  0.00  0.00     0.060 C 
BRANCH  16  17
ATOM     17  S   UNL d   1       0.554   0.775   0.000  0.00  0.00    -0.084 SA
BRANCH  17  18
ATOM     18  C   UNL d   1      -0.225   1.033   0.000  0.00  0.00     0.029 A 
ATOM     19  C   UNL d   1      -0.396   1.837   0.000  0.00  0.00     0.006 A 
ATOM     20  C   UNL d   1      -1.175   2.096   0.000  0.00  0.00     0.001 A 
ATOM     21  C   UNL d   1      -1.788   1.538   0.000  0.00  0.00     0.000 A 
ATOM     22  C   UNL d   1      -1.613   0.733   0.000  0.00  0.00     0.001 A 
ATOM     23  C   UNL d   1      -0.833   0.475   0.000  0.00  0.00     0.006 A 
ENDBRANCH  17  18
ENDBRANCH  16  17
ENDBRANCH   4  16
TORSDOF 5
