REMARK  5 active torsions:
REMARK  status: ('A' for Active; 'I' for Inactive)
REMARK    1  A    between atoms: C_11  and  N_3 
REMARK    2  A    between atoms: C_10  and  C_4 
REMARK    3  A    between atoms: C_15  and  C_11 
REMARK    4  A    between atoms: N_13  and  C_16 
REMARK    5  A    between atoms: C_16  and  C_15 
ROOT
ATOM      1  C   UNL d   1      -2.631   4.559   0.000  0.00  0.00     0.137 A 
ATOM      2  N   UNL d   1      -3.125   5.233   0.000  0.00  0.00    -0.259 N 
ATOM      3  N   UNL d   1      -3.125   3.898   0.000  0.00  0.00    -0.287 N 
ATOM      4  C   UNL d   1      -1.815   4.647   0.000  0.00  0.00     0.054 A 
ATOM      5  C   UNL d   1      -2.786   5.990   0.000  0.00  0.00     0.266 A 
ATOM      6  C   UNL d   1      -3.911   4.982   0.000  0.00  0.00     0.084 A 
ATOM      7  C   UNL d   1      -3.911   4.145   0.000  0.00  0.00     0.082 A 
ATOM      8  C   UNL d   1      -1.477   5.400   0.000  0.00  0.00     0.009 A 
ATOM      9  C   UNL d   1      -1.958   6.078   0.000  0.00  0.00     0.061 A 
ATOM     10  O   UNL d   1      -3.271   6.663   0.000  0.00  0.00    -0.267 OA
ATOM     11  C   UNL d   1      -4.626   5.388   0.000  0.00  0.00     0.019 A 
ATOM     12  C   UNL d   1      -0.652   5.488   0.000  0.00  0.00     0.000 C 
ATOM     13  C   UNL d   1      -4.626   3.748   0.000  0.00  0.00     0.019 A 
ATOM     14  C   UNL d   1      -5.333   4.974   0.000  0.00  0.00     0.002 A 
ATOM     15  C   UNL d   1      -5.333   4.145   0.000  0.00  0.00     0.002 A 
ENDROOT
BRANCH   3  16
ATOM     16  C   UNL d   1      -3.133   3.075   0.000  0.00  0.00     0.125 C 
BRANCH  16  17
ATOM     17  C   UNL d   1      -2.422   2.656   0.000  0.00  0.00     0.231 C 
ATOM     18  O   UNL d   1      -1.702   3.058   0.000  0.00  0.00    -0.283 OA
BRANCH  17  19
ATOM     19  C   UNL d   1      -2.430   1.832   0.000  0.00  0.00     0.124 C 
BRANCH  19  20
ATOM     20  N   UNL d   1      -3.146   1.426   0.000  0.00  0.00    -0.300 N 
ATOM     21  C   UNL d   1      -3.146   0.602   0.000  0.00  0.00     0.080 A 
ATOM     22  C   UNL d   1      -3.861   0.188   0.000  0.00  0.00     0.019 A 
ATOM     23  C   UNL d   1      -4.576   0.602   0.000  0.00  0.00     0.003 A 
ATOM     24  C   UNL d   1      -4.576   1.426   0.000  0.00  0.00     0.019 A 
ATOM     25  C   UNL d   1      -5.291   0.197   0.000  0.00  0.00     0.000 C 
ATOM     26  C   UNL d   1      -3.861   1.841   0.000  0.00  0.00     0.080 A 
ENDBRANCH  19  20
ENDBRANCH  17  19
ENDBRANCH  16  17
ENDBRANCH   3  16
BRANCH   4  27
ATOM     27  C   UNL d   1      -1.330   3.986   0.000  0.00  0.00     0.125 C 
ATOM     28  N   UNL d   1      -0.510   4.058   0.000  0.00  0.00    -0.146 N 
ENDBRANCH   4  27
TORSDOF 5
