REMARK  4 active torsions:
REMARK  status: ('A' for Active; 'I' for Inactive)
REMARK    1  A    between atoms: C_6  and  C_1 
REMARK       I    between atoms: N_11  and  C_6 
REMARK    2  A    between atoms: O_14  and  C_9 
REMARK    3  A    between atoms: C_16  and  N_11 
REMARK    4  A    between atoms: C_12  and  C_16 
ROOT
ATOM      1  C   UNL d   1       3.629  -0.017   0.000  0.00  0.00     0.121 A 
ATOM      2  C   UNL d   1       3.629  -0.850   0.000  0.00  0.00     0.305 A 
ATOM      3  O   UNL d   1       2.904  -1.262   0.000  0.00  0.00    -0.271 OA
ATOM      4  C   UNL d   1       2.904   0.408   0.000  0.00  0.00     0.012 A 
ATOM      5  C   UNL d   1       2.188  -0.850   0.000  0.00  0.00     0.125 A 
ATOM      6  C   UNL d   1       2.192  -0.017   0.000  0.00  0.00     0.025 A 
ATOM      7  O   UNL d   1       4.342  -1.267   0.000  0.00  0.00    -0.259 OA
ATOM      8  C   UNL d   1       1.475  -1.254   0.000  0.00  0.00     0.117 A 
ATOM      9  C   UNL d   1       1.475   0.396   0.000  0.00  0.00     0.002 A 
ATOM     10  C   UNL d   1       0.762  -0.017   0.000  0.00  0.00     0.002 A 
ATOM     11  C   UNL d   1       0.762  -0.842   0.000  0.00  0.00     0.026 A 
ENDROOT
BRANCH   1  12
ATOM     12  C   UNL d   1       4.342   0.396   0.000  0.00  0.00     0.284 C 
ATOM     13  O   UNL d   1       4.342   1.221   0.000  0.00  0.00    -0.265 OA
ATOM     14  N   UNL d   1       5.054  -0.017   0.000  0.00  0.00    -0.206 NA
BRANCH  14  15
ATOM     15  C   UNL d   1       5.775   0.396   0.000  0.00  0.00     0.102 C 
BRANCH  15  16
ATOM     16  C   UNL d   1       5.775   1.221   0.000  0.00  0.00     0.021 C 
ATOM     17  C   UNL d   1       5.062   1.633   0.000  0.00  0.00     0.002 C 
ENDBRANCH  15  16
ENDBRANCH  14  15
ENDBRANCH   1  12
BRANCH   8  18
ATOM     18  O   UNL d   1       1.475  -2.079   0.000  0.00  0.00    -0.326 OA
ATOM     19  C   UNL d   1       2.188  -2.492   0.000  0.00  0.00     0.181 C 
ENDBRANCH   8  18
TORSDOF 4
