REMARK  4 active torsions:
REMARK  status: ('A' for Active; 'I' for Inactive)
REMARK       I    between atoms: C_2  and  N_1 
REMARK    1  A    between atoms: C_7  and  N_1 
REMARK    2  A    between atoms: C_5  and  C_2 
REMARK    3  A    between atoms: C_3  and  C_6 
REMARK    4  A    between atoms: C_6  and  C_5 
ROOT
ATOM      1  N   UNL d   1       5.779  -1.242   0.000  0.00  0.00    -0.208 NA
ATOM      2  C   UNL d   1       5.067  -0.838   0.000  0.00  0.00     0.279 C 
ATOM      3  O   UNL d   1       5.062  -0.013   0.000  0.00  0.00    -0.265 OA
ENDROOT
BRANCH   2   4
ATOM      4  C   UNL d   1       4.354  -1.250   0.000  0.00  0.00     0.063 C 
BRANCH   4   5
ATOM      5  C   UNL d   1       3.638  -0.842   0.000  0.00  0.00     0.011 C 
BRANCH   5   6
ATOM      6  C   UNL d   1       2.925  -1.254   0.000  0.00  0.00     0.030 A 
ATOM      7  S   UNL d   1       2.129  -1.004   0.000  0.00  0.00    -0.086 SA
ATOM      8  C   UNL d   1       1.642  -1.679   0.000  0.00  0.00     0.035 A 
ATOM      9  C   UNL d   1       2.129  -2.354   0.000  0.00  0.00     0.007 A 
ATOM     10  C   UNL d   1       2.929  -2.092   0.000  0.00  0.00     0.007 A 
ENDBRANCH   5   6
ENDBRANCH   4   5
ENDBRANCH   2   4
BRANCH   1  11
ATOM     11  C   UNL d   1       6.492  -0.829   0.000  0.00  0.00     0.085 A 
ATOM     12  C   UNL d   1       6.487  -0.017   0.000  0.00  0.00     0.018 A 
ATOM     13  C   UNL d   1       5.775   0.396   0.000  0.00  0.00     0.002 C 
ATOM     14  C   UNL d   1       7.200   0.408   0.000  0.00  0.00     0.002 A 
ATOM     15  C   UNL d   1       7.917  -0.004   0.000  0.00  0.00     0.000 A 
ATOM     16  C   UNL d   1       7.925  -0.829   0.000  0.00  0.00     0.002 A 
ATOM     17  C   UNL d   1       7.213  -1.242   0.000  0.00  0.00     0.019 A 
ENDBRANCH   1  11
TORSDOF 4
