REMARK  7 active torsions:
REMARK  status: ('A' for Active; 'I' for Inactive)
REMARK    1  A    between atoms: C_11  and  N_3 
REMARK    2  A    between atoms: C_10  and  C_4 
REMARK    3  A    between atoms: C_16  and  C_11 
REMARK    4  A    between atoms: N_13  and  C_17 
REMARK    5  A    between atoms: C_18  and  N_14 
REMARK    6  A    between atoms: C_17  and  C_16 
REMARK    7  A    between atoms: C_27  and  C_18 
ROOT
ATOM      1  C   UNL d   1      -2.629   4.556   0.000  0.00  0.00     0.137 A 
ATOM      2  N   UNL d   1      -3.122   5.229   0.000  0.00  0.00    -0.259 N 
ATOM      3  N   UNL d   1      -3.122   3.895   0.000  0.00  0.00    -0.287 N 
ATOM      4  C   UNL d   1      -1.814   4.644   0.000  0.00  0.00     0.054 A 
ATOM      5  C   UNL d   1      -2.784   5.985   0.000  0.00  0.00     0.266 A 
ATOM      6  C   UNL d   1      -3.908   4.978   0.000  0.00  0.00     0.084 A 
ATOM      7  C   UNL d   1      -3.908   4.142   0.000  0.00  0.00     0.082 A 
ATOM      8  C   UNL d   1      -1.475   5.396   0.000  0.00  0.00     0.009 A 
ATOM      9  C   UNL d   1      -1.956   6.073   0.000  0.00  0.00     0.061 A 
ATOM     10  O   UNL d   1      -3.268   6.658   0.000  0.00  0.00    -0.267 OA
ATOM     11  C   UNL d   1      -4.623   5.383   0.000  0.00  0.00     0.019 A 
ATOM     12  C   UNL d   1      -0.652   5.484   0.000  0.00  0.00     0.000 C 
ATOM     13  C   UNL d   1      -4.623   3.745   0.000  0.00  0.00     0.019 A 
ATOM     14  C   UNL d   1      -5.329   4.970   0.000  0.00  0.00     0.002 A 
ATOM     15  C   UNL d   1      -5.329   4.142   0.000  0.00  0.00     0.002 A 
ENDROOT
BRANCH   3  16
ATOM     16  C   UNL d   1      -3.131   3.072   0.000  0.00  0.00     0.125 C 
BRANCH  16  17
ATOM     17  C   UNL d   1      -2.420   2.654   0.000  0.00  0.00     0.231 C 
ATOM     18  O   UNL d   1      -1.701   3.055   0.000  0.00  0.00    -0.283 OA
BRANCH  17  19
ATOM     19  C   UNL d   1      -2.428   1.831   0.000  0.00  0.00     0.124 C 
BRANCH  19  20
ATOM     20  N   UNL d   1      -1.714   1.417   0.000  0.00  0.00    -0.297 N 
ATOM     21  C   UNL d   1      -1.154   2.027   0.000  0.00  0.00     0.100 A 
ATOM     22  C   UNL d   1      -0.347   1.839   0.000  0.00  0.00     0.100 A 
ATOM     23  N   UNL d   1      -0.088   1.049   0.000  0.00  0.00    -0.300 N 
ATOM     24  C   UNL d   1      -0.660   0.435   0.000  0.00  0.00     0.100 A 
ATOM     25  C   UNL d   1      -1.467   0.623   0.000  0.00  0.00     0.100 A 
BRANCH  23  26
ATOM     26  C   UNL d   1       0.719   0.874   0.000  0.00  0.00     0.080 C 
BRANCH  26  27
ATOM     27  C   UNL d   1       0.970   0.084   0.000  0.00  0.00     0.018 A 
ATOM     28  C   UNL d   1       0.406  -0.518   0.000  0.00  0.00     0.002 A 
ATOM     29  C   UNL d   1       0.656  -1.317   0.000  0.00  0.00     0.000 A 
ATOM     30  C   UNL d   1       1.459  -1.496   0.000  0.00  0.00     0.000 A 
ATOM     31  C   UNL d   1       2.023  -0.882   0.000  0.00  0.00     0.000 A 
ATOM     32  C   UNL d   1       1.772  -0.092   0.000  0.00  0.00     0.002 A 
ENDBRANCH  26  27
ENDBRANCH  23  26
ENDBRANCH  19  20
ENDBRANCH  17  19
ENDBRANCH  16  17
ENDBRANCH   3  16
BRANCH   4  33
ATOM     33  C   UNL d   1      -1.329   3.983   0.000  0.00  0.00     0.125 C 
ATOM     34  N   UNL d   1      -0.510   4.054   0.000  0.00  0.00    -0.146 N 
ENDBRANCH   4  33
TORSDOF 7
