REMARK  2 active torsions:
REMARK  status: ('A' for Active; 'I' for Inactive)
REMARK    1  A    between atoms: C_3  and  C_4 
REMARK       I    between atoms: N_7  and  C_3 
REMARK    2  A    between atoms: C_11  and  N_7 
ROOT
ATOM      1  C   UNL d   1       2.081  -1.313   0.000  0.00  0.00     0.300 A 
ATOM      2  O   UNL d   1       2.804  -0.901   0.000  0.00  0.00    -0.268 OA
ATOM      3  C   UNL d   1       2.804  -0.067   0.000  0.00  0.00     0.161 A 
ATOM      4  C   UNL d   1       1.363  -0.901   0.000  0.00  0.00     0.064 A 
ATOM      5  C   UNL d   1       1.371  -0.067   0.000  0.00  0.00     0.007 A 
ATOM      6  C   UNL d   1       2.085   0.349   0.000  0.00  0.00     0.030 A 
ATOM      7  O   UNL d   1       2.081  -2.135   0.000  0.00  0.00    -0.259 OA
ATOM      8  C   UNL d   1       0.652   0.345   0.000  0.00  0.00     0.000 A 
ATOM      9  C   UNL d   1       0.652  -1.309   0.000  0.00  0.00     0.005 A 
ATOM     10  C   UNL d   1      -0.058  -0.075   0.000  0.00  0.00     0.000 A 
ATOM     11  C   UNL d   1      -0.058  -0.897   0.000  0.00  0.00     0.000 A 
ENDROOT
BRANCH   3  12
ATOM     12  C   UNL d   1       3.519   0.337   0.000  0.00  0.00     0.302 C 
ATOM     13  N   UNL d   1       4.229  -0.075   0.000  0.00  0.00    -0.206 NA
ATOM     14  O   UNL d   1       3.519   1.159   0.000  0.00  0.00    -0.263 OA
BRANCH  13  15
ATOM     15  C   UNL d   1       4.939   0.337   0.000  0.00  0.00     0.085 A 
ATOM     16  C   UNL d   1       4.948   1.155   0.000  0.00  0.00     0.019 A 
ATOM     17  C   UNL d   1       5.650   1.566   0.000  0.00  0.00     0.002 A 
ATOM     18  C   UNL d   1       6.372   1.155   0.000  0.00  0.00     0.000 A 
ATOM     19  C   UNL d   1       6.368   0.332   0.000  0.00  0.00     0.002 A 
ATOM     20  C   UNL d   1       7.079   1.566   0.000  0.00  0.00     0.000 C 
ATOM     21  C   UNL d   1       5.650  -0.087   0.000  0.00  0.00     0.019 A 
ENDBRANCH  13  15
ENDBRANCH   3  12
TORSDOF 2
