REMARK  5 active torsions:
REMARK  status: ('A' for Active; 'I' for Inactive)
REMARK    1  A    between atoms: C_3  and  C_1 
REMARK       I    between atoms: N_5  and  C_1 
REMARK    2  A    between atoms: C_2  and  C_4 
REMARK    3  A    between atoms: C_4  and  C_3 
REMARK    4  A    between atoms: C_7  and  N_5 
REMARK    5  A    between atoms: O_14  and  C_13 
ROOT
ATOM      1  C   UNL d   1       5.122  -0.328   0.000  0.00  0.00     0.279 C 
ATOM      2  N   UNL d   1       5.837  -0.735   0.000  0.00  0.00    -0.208 NA
ATOM      3  O   UNL d   1       5.114   0.494   0.000  0.00  0.00    -0.265 OA
ENDROOT
BRANCH   1   4
ATOM      4  C   UNL d   1       4.412  -0.740   0.000  0.00  0.00     0.065 C 
BRANCH   4   5
ATOM      5  C   UNL d   1       3.693  -0.328   0.000  0.00  0.00     0.030 C 
BRANCH   5   6
ATOM      6  C   UNL d   1       2.983  -0.748   0.000  0.00  0.00     0.100 A 
ATOM      7  O   UNL d   1       2.185  -0.490   0.000  0.00  0.00    -0.305 OA
ATOM      8  C   UNL d   1       1.707  -1.171   0.000  0.00  0.00     0.123 A 
ATOM      9  C   UNL d   1       2.198  -1.836   0.000  0.00  0.00     0.029 A 
ATOM     10  C   UNL d   1       2.991  -1.575   0.000  0.00  0.00     0.027 A 
ENDBRANCH   5   6
ENDBRANCH   4   5
ENDBRANCH   1   4
BRANCH   2  11
ATOM     11  C   UNL d   1       6.547  -0.316   0.000  0.00  0.00     0.087 A 
ATOM     12  C   UNL d   1       6.535   0.498   0.000  0.00  0.00     0.043 A 
ATOM     13  C   UNL d   1       7.241   0.918   0.000  0.00  0.00     0.096 A 
ATOM     14  C   UNL d   1       7.963   0.519   0.000  0.00  0.00     0.024 A 
ATOM     15  C   UNL d   1       7.968  -0.312   0.000  0.00  0.00     0.004 A 
ATOM     16  C   UNL d   1       7.257  -0.727   0.000  0.00  0.00     0.019 A 
BRANCH  13  17
ATOM     17  O   UNL d   1       7.232   1.745   0.000  0.00  0.00    -0.328 OA
ATOM     18  C   UNL d   1       6.518   2.152   0.000  0.00  0.00     0.181 C 
ENDBRANCH  13  17
ENDBRANCH   2  11
TORSDOF 5
