REMARK  4 active torsions:
REMARK  status: ('A' for Active; 'I' for Inactive)
REMARK    1  A    between atoms: N_3  and  C_1 
REMARK    2  A    between atoms: C_6  and  C_2 
REMARK    3  A    between atoms: C_13  and  N_8 
REMARK    4  A    between atoms: C_16  and  C_13 
ROOT
ATOM      1  N   UNL d   1      -3.882   5.061   0.000  0.00  0.00    -0.286 N 
ATOM      2  N   UNL d   1      -4.386   6.646   0.000  0.00  0.00    -0.300 N 
ATOM      3  C   UNL d   1      -4.687   5.237   0.000  0.00  0.00     0.101 A 
ATOM      4  C   UNL d   1      -3.316   5.673   0.000  0.00  0.00     0.101 A 
ATOM      5  C   UNL d   1      -3.568   6.457   0.000  0.00  0.00     0.100 A 
ATOM      6  C   UNL d   1      -4.939   6.029   0.000  0.00  0.00     0.100 A 
ENDROOT
BRANCH   1   7
ATOM      7  C   UNL d   1      -3.882   4.231   0.000  0.00  0.00     0.149 A 
ATOM      8  C   UNL d   1      -4.612   3.824   0.000  0.00  0.00     0.056 A 
ATOM      9  C   UNL d   1      -4.612   3.002   0.000  0.00  0.00     0.006 A 
ATOM     10  C   UNL d   1      -5.329   2.579   0.000  0.00  0.00     0.000 C 
ATOM     11  C   UNL d   1      -3.887   2.587   0.000  0.00  0.00     0.019 A 
ATOM     12  C   UNL d   1      -3.166   3.002   0.000  0.00  0.00     0.083 A 
ATOM     13  N   UNL d   1      -3.170   3.824   0.000  0.00  0.00    -0.228 NA
ATOM     14  C   UNL d   1      -2.449   2.587   0.000  0.00  0.00     0.021 C 
BRANCH   8  15
ATOM     15  C   UNL d   1      -5.321   4.239   0.000  0.00  0.00     0.125 C 
ATOM     16  N   UNL d   1      -6.037   3.832   0.000  0.00  0.00    -0.146 N 
ENDBRANCH   8  15
ENDBRANCH   1   7
BRANCH   2  17
ATOM     17  C   UNL d   1      -4.629   7.434   0.000  0.00  0.00     0.080 C 
BRANCH  17  18
ATOM     18  C   UNL d   1      -4.071   8.042   0.000  0.00  0.00     0.018 A 
ATOM     19  C   UNL d   1      -3.270   7.861   0.000  0.00  0.00     0.002 A 
ATOM     20  C   UNL d   1      -2.713   8.469   0.000  0.00  0.00     0.000 A 
ATOM     21  C   UNL d   1      -2.964   9.249   0.000  0.00  0.00     0.000 A 
ATOM     22  C   UNL d   1      -3.769   9.434   0.000  0.00  0.00     0.000 A 
ATOM     23  C   UNL d   1      -4.323   8.822   0.000  0.00  0.00     0.002 A 
ENDBRANCH  17  18
ENDBRANCH   2  17
TORSDOF 4
