REMARK  6 active torsions:
REMARK  status: ('A' for Active; 'I' for Inactive)
REMARK    1  A    between atoms: C_2  and  C_1 
REMARK       I    between atoms: N_5  and  C_2 
REMARK    2  A    between atoms: C_13  and  N_5 
REMARK    3  A    between atoms: C_14  and  C_6 
REMARK       I    between atoms: C_8  and  N_9 
REMARK    4  A    between atoms: N_9  and  C_15 
REMARK    5  A    between atoms: S_11  and  C_14 
REMARK    6  A    between atoms: C_16  and  S_11 
ROOT
ATOM      1  C   UNL d   1       2.849  -0.279   0.000  0.00  0.00     0.158 A 
ATOM      2  O   UNL d   1       2.178   0.200   0.000  0.00  0.00    -0.302 OA
ATOM      3  C   UNL d   1       2.591  -1.066   0.000  0.00  0.00     0.032 A 
ATOM      4  C   UNL d   1       1.516  -0.279   0.000  0.00  0.00     0.107 A 
ATOM      5  C   UNL d   1       1.766  -1.066   0.000  0.00  0.00     0.027 A 
ENDROOT
BRANCH   1   6
ATOM      6  C   UNL d   1       3.636  -0.029   0.000  0.00  0.00     0.302 C 
ATOM      7  N   UNL d   1       4.248  -0.579   0.000  0.00  0.00    -0.206 NA
ATOM      8  O   UNL d   1       3.803   0.775   0.000  0.00  0.00    -0.263 OA
BRANCH   7   9
ATOM      9  C   UNL d   1       4.065  -1.391   0.000  0.00  0.00     0.085 A 
ATOM     10  C   UNL d   1       3.278  -1.641   0.000  0.00  0.00     0.021 A 
ATOM     11  C   UNL d   1       3.111  -2.449   0.000  0.00  0.00     0.021 A 
ATOM     12  C   UNL d   1       3.724  -2.999   0.000  0.00  0.00     0.085 A 
ATOM     13  C   UNL d   1       4.511  -2.741   0.000  0.00  0.00     0.021 A 
ATOM     14  C   UNL d   1       4.686  -1.937   0.000  0.00  0.00     0.021 A 
BRANCH  12  15
ATOM     15  N   UNL d   1       3.553  -3.811   0.000  0.00  0.00    -0.208 NA
ATOM     16  C   UNL d   1       2.766  -4.061   0.000  0.00  0.00     0.279 C 
ATOM     17  O   UNL d   1       2.153  -3.515   0.000  0.00  0.00    -0.265 OA
ATOM     18  C   UNL d   1       2.599  -4.865   0.000  0.00  0.00     0.068 C 
ENDBRANCH  12  15
ENDBRANCH   7   9
ENDBRANCH   1   6
BRANCH   4  19
ATOM     19  C   UNL d   1       0.729  -0.029   0.000  0.00  0.00     0.060 C 
BRANCH  19  20
ATOM     20  S   UNL d   1       0.554   0.775   0.000  0.00  0.00    -0.084 SA
BRANCH  20  21
ATOM     21  C   UNL d   1      -0.225   1.033   0.000  0.00  0.00     0.029 A 
ATOM     22  C   UNL d   1      -0.833   0.475   0.000  0.00  0.00     0.006 A 
ATOM     23  C   UNL d   1      -1.612   0.733   0.000  0.00  0.00     0.001 A 
ATOM     24  C   UNL d   1      -1.787   1.537   0.000  0.00  0.00     0.000 A 
ATOM     25  C   UNL d   1      -1.175   2.095   0.000  0.00  0.00     0.001 A 
ATOM     26  C   UNL d   1      -0.396   1.837   0.000  0.00  0.00     0.006 A 
ENDBRANCH  20  21
ENDBRANCH  19  20
ENDBRANCH   4  19
TORSDOF 6
