REMARK  2 active torsions:
REMARK  status: ('A' for Active; 'I' for Inactive)
REMARK    1  A    between atoms: C_3  and  C_1 
REMARK       I    between atoms: N_2  and  C_3 
REMARK    2  A    between atoms: O_16  and  C_15 
ROOT
ATOM      1  C   UNL d   1       0.922   0.885   0.000  0.00  0.00     0.121 A 
ATOM      2  C   UNL d   1       0.926   0.058   0.000  0.00  0.00     0.305 A 
ATOM      3  O   UNL d   1       0.204  -0.361   0.000  0.00  0.00    -0.271 OA
ATOM      4  C   UNL d   1       0.199   1.304   0.000  0.00  0.00     0.012 A 
ATOM      5  C   UNL d   1      -0.507   0.046   0.000  0.00  0.00     0.125 A 
ATOM      6  C   UNL d   1      -0.511   0.881   0.000  0.00  0.00     0.025 A 
ATOM      7  O   UNL d   1       1.637  -0.353   0.000  0.00  0.00    -0.259 OA
ATOM      8  C   UNL d   1      -1.230  -0.361   0.000  0.00  0.00     0.117 A 
ATOM      9  C   UNL d   1      -1.230   1.292   0.000  0.00  0.00     0.002 A 
ATOM     10  C   UNL d   1      -1.940   0.872   0.000  0.00  0.00     0.002 A 
ATOM     11  C   UNL d   1      -1.940   0.050   0.000  0.00  0.00     0.026 A 
ENDROOT
BRANCH   1  12
ATOM     12  C   UNL d   1       1.633   1.296   0.000  0.00  0.00     0.285 C 
ATOM     13  N   UNL d   1       2.347   0.893   0.000  0.00  0.00    -0.193 N 
ATOM     14  N   UNL d   1       2.434   0.075   0.000  0.00  0.00    -0.163 NA
ATOM     15  C   UNL d   1       3.095   1.230   0.000  0.00  0.00     0.105 A 
ATOM     16  C   UNL d   1       3.240  -0.091   0.000  0.00  0.00     0.103 A 
ATOM     17  C   UNL d   1       3.577  -0.847   0.000  0.00  0.00     0.022 C 
ATOM     18  C   UNL d   1       3.643   0.619   0.000  0.00  0.00     0.042 A 
ATOM     19  O   UNL d   1       1.633   2.119   0.000  0.00  0.00    -0.265 OA
ENDBRANCH   1  12
BRANCH   8  20
ATOM     20  O   UNL d   1      -1.221  -1.184   0.000  0.00  0.00    -0.326 OA
ATOM     21  C   UNL d   1      -0.511  -1.595   0.000  0.00  0.00     0.181 C 
ENDBRANCH   8  20
TORSDOF 2
