REMARK  4 active torsions:
REMARK  status: ('A' for Active; 'I' for Inactive)
REMARK    1  A    between atoms: C_15  and  C_2 
REMARK    2  A    between atoms: C_3  and  N_6 
REMARK    3  A    between atoms: C_5  and  C_16 
REMARK       I    between atoms: N_6  and  C_5 
REMARK    4  A    between atoms: C_16  and  C_15 
ROOT
ATOM      1  C   UNL d   1       5.105  -1.502   0.000  0.00  0.00     0.279 C 
ATOM      2  N   UNL d   1       5.716  -2.051   0.000  0.00  0.00    -0.208 NA
ATOM      3  O   UNL d   1       5.271  -0.699   0.000  0.00  0.00    -0.265 OA
ENDROOT
BRANCH   1   4
ATOM      4  C   UNL d   1       4.319  -1.752   0.000  0.00  0.00     0.065 C 
BRANCH   4   5
ATOM      5  C   UNL d   1       3.711  -1.202   0.000  0.00  0.00     0.030 C 
BRANCH   5   6
ATOM      6  C   UNL d   1       2.925  -1.452   0.000  0.00  0.00     0.100 A 
ATOM      7  O   UNL d   1       2.251  -0.974   0.000  0.00  0.00    -0.307 OA
ATOM      8  C   UNL d   1       1.589  -1.452   0.000  0.00  0.00     0.100 A 
ATOM      9  C   UNL d   1       1.847  -2.238   0.000  0.00  0.00     0.027 A 
ATOM     10  C   UNL d   1       0.811  -1.202   0.000  0.00  0.00     0.027 C 
ATOM     11  C   UNL d   1       2.671  -2.238   0.000  0.00  0.00     0.027 A 
ENDBRANCH   5   6
ENDBRANCH   4   5
ENDBRANCH   1   4
BRANCH   2  12
ATOM     12  C   UNL d   1       5.542  -2.862   0.000  0.00  0.00     0.085 A 
ATOM     13  C   UNL d   1       4.755  -3.112   0.000  0.00  0.00     0.019 A 
ATOM     14  C   UNL d   1       4.581  -3.911   0.000  0.00  0.00     0.002 A 
ATOM     15  C   UNL d   1       3.799  -4.160   0.000  0.00  0.00     0.000 C 
ATOM     16  C   UNL d   1       5.197  -4.473   0.000  0.00  0.00     0.000 A 
ATOM     17  C   UNL d   1       5.983  -4.210   0.000  0.00  0.00     0.002 A 
ATOM     18  C   UNL d   1       6.153  -3.412   0.000  0.00  0.00     0.019 A 
ATOM     19  C   UNL d   1       6.594  -4.768   0.000  0.00  0.00     0.000 C 
ENDBRANCH   2  12
TORSDOF 4
