REMARK  6 active torsions:
REMARK  status: ('A' for Active; 'I' for Inactive)
REMARK       I    between atoms: N_2  and  C_4 
REMARK    1  A    between atoms: C_6  and  N_2 
REMARK    2  A    between atoms: C_12  and  C_3 
REMARK    3  A    between atoms: C_4  and  C_11 
REMARK    4  A    between atoms: O_13  and  C_9 
REMARK    5  A    between atoms: C_11  and  C_12 
REMARK    6  A    between atoms: C_17  and  O_13 
ROOT
ATOM      1  N   UNL d   1       5.725  -2.054   0.000  0.00  0.00    -0.206 NA
ATOM      2  C   UNL d   1       5.112  -1.504   0.000  0.00  0.00     0.279 C 
ATOM      3  O   UNL d   1       5.279  -0.700   0.000  0.00  0.00    -0.265 OA
ENDROOT
BRANCH   1   4
ATOM      4  C   UNL d   1       5.550  -2.867   0.000  0.00  0.00     0.107 A 
ATOM      5  C   UNL d   1       6.162  -3.417   0.000  0.00  0.00     0.118 A 
ATOM      6  C   UNL d   1       5.992  -4.217   0.000  0.00  0.00     0.026 A 
ATOM      7  C   UNL d   1       5.204  -4.479   0.000  0.00  0.00     0.002 A 
ATOM      8  C   UNL d   1       4.588  -3.925   0.000  0.00  0.00     0.002 A 
ATOM      9  C   UNL d   1       4.763  -3.112   0.000  0.00  0.00     0.021 A 
BRANCH   5  10
ATOM     10  O   UNL d   1       6.942  -3.154   0.000  0.00  0.00    -0.304 OA
BRANCH  10  11
ATOM     11  C   UNL d   1       7.112  -2.350   0.000  0.00  0.00     0.123 C 
ATOM     12  C   UNL d   1       7.892  -2.087   0.000  0.00  0.00     0.029 C 
ENDBRANCH  10  11
ENDBRANCH   5  10
ENDBRANCH   1   4
BRANCH   2  13
ATOM     13  C   UNL d   1       4.325  -1.754   0.000  0.00  0.00     0.065 C 
BRANCH  13  14
ATOM     14  C   UNL d   1       3.717  -1.204   0.000  0.00  0.00     0.030 C 
BRANCH  14  15
ATOM     15  C   UNL d   1       2.929  -1.454   0.000  0.00  0.00     0.100 A 
ATOM     16  O   UNL d   1       2.254  -0.975   0.000  0.00  0.00    -0.307 OA
ATOM     17  C   UNL d   1       1.592  -1.454   0.000  0.00  0.00     0.100 A 
ATOM     18  C   UNL d   1       1.850  -2.242   0.000  0.00  0.00     0.027 A 
ATOM     19  C   UNL d   1       0.812  -1.204   0.000  0.00  0.00     0.027 C 
ATOM     20  C   UNL d   1       2.675  -2.242   0.000  0.00  0.00     0.027 A 
ENDBRANCH  14  15
ENDBRANCH  13  14
ENDBRANCH   2  13
TORSDOF 6
