REMARK  1 active torsions:
REMARK  status: ('A' for Active; 'I' for Inactive)
REMARK    1  A    between atoms: C_14  and  C_7 
ROOT
ATOM      1  C   UNL d   1       3.852  -1.241   0.000  0.00  0.00     0.121 A 
ATOM      2  C   UNL d   1       3.852  -2.066   0.000  0.00  0.00     0.058 A 
ATOM      3  N   UNL d   1       4.639  -0.991   0.000  0.00  0.00    -0.195 NA
ATOM      4  S   UNL d   1       3.140  -0.829   0.000  0.00  0.00    -0.068 SA
ATOM      5  C   UNL d   1       2.436  -1.241   0.000  0.00  0.00     0.027 A 
ATOM      6  C   UNL d   1       2.436  -2.066   0.000  0.00  0.00     0.003 A 
ATOM      7  C   UNL d   1       3.140  -2.478   0.000  0.00  0.00     0.010 A 
ATOM      8  C   UNL d   1       5.122  -1.653   0.000  0.00  0.00     0.311 A 
ATOM      9  S   UNL d   1       4.639  -2.324   0.000  0.00  0.00    -0.024 SA
ATOM     10  C   UNL d   1       1.454  -2.041   0.000  0.00  0.00    -0.017 A 
ATOM     11  C   UNL d   1       1.341  -1.149   0.000  0.00  0.00    -0.012 A 
ATOM     12  C   UNL d   1       0.754  -0.354   0.000  0.00  0.00     0.053 A 
ATOM     13  O   UNL d   1       5.947  -1.653   0.000  0.00  0.00    -0.258 OA
ATOM     14  C   UNL d   1       0.816  -2.861   0.000  0.00  0.00    -0.004 A 
ATOM     15  C   UNL d   1       0.879  -1.962   0.000  0.00  0.00    -0.004 A 
ENDROOT
BRANCH   7  16
ATOM     16  C   UNL d   1       3.140  -3.303   0.000  0.00  0.00     0.020 A 
ATOM     17  C   UNL d   1       3.861  -3.715   0.000  0.00  0.00     0.099 A 
ATOM     18  N   UNL d   1       3.852  -4.540   0.000  0.00  0.00    -0.242 NA
ATOM     19  C   UNL d   1       3.140  -4.952   0.000  0.00  0.00     0.099 A 
ATOM     20  C   UNL d   1       2.428  -4.535   0.000  0.00  0.00     0.021 A 
ATOM     21  C   UNL d   1       2.428  -3.715   0.000  0.00  0.00     0.003 A 
ENDBRANCH   7  16
TORSDOF 1
