REMARK  2 active torsions:
REMARK  status: ('A' for Active; 'I' for Inactive)
REMARK    1  A    between atoms: N_4  and  C_1 
REMARK    2  A    between atoms: C_6  and  C_2 
ROOT
ATOM      1  C   UNL d   1      -3.866   4.213   0.000  0.00  0.00     0.149 A 
ATOM      2  C   UNL d   1      -4.593   3.808   0.000  0.00  0.00     0.056 A 
ATOM      3  N   UNL d   1      -3.156   3.808   0.000  0.00  0.00    -0.228 NA
ATOM      4  C   UNL d   1      -4.593   2.990   0.000  0.00  0.00     0.006 A 
ATOM      5  C   UNL d   1      -3.152   2.990   0.000  0.00  0.00     0.083 A 
ATOM      6  C   UNL d   1      -3.870   2.576   0.000  0.00  0.00     0.019 A 
ATOM      7  C   UNL d   1      -5.307   2.568   0.000  0.00  0.00     0.000 C 
ATOM      8  C   UNL d   1      -2.438   2.576   0.000  0.00  0.00     0.021 C 
ENDROOT
BRANCH   1   9
ATOM      9  N   UNL d   1      -3.866   5.040   0.000  0.00  0.00    -0.289 N 
ATOM     10  C   UNL d   1      -4.493   5.399   0.000  0.00  0.00     0.082 A 
ATOM     11  C   UNL d   1      -4.484   6.117   0.000  0.00  0.00     0.021 A 
ATOM     12  C   UNL d   1      -3.244   6.104   0.000  0.00  0.00     0.021 A 
ATOM     13  C   UNL d   1      -3.252   5.390   0.000  0.00  0.00     0.082 A 
ENDBRANCH   1   9
BRANCH   2  14
ATOM     14  C   UNL d   1      -5.298   4.221   0.000  0.00  0.00     0.125 C 
ATOM     15  N   UNL d   1      -6.012   3.816   0.000  0.00  0.00    -0.146 N 
ENDBRANCH   2  14
TORSDOF 2
