REMARK  6 active torsions:
REMARK  status: ('A' for Active; 'I' for Inactive)
REMARK    1  A    between atoms: C_2  and  C_1 
REMARK       I    between atoms: N_5  and  C_1 
REMARK    2  A    between atoms: C_4  and  C_2 
REMARK    3  A    between atoms: O_13  and  C_3 
REMARK    4  A    between atoms: C_9  and  C_4 
REMARK    5  A    between atoms: C_11  and  N_5 
REMARK    6  A    between atoms: O_14  and  C_6 
ROOT
ATOM      1  C   UNL d   1       3.645  -0.843   0.000  0.00  0.00     0.005 C 
ENDROOT
BRANCH   1   2
ATOM      2  C   UNL d   1       4.363  -1.253   0.000  0.00  0.00     0.062 C 
BRANCH   2   3
ATOM      3  C   UNL d   1       5.077  -0.839   0.000  0.00  0.00     0.279 C 
ATOM      4  N   UNL d   1       5.749  -1.219   0.000  0.00  0.00    -0.208 NA
ATOM      5  O   UNL d   1       5.073  -0.063   0.000  0.00  0.00    -0.265 OA
BRANCH   4   6
ATOM      6  C   UNL d   1       6.418  -0.831   0.000  0.00  0.00     0.085 A 
ATOM      7  C   UNL d   1       6.392  -0.050   0.000  0.00  0.00     0.019 A 
ATOM      8  C   UNL d   1       7.056   0.346   0.000  0.00  0.00     0.002 A 
ATOM      9  C   UNL d   1       7.753  -0.042   0.000  0.00  0.00     0.000 A 
ATOM     10  C   UNL d   1       7.770  -0.827   0.000  0.00  0.00     0.002 A 
ATOM     11  C   UNL d   1       7.102  -1.228   0.000  0.00  0.00     0.019 A 
ENDBRANCH   4   6
ENDBRANCH   2   3
ENDBRANCH   1   2
BRANCH   1  12
ATOM     12  C   UNL d   1       2.931  -1.257   0.000  0.00  0.00     0.002 A 
ATOM     13  C   UNL d   1       2.209  -0.843   0.000  0.00  0.00     0.026 A 
ATOM     14  C   UNL d   1       1.495  -1.257   0.000  0.00  0.00     0.116 A 
ATOM     15  C   UNL d   1       1.503  -2.083   0.000  0.00  0.00     0.116 A 
ATOM     16  C   UNL d   1       2.221  -2.497   0.000  0.00  0.00     0.026 A 
ATOM     17  C   UNL d   1       2.935  -2.079   0.000  0.00  0.00     0.002 A 
BRANCH  14  18
ATOM     18  O   UNL d   1       0.789  -0.852   0.000  0.00  0.00    -0.326 OA
ATOM     19  C   UNL d   1       0.075  -1.269   0.000  0.00  0.00     0.181 C 
ENDBRANCH  14  18
BRANCH  15  20
ATOM     20  O   UNL d   1       0.789  -2.505   0.000  0.00  0.00    -0.326 OA
ATOM     21  C   UNL d   1       0.793  -3.332   0.000  0.00  0.00     0.181 C 
ENDBRANCH  15  20
ENDBRANCH   1  12
TORSDOF 6
