REMARK  6 active torsions:
REMARK  status: ('A' for Active; 'I' for Inactive)
REMARK    1  A    between atoms: S_10  and  C_4 
REMARK    2  A    between atoms: C_16  and  S_10 
REMARK    3  A    between atoms: C_11  and  C_14 
REMARK    4  A    between atoms: O_20  and  C_13 
REMARK    5  A    between atoms: C_14  and  C_16 
REMARK    6  A    between atoms: O_21  and  C_15 
ROOT
ATOM      1  C   UNL d   1      -2.821   5.807   0.000  0.00  0.00     0.079 C 
ENDROOT
BRANCH   1   2
ATOM      2  C   UNL d   1      -2.289   6.441   0.000  0.00  0.00     0.202 C 
ATOM      3  O   UNL d   1      -1.465   6.288   0.000  0.00  0.00    -0.286 OA
BRANCH   2   4
ATOM      4  C   UNL d   1      -2.559   7.226   0.000  0.00  0.00     0.042 A 
ATOM      5  C   UNL d   1      -2.023   7.860   0.000  0.00  0.00     0.029 A 
ATOM      6  C   UNL d   1      -2.302   8.645   0.000  0.00  0.00     0.116 A 
ATOM      7  C   UNL d   1      -3.117   8.784   0.000  0.00  0.00     0.116 A 
ATOM      8  C   UNL d   1      -3.649   8.164   0.000  0.00  0.00     0.026 A 
ATOM      9  C   UNL d   1      -3.370   7.378   0.000  0.00  0.00     0.005 A 
BRANCH   6  10
ATOM     10  O   UNL d   1      -1.770   9.279   0.000  0.00  0.00    -0.326 OA
ATOM     11  C   UNL d   1      -0.950   9.127   0.000  0.00  0.00     0.181 C 
ENDBRANCH   6  10
BRANCH   7  12
ATOM     12  O   UNL d   1      -3.404   9.570   0.000  0.00  0.00    -0.326 OA
ATOM     13  C   UNL d   1      -2.863  10.204   0.000  0.00  0.00     0.181 C 
ENDBRANCH   7  12
ENDBRANCH   2   4
ENDBRANCH   1   2
BRANCH   1  14
ATOM     14  S   UNL d   1      -2.542   5.034   0.000  0.00  0.00    -0.063 SA
BRANCH  14  15
ATOM     15  C   UNL d   1      -2.555   4.198   0.000  0.00  0.00     0.132 A 
ATOM     16  N   UNL d   1      -3.239   3.826   0.000  0.00  0.00    -0.050 N 
ATOM     17  C   UNL d   1      -3.244   3.037   0.000  0.00  0.00     0.753 A 
ATOM     18  N   UNL d   1      -4.595   3.847   0.000  0.00  0.00    -0.130 NA
ATOM     19  N   UNL d   1      -3.923   2.648   0.000  0.00  0.00    -0.038 NA
ATOM     20  N   UNL d   1      -2.572   2.644   0.000  0.00  0.00    -0.059 NA
ATOM     21  C   UNL d   1      -4.599   3.062   0.000  0.00  0.00     0.201 A 
ATOM     22  C   UNL d   1      -5.292   2.682   0.000  0.00  0.00     0.044 C 
ATOM     23  C   UNL d   1      -1.888   3.024   0.000  0.00  0.00     0.102 A 
ATOM     24  C   UNL d   1      -1.883   3.809   0.000  0.00  0.00     0.046 A 
ATOM     25  C   UNL d   1      -1.212   2.618   0.000  0.00  0.00     0.021 C 
ENDBRANCH  14  15
ENDBRANCH   1  14
TORSDOF 6
