REMARK  5 active torsions:
REMARK  status: ('A' for Active; 'I' for Inactive)
REMARK    1  A    between atoms: C_3  and  C_1 
REMARK    2  A    between atoms: C_5  and  C_3 
REMARK    3  A    between atoms: C_13  and  C_5 
REMARK    4  A    between atoms: C_10  and  C_11 
REMARK    5  A    between atoms: O_16  and  C_10 
ROOT
ATOM      1  C   UNL d   1       4.092  -1.717   0.000  0.00  0.00     0.092 C 
ATOM      2  C   UNL d   1       4.513  -2.429   0.000  0.00  0.00     0.103 C 
ATOM      3  N   UNL d   1       4.929  -3.142   0.000  0.00  0.00    -0.191 NA
ENDROOT
BRANCH   1   4
ATOM      4  C   UNL d   1       3.267  -1.725   0.000  0.00  0.00     0.120 A 
ATOM      5  N   UNL d   1       2.779  -1.054   0.000  0.00  0.00    -0.238 NA
ATOM      6  C   UNL d   1       1.992  -1.317   0.000  0.00  0.00     0.088 A 
ATOM      7  C   UNL d   1       1.279  -0.904   0.000  0.00  0.00     0.020 A 
ATOM      8  C   UNL d   1       2.000  -2.142   0.000  0.00  0.00     0.049 A 
ATOM      9  C   UNL d   1       0.567  -1.325   0.000  0.00  0.00     0.002 A 
ATOM     10  C   UNL d   1       0.567  -2.150   0.000  0.00  0.00     0.001 A 
ATOM     11  C   UNL d   1       1.279  -2.562   0.000  0.00  0.00     0.008 A 
ATOM     12  S   UNL d   1       2.788  -2.392   0.000  0.00  0.00    -0.066 SA
ENDBRANCH   1   4
BRANCH   1  13
ATOM     13  C   UNL d   1       4.504  -1.004   0.000  0.00  0.00     0.012 C 
BRANCH  13  14
ATOM     14  C   UNL d   1       5.325  -1.000   0.000  0.00  0.00     0.001 A 
ATOM     15  C   UNL d   1       5.742  -1.704   0.000  0.00  0.00     0.000 A 
ATOM     16  C   UNL d   1       6.567  -1.704   0.000  0.00  0.00     0.005 A 
ATOM     17  C   UNL d   1       6.979  -0.988   0.000  0.00  0.00     0.063 A 
ATOM     18  C   UNL d   1       6.567  -0.275   0.000  0.00  0.00     0.005 A 
ATOM     19  C   UNL d   1       5.737  -0.275   0.000  0.00  0.00     0.000 A 
BRANCH  17  20
ATOM     20  C   UNL d   1       7.804  -0.988   0.000  0.00  0.00     0.296 C 
ATOM     21  O   UNL d   1       8.217  -0.267   0.000  0.00  0.00    -0.259 OA
BRANCH  20  22
ATOM     22  O   UNL d   1       8.217  -1.700   0.000  0.00  0.00    -0.296 OA
ATOM     23  C   UNL d   1       7.804  -2.417   0.000  0.00  0.00     0.185 C 
ENDBRANCH  20  22
ENDBRANCH  17  20
ENDBRANCH  13  14
ENDBRANCH   1  13
TORSDOF 5
