REMARK  3 active torsions:
REMARK  status: ('A' for Active; 'I' for Inactive)
REMARK    1  A    between atoms: C_13  and  C_2 
REMARK    2  A    between atoms: C_10  and  C_4 
REMARK    3  A    between atoms: N_7  and  C_10 
ROOT
ATOM      1  N   UNL d   1       4.715  -6.629   0.000  0.00  0.00    -0.121 NA
ATOM      2  C   UNL d   1       4.457  -7.409   0.000  0.00  0.00     0.204 A 
ATOM      3  O   UNL d   1       5.120  -7.897   0.000  0.00  0.00    -0.267 OA
ATOM      4  C   UNL d   1       5.795  -7.417   0.000  0.00  0.00     0.222 A 
ATOM      5  N   UNL d   1       5.541  -6.629   0.000  0.00  0.00    -0.119 NA
ENDROOT
BRANCH   4   6
ATOM      6  C   UNL d   1       6.579  -7.672   0.000  0.00  0.00     0.127 C 
BRANCH   6   7
ATOM      7  N   UNL d   1       7.192  -7.121   0.000  0.00  0.00    -0.300 N 
ATOM      8  C   UNL d   1       7.972  -7.384   0.000  0.00  0.00     0.081 A 
ATOM      9  C   UNL d   1       8.585  -6.842   0.000  0.00  0.00     0.053 A 
ATOM     10  C   UNL d   1       8.422  -6.033   0.000  0.00  0.00     0.239 A 
ATOM     11  C   UNL d   1       7.634  -5.770   0.000  0.00  0.00     0.053 A 
ATOM     12  O   UNL d   1       8.205  -5.232   0.000  0.00  0.00    -0.298 OA
ATOM     13  O   UNL d   1       9.218  -6.246   0.000  0.00  0.00    -0.298 OA
ATOM     14  C   UNL d   1       7.021  -6.321   0.000  0.00  0.00     0.081 A 
ATOM     15  C   UNL d   1       8.918  -4.816   0.000  0.00  0.00     0.146 A 
ATOM     16  C   UNL d   1       9.623  -5.529   0.000  0.00  0.00     0.146 A 
ENDBRANCH   6   7
ENDBRANCH   4   6
BRANCH   2  17
ATOM     17  C   UNL d   1       3.669  -7.659   0.000  0.00  0.00     0.043 A 
ATOM     18  C   UNL d   1       3.494  -8.468   0.000  0.00  0.00     0.004 A 
ATOM     19  C   UNL d   1       2.718  -8.722   0.000  0.00  0.00     0.000 A 
ATOM     20  C   UNL d   1       2.101  -8.168   0.000  0.00  0.00     0.000 A 
ATOM     21  C   UNL d   1       2.276  -7.359   0.000  0.00  0.00     0.000 A 
ATOM     22  C   UNL d   1       3.056  -7.109   0.000  0.00  0.00     0.004 A 
ENDBRANCH   2  17
TORSDOF 3
