REMARK  6 active torsions:
REMARK  status: ('A' for Active; 'I' for Inactive)
REMARK    1  A    between atoms: C_4  and  S_1 
REMARK    2  A    between atoms: C_5  and  S_1 
REMARK    3  A    between atoms: C_2  and  N_7 
REMARK    4  A    between atoms: N_3  and  C_2 
REMARK    5  A    between atoms: C_17  and  N_6 
REMARK    6  A    between atoms: N_7  and  C_12 
ROOT
ATOM      1  C   UNL d   1       2.124   0.183   0.000  0.00  0.00     0.206 C 
ATOM      2  S   UNL d   1       2.124   1.006   0.000  0.00  0.00    -0.038 SA
ENDROOT
BRANCH   1   3
ATOM      3  N   UNL d   1       2.843  -0.229   0.000  0.00  0.00    -0.218 NA
BRANCH   3   4
ATOM      4  C   UNL d   1       3.558   0.183   0.000  0.00  0.00     0.085 A 
ATOM      5  C   UNL d   1       4.269  -0.237   0.000  0.00  0.00     0.031 A 
ATOM      6  C   UNL d   1       4.980   0.175   0.000  0.00  0.00     0.094 A 
ATOM      7  C   UNL d   1       4.980   1.006   0.000  0.00  0.00     0.012 A 
ATOM      8  C   UNL d   1       4.265   1.417   0.000  0.00  0.00     0.002 A 
ATOM      9  C   UNL d   1       3.554   0.998   0.000  0.00  0.00     0.019 A 
BRANCH   6  10
ATOM     10  S   UNL d   1       5.691  -0.237   0.000  0.00  0.00     0.262 S 
ATOM     11  O   UNL d   1       6.102   0.482   0.000  0.00  0.00    -0.213 OA
ATOM     12  O   UNL d   1       5.279  -0.948   0.000  0.00  0.00    -0.213 OA
BRANCH  10  13
ATOM     13  C   UNL d   1       6.402  -0.648   0.000  0.00  0.00     0.364 C 
ATOM     14  F   UNL d   1       6.402  -1.472   0.000  0.00  0.00    -0.159 F 
ATOM     15  F   UNL d   1       7.121  -0.237   0.000  0.00  0.00    -0.159 F 
ENDBRANCH  10  13
ENDBRANCH   6  10
ENDBRANCH   3   4
ENDBRANCH   1   3
BRANCH   1  16
ATOM     16  N   UNL d   1       1.413  -0.229   0.000  0.00  0.00    -0.278 N 
ATOM     17  C   UNL d   1       1.413  -1.052   0.000  0.00  0.00     0.101 A 
ATOM     18  C   UNL d   1       0.703  -1.463   0.000  0.00  0.00     0.100 A 
ATOM     19  N   UNL d   1      -0.008  -1.052   0.000  0.00  0.00    -0.301 N 
ATOM     20  C   UNL d   1      -0.013  -0.229   0.000  0.00  0.00     0.100 A 
ATOM     21  C   UNL d   1       0.703   0.183   0.000  0.00  0.00     0.101 A 
BRANCH  19  22
ATOM     22  C   UNL d   1      -0.719  -1.472   0.000  0.00  0.00     0.064 A 
ATOM     23  C   UNL d   1      -1.434  -1.060   0.000  0.00  0.00     0.018 A 
ATOM     24  C   UNL d   1      -2.145  -1.472   0.000  0.00  0.00     0.002 A 
ATOM     25  C   UNL d   1      -2.145  -2.299   0.000  0.00  0.00     0.000 A 
ATOM     26  C   UNL d   1      -1.434  -2.710   0.000  0.00  0.00     0.002 A 
ATOM     27  C   UNL d   1      -0.719  -2.299   0.000  0.00  0.00     0.018 A 
ENDBRANCH  19  22
ENDBRANCH   1  16
TORSDOF 6
