REMARK  6 active torsions:
REMARK  status: ('A' for Active; 'I' for Inactive)
REMARK    1  A    between atoms: C_4  and  S_1 
REMARK    2  A    between atoms: C_5  and  S_1 
REMARK    3  A    between atoms: C_2  and  N_7 
REMARK    4  A    between atoms: N_3  and  C_2 
REMARK    5  A    between atoms: C_8  and  N_6 
REMARK    6  A    between atoms: N_7  and  C_14 
ROOT
ATOM      1  C   UNL d   1       2.171   0.739   0.000  0.00  0.00     0.206 C 
ATOM      2  S   UNL d   1       2.171   1.566   0.000  0.00  0.00    -0.038 SA
ENDROOT
BRANCH   1   3
ATOM      3  N   UNL d   1       2.885   0.326   0.000  0.00  0.00    -0.218 NA
BRANCH   3   4
ATOM      4  C   UNL d   1       3.599   0.739   0.000  0.00  0.00     0.085 A 
ATOM      5  C   UNL d   1       4.313   0.326   0.000  0.00  0.00     0.031 A 
ATOM      6  C   UNL d   1       5.027   0.735   0.000  0.00  0.00     0.094 A 
ATOM      7  C   UNL d   1       5.027   1.566   0.000  0.00  0.00     0.012 A 
ATOM      8  C   UNL d   1       4.313   1.979   0.000  0.00  0.00     0.002 A 
ATOM      9  C   UNL d   1       3.599   1.562   0.000  0.00  0.00     0.019 A 
BRANCH   6  10
ATOM     10  S   UNL d   1       5.749   0.322   0.000  0.00  0.00     0.262 S 
ATOM     11  O   UNL d   1       6.154   1.040   0.000  0.00  0.00    -0.213 OA
ATOM     12  O   UNL d   1       5.328  -0.393   0.000  0.00  0.00    -0.213 OA
BRANCH  10  13
ATOM     13  C   UNL d   1       6.463  -0.092   0.000  0.00  0.00     0.364 C 
ATOM     14  F   UNL d   1       6.463  -0.919   0.000  0.00  0.00    -0.159 F 
ATOM     15  F   UNL d   1       7.182   0.322   0.000  0.00  0.00    -0.159 F 
ENDBRANCH  10  13
ENDBRANCH   6  10
ENDBRANCH   3   4
ENDBRANCH   1   3
BRANCH   1  16
ATOM     16  N   UNL d   1       1.453   0.326   0.000  0.00  0.00    -0.278 N 
ATOM     17  C   UNL d   1       1.453  -0.501   0.000  0.00  0.00     0.101 A 
ATOM     18  C   UNL d   1       0.739  -0.906   0.000  0.00  0.00     0.100 A 
ATOM     19  N   UNL d   1       0.025  -0.501   0.000  0.00  0.00    -0.301 N 
ATOM     20  C   UNL d   1       0.017   0.326   0.000  0.00  0.00     0.100 A 
ATOM     21  C   UNL d   1       0.739   0.739   0.000  0.00  0.00     0.101 A 
BRANCH  19  22
ATOM     22  C   UNL d   1      -0.697  -0.919   0.000  0.00  0.00     0.065 A 
ATOM     23  C   UNL d   1      -0.697  -1.745   0.000  0.00  0.00     0.029 A 
ATOM     24  C   UNL d   1      -1.411  -2.159   0.000  0.00  0.00     0.059 A 
ATOM     25 CL   UNL d   1      -1.411  -2.985   0.000  0.00  0.00    -0.082 Cl
ATOM     26  C   UNL d   1      -2.125  -1.745   0.000  0.00  0.00     0.011 A 
ATOM     27  C   UNL d   1      -2.125  -0.919   0.000  0.00  0.00     0.002 A 
ATOM     28  C   UNL d   1      -1.411  -0.505   0.000  0.00  0.00     0.018 A 
ENDBRANCH  19  22
ENDBRANCH   1  16
TORSDOF 6
