REMARK  4 active torsions:
REMARK  status: ('A' for Active; 'I' for Inactive)
REMARK       I    between atoms: C_4  and  N_1 
REMARK    1  A    between atoms: C_7  and  C_3 
REMARK    2  A    between atoms: C_8  and  C_4 
REMARK    3  A    between atoms: C_10  and  C_5 
REMARK    4  A    between atoms: O_23  and  C_18 
ROOT
ATOM      1  N   UNL d   1       4.465   1.574   0.000  0.00  0.00    -0.194 N 
ATOM      2  N   UNL d   1       3.664   1.741   0.000  0.00  0.00    -0.163 NA
ATOM      3  C   UNL d   1       4.878   2.290   0.000  0.00  0.00     0.091 A 
ATOM      4  C   UNL d   1       4.819   0.803   0.000  0.00  0.00     0.286 C 
ATOM      5  C   UNL d   1       3.583   2.563   0.000  0.00  0.00     0.103 A 
ATOM      6  C   UNL d   1       4.324   2.891   0.000  0.00  0.00     0.040 A 
ATOM      7  O   UNL d   1       4.324   0.138   0.000  0.00  0.00    -0.265 OA
ENDROOT
BRANCH   5   8
ATOM      8  C   UNL d   1       2.866   2.972   0.000  0.00  0.00     0.019 A 
ATOM      9  C   UNL d   1       2.150   2.563   0.000  0.00  0.00     0.004 A 
ATOM     10  C   UNL d   1       1.433   2.972   0.000  0.00  0.00     0.024 A 
ATOM     11  C   UNL d   1       1.433   3.800   0.000  0.00  0.00     0.094 A 
ATOM     12  C   UNL d   1       2.150   4.213   0.000  0.00  0.00     0.024 A 
ATOM     13  C   UNL d   1       2.866   3.800   0.000  0.00  0.00     0.004 A 
BRANCH  11  14
ATOM     14  O   UNL d   1       0.717   4.213   0.000  0.00  0.00    -0.328 OA
ATOM     15  C   UNL d   1       0.000   3.800   0.000  0.00  0.00     0.181 C 
ENDBRANCH  11  14
ENDBRANCH   5   8
BRANCH   3  16
ATOM     16  C   UNL d   1       5.706   2.366   0.000  0.00  0.00     0.057 A 
ATOM     17  C   UNL d   1       6.031   3.113   0.000  0.00  0.00     0.197 A 
ATOM     18  O   UNL d   1       5.565   3.775   0.000  0.00  0.00    -0.286 OA
ATOM     19  C   UNL d   1       6.863   3.194   0.000  0.00  0.00     0.042 A 
ATOM     20  C   UNL d   1       7.358   2.529   0.000  0.00  0.00     0.003 A 
ATOM     21  C   UNL d   1       6.998   1.793   0.000  0.00  0.00     0.000 A 
ATOM     22  C   UNL d   1       6.201   1.711   0.000  0.00  0.00     0.005 A 
ENDBRANCH   3  16
BRANCH   4  23
ATOM     23  C   UNL d   1       5.622   0.722   0.000  0.00  0.00     0.087 A 
ATOM     24  S   UNL d   1       6.142   1.327   0.000  0.00  0.00    -0.082 SA
ATOM     25  C   UNL d   1       6.917   0.995   0.000  0.00  0.00     0.036 A 
ATOM     26  C   UNL d   1       6.836   0.167   0.000  0.00  0.00     0.008 A 
ATOM     27  C   UNL d   1       6.031   0.000   0.000  0.00  0.00     0.012 A 
ENDBRANCH   4  23
TORSDOF 4
