REMARK  2 active torsions:
REMARK  status: ('A' for Active; 'I' for Inactive)
REMARK       I    between atoms: C_7  and  N_1 
REMARK    1  A    between atoms: C_6  and  C_3 
REMARK    2  A    between atoms: C_8  and  C_4 
ROOT
ATOM      1  N   UNL d   1       3.023   1.434   0.000  0.00  0.00    -0.195 N 
ATOM      2  N   UNL d   1       2.227   1.596   0.000  0.00  0.00    -0.163 NA
ATOM      3  C   UNL d   1       3.435   2.148   0.000  0.00  0.00     0.091 A 
ATOM      4  C   UNL d   1       2.143   2.418   0.000  0.00  0.00     0.104 A 
ATOM      5  C   UNL d   1       2.888   2.750   0.000  0.00  0.00     0.040 A 
ATOM      6  C   UNL d   1       3.381   0.660   0.000  0.00  0.00     0.281 C 
ATOM      7  O   UNL d   1       4.179   0.579   0.000  0.00  0.00    -0.265 OA
ATOM      8  C   UNL d   1       2.888   0.000   0.000  0.00  0.00     0.068 C 
ENDROOT
BRANCH   3   9
ATOM      9  C   UNL d   1       4.260   2.229   0.000  0.00  0.00     0.057 A 
ATOM     10  C   UNL d   1       4.591   2.964   0.000  0.00  0.00     0.197 A 
ATOM     11  O   UNL d   1       4.125   3.627   0.000  0.00  0.00    -0.286 OA
ATOM     12  C   UNL d   1       5.417   3.052   0.000  0.00  0.00     0.042 A 
ATOM     13  C   UNL d   1       5.910   2.389   0.000  0.00  0.00     0.003 A 
ATOM     14  C   UNL d   1       5.554   1.650   0.000  0.00  0.00     0.000 A 
ATOM     15  C   UNL d   1       4.754   1.569   0.000  0.00  0.00     0.005 A 
ENDBRANCH   3   9
BRANCH   4  16
ATOM     16  C   UNL d   1       1.429   2.831   0.000  0.00  0.00     0.039 A 
ATOM     17  C   UNL d   1       1.429   3.656   0.000  0.00  0.00     0.101 A 
ATOM     18  N   UNL d   1       0.715   4.069   0.000  0.00  0.00    -0.242 NA
ATOM     19  C   UNL d   1       0.000   3.656   0.000  0.00  0.00     0.099 A 
ATOM     20  C   UNL d   1       0.000   2.831   0.000  0.00  0.00     0.021 A 
ATOM     21  C   UNL d   1       0.715   2.418   0.000  0.00  0.00     0.005 A 
ENDBRANCH   4  16
TORSDOF 2
