REMARK  3 active torsions:
REMARK  status: ('A' for Active; 'I' for Inactive)
REMARK    1  A    between atoms: C_8  and  C_2 
REMARK    2  A    between atoms: C_9  and  C_3 
REMARK    3  A    between atoms: N_6  and  C_8 
ROOT
ATOM      1  N   UNL d   1       4.823  -5.695   0.000  0.00  0.00    -0.121 NA
ATOM      2  C   UNL d   1       5.899  -6.484   0.000  0.00  0.00     0.222 A 
ATOM      3  C   UNL d   1       4.560  -6.475   0.000  0.00  0.00     0.204 A 
ATOM      4  O   UNL d   1       5.232  -6.963   0.000  0.00  0.00    -0.267 OA
ATOM      5  N   UNL d   1       5.649  -5.695   0.000  0.00  0.00    -0.119 NA
ENDROOT
BRANCH   2   6
ATOM      6  C   UNL d   1       6.688  -6.738   0.000  0.00  0.00     0.127 C 
BRANCH   6   7
ATOM      7  N   UNL d   1       7.301  -6.187   0.000  0.00  0.00    -0.301 N 
ATOM      8  C   UNL d   1       8.077  -6.450   0.000  0.00  0.00     0.064 A 
ATOM      9  C   UNL d   1       8.699  -5.908   0.000  0.00  0.00     0.016 A 
ATOM     10  C   UNL d   1       8.248  -7.251   0.000  0.00  0.00     0.018 A 
ATOM     11  C   UNL d   1       9.475  -6.162   0.000  0.00  0.00     0.001 A 
ATOM     12  C   UNL d   1       8.528  -5.098   0.000  0.00  0.00     0.003 A 
ATOM     13  C   UNL d   1       9.642  -6.963   0.000  0.00  0.00     0.000 A 
ATOM     14  C   UNL d   1       9.024  -7.514   0.000  0.00  0.00     0.002 A 
ATOM     15  C   UNL d   1       7.748  -4.836   0.000  0.00  0.00     0.019 A 
ATOM     16  C   UNL d   1       7.126  -5.386   0.000  0.00  0.00     0.080 A 
ENDBRANCH   6   7
ENDBRANCH   2   6
BRANCH   3  17
ATOM     17  C   UNL d   1       3.772  -6.726   0.000  0.00  0.00     0.043 A 
ATOM     18  C   UNL d   1       3.605  -7.535   0.000  0.00  0.00     0.004 A 
ATOM     19  C   UNL d   1       2.820  -7.790   0.000  0.00  0.00     0.000 A 
ATOM     20  C   UNL d   1       2.207  -7.234   0.000  0.00  0.00     0.000 A 
ATOM     21  C   UNL d   1       2.382  -6.425   0.000  0.00  0.00     0.000 A 
ATOM     22  C   UNL d   1       3.167  -6.175   0.000  0.00  0.00     0.004 A 
ENDBRANCH   3  17
TORSDOF 3
