REMARK  4 active torsions:
REMARK  status: ('A' for Active; 'I' for Inactive)
REMARK    1  A    between atoms: N_5  and  C_1 
REMARK    2  A    between atoms: C_4  and  N_6 
REMARK    3  A    between atoms: N_11  and  C_4 
REMARK    4  A    between atoms: N_6  and  N_5 
ROOT
ATOM      1  C   UNL d   1       1.704  -0.609   0.000  0.00  0.00     0.768 A 
ATOM      2  N   UNL d   1       1.248  -1.293   0.000  0.00  0.00    -0.058 NA
ATOM      3  N   UNL d   1       1.335   0.133   0.000  0.00  0.00    -0.058 NA
ATOM      4  C   UNL d   1       0.423  -1.244   0.000  0.00  0.00     0.102 A 
ATOM      5  C   UNL d   1       0.510   0.182   0.000  0.00  0.00     0.102 A 
ATOM      6  C   UNL d   1       0.054  -0.502   0.000  0.00  0.00     0.040 A 
ATOM      7  C   UNL d   1       0.141   0.920   0.000  0.00  0.00     0.021 C 
ATOM      8  C   UNL d   1      -0.033  -1.932   0.000  0.00  0.00     0.021 C 
ENDROOT
BRANCH   1   9
ATOM      9  N   UNL d   1       2.525  -0.659   0.000  0.00  0.00     0.049 NA
BRANCH   9  10
ATOM     10  N   UNL d   1       2.889  -1.397   0.000  0.00  0.00    -0.101 NA
BRANCH  10  11
ATOM     11  C   UNL d   1       3.706  -1.447   0.000  0.00  0.00     0.241 C 
ATOM     12  S   UNL d   1       4.071  -2.180   0.000  0.00  0.00    -0.035 SA
BRANCH  11  13
ATOM     13  N   UNL d   1       4.158  -0.763   0.000  0.00  0.00    -0.213 NA
ATOM     14  C   UNL d   1       4.979  -0.812   0.000  0.00  0.00     0.122 C 
ENDBRANCH  11  13
ENDBRANCH  10  11
ENDBRANCH   9  10
ENDBRANCH   1   9
TORSDOF 4
