REMARK  3 active torsions:
REMARK  status: ('A' for Active; 'I' for Inactive)
REMARK       I    between atoms: C_4  and  N_1 
REMARK    1  A    between atoms: C_7  and  C_3 
REMARK    2  A    between atoms: C_8  and  C_4 
REMARK    3  A    between atoms: C_13  and  C_5 
ROOT
ATOM      1  N   UNL d   1       3.031   1.574   0.000  0.00  0.00    -0.194 N 
ATOM      2  N   UNL d   1       2.233   1.741   0.000  0.00  0.00    -0.163 NA
ATOM      3  C   UNL d   1       3.445   2.290   0.000  0.00  0.00     0.091 A 
ATOM      4  C   UNL d   1       3.391   0.803   0.000  0.00  0.00     0.286 C 
ATOM      5  C   UNL d   1       2.150   2.563   0.000  0.00  0.00     0.103 A 
ATOM      6  C   UNL d   1       2.896   2.896   0.000  0.00  0.00     0.040 A 
ATOM      7  O   UNL d   1       2.896   0.138   0.000  0.00  0.00    -0.265 OA
ENDROOT
BRANCH   3   8
ATOM      8  C   UNL d   1       4.272   2.371   0.000  0.00  0.00     0.057 A 
ATOM      9  C   UNL d   1       4.605   3.113   0.000  0.00  0.00     0.197 A 
ATOM     10  O   UNL d   1       4.137   3.777   0.000  0.00  0.00    -0.286 OA
ATOM     11  C   UNL d   1       5.432   3.194   0.000  0.00  0.00     0.042 A 
ATOM     12  C   UNL d   1       5.927   2.536   0.000  0.00  0.00     0.003 A 
ATOM     13  C   UNL d   1       5.570   1.793   0.000  0.00  0.00     0.000 A 
ATOM     14  C   UNL d   1       4.768   1.711   0.000  0.00  0.00     0.005 A 
ENDBRANCH   3   8
BRANCH   4  15
ATOM     15  C   UNL d   1       4.191   0.722   0.000  0.00  0.00     0.087 A 
ATOM     16  S   UNL d   1       4.716   1.327   0.000  0.00  0.00    -0.082 SA
ATOM     17  C   UNL d   1       5.484   0.995   0.000  0.00  0.00     0.036 A 
ATOM     18  C   UNL d   1       5.403   0.167   0.000  0.00  0.00     0.008 A 
ATOM     19  C   UNL d   1       4.605   0.000   0.000  0.00  0.00     0.012 A 
ENDBRANCH   4  15
BRANCH   5  20
ATOM     20  C   UNL d   1       1.433   2.972   0.000  0.00  0.00     0.019 A 
ATOM     21  C   UNL d   1       1.433   3.805   0.000  0.00  0.00     0.002 A 
ATOM     22  C   UNL d   1       0.717   4.218   0.000  0.00  0.00     0.000 A 
ATOM     23  C   UNL d   1       0.000   3.805   0.000  0.00  0.00     0.000 A 
ATOM     24  C   UNL d   1       0.000   2.972   0.000  0.00  0.00     0.000 A 
ATOM     25  C   UNL d   1       0.717   2.563   0.000  0.00  0.00     0.002 A 
ENDBRANCH   5  20
TORSDOF 3
