REMARK  2 active torsions:
REMARK  status: ('A' for Active; 'I' for Inactive)
REMARK    1  A    between atoms: N_8  and  C_7 
REMARK    2  A    between atoms: C_9  and  N_8 
ROOT
ATOM      1  N   UNL d   1       2.057   0.257   0.000  0.00  0.00    -0.245 NA
ENDROOT
BRANCH   1   2
ATOM      2  C   UNL d   1       1.572  -0.402   0.000  0.00  0.00     0.093 A 
ATOM      3  C   UNL d   1       1.817  -1.186   0.000  0.00  0.00     0.118 A 
ATOM      4  S   UNL d   1       1.136  -1.659   0.000  0.00  0.00     0.213 S 
ATOM      5  C   UNL d   1       0.477  -1.169   0.000  0.00  0.00     0.100 A 
ATOM      6  O   UNL d   1       0.423  -2.070   0.000  0.00  0.00    -0.217 OA
ATOM      7  O   UNL d   1       1.845  -2.070   0.000  0.00  0.00    -0.217 OA
ATOM      8  C   UNL d   1       0.747  -0.390   0.000  0.00  0.00     0.032 A 
ENDBRANCH   1   2
BRANCH   1   9
ATOM      9  C   UNL d   1       2.878   0.158   0.000  0.00  0.00     0.082 A 
ATOM     10  C   UNL d   1       3.202  -0.601   0.000  0.00  0.00     0.030 A 
ATOM     11  C   UNL d   1       4.010  -0.701   0.000  0.00  0.00     0.059 A 
ATOM     12 CL   UNL d   1       4.417  -1.410   0.000  0.00  0.00    -0.082 Cl
ATOM     13  C   UNL d   1       4.508  -0.042   0.000  0.00  0.00     0.011 A 
ATOM     14  C   UNL d   1       4.185   0.717   0.000  0.00  0.00     0.002 A 
ATOM     15  C   UNL d   1       3.363   0.817   0.000  0.00  0.00     0.019 A 
ENDBRANCH   1   9
TORSDOF 2
