REMARK  7 active torsions:
REMARK  status: ('A' for Active; 'I' for Inactive)
REMARK    1  A    between atoms: C_6  and  N_1 
REMARK    2  A    between atoms: C_7  and  C_2 
REMARK    3  A    between atoms: C_11  and  C_6 
REMARK    4  A    between atoms: N_8  and  C_12 
REMARK    5  A    between atoms: C_9  and  N_8 
REMARK    6  A    between atoms: C_17  and  C_9 
REMARK    7  A    between atoms: C_12  and  C_11 
ROOT
ATOM      1  N   UNL d   1       3.758  -0.689   0.000  0.00  0.00    -0.301 N 
ATOM      2  C   UNL d   1       2.597  -1.345   0.000  0.00  0.00     0.061 A 
ATOM      3  C   UNL d   1       3.412  -1.441   0.000  0.00  0.00     0.084 A 
ATOM      4  C   UNL d   1       3.144  -0.130   0.000  0.00  0.00     0.064 A 
ATOM      5  C   UNL d   1       2.422  -0.539   0.000  0.00  0.00     0.021 A 
ATOM      6  C   UNL d   1       3.149   0.697   0.000  0.00  0.00     0.018 A 
ATOM      7  C   UNL d   1       1.716  -0.125   0.000  0.00  0.00     0.002 A 
ATOM      8  C   UNL d   1       1.720   0.697   0.000  0.00  0.00     0.000 A 
ATOM      9  C   UNL d   1       2.434   1.102   0.000  0.00  0.00     0.002 A 
ENDROOT
BRANCH   1  10
ATOM     10  C   UNL d   1       4.564  -0.518   0.000  0.00  0.00     0.124 C 
BRANCH  10  11
ATOM     11  C   UNL d   1       5.115  -1.132   0.000  0.00  0.00     0.232 C 
ATOM     12  O   UNL d   1       4.852  -1.921   0.000  0.00  0.00    -0.283 OA
BRANCH  11  13
ATOM     13  C   UNL d   1       5.930  -0.969   0.000  0.00  0.00     0.137 C 
BRANCH  13  14
ATOM     14  N   UNL d   1       6.477  -1.583   0.000  0.00  0.00    -0.262 NA
BRANCH  14  15
ATOM     15  C   UNL d   1       7.283  -1.420   0.000  0.00  0.00     0.143 C 
ATOM     16  C   UNL d   1       7.834  -2.034   0.000  0.00  0.00     0.032 C 
ATOM     17  C   UNL d   1       7.241  -2.247   0.000  0.00  0.00     0.032 C 
BRANCH  15  18
ATOM     18  C   UNL d   1       7.546  -0.631   0.000  0.00  0.00     0.229 C 
ATOM     19  O   UNL d   1       8.356  -0.468   0.000  0.00  0.00    -0.286 OA
ENDBRANCH  15  18
ENDBRANCH  14  15
ENDBRANCH  13  14
ENDBRANCH  11  13
ENDBRANCH  10  11
ENDBRANCH   1  10
BRANCH   2  20
ATOM     20  C   UNL d   1       2.109  -2.009   0.000  0.00  0.00     0.236 C 
ATOM     21  O   UNL d   1       2.434  -2.768   0.000  0.00  0.00    -0.283 OA
ENDBRANCH   2  20
TORSDOF 7
