REMARK  4 active torsions:
REMARK  status: ('A' for Active; 'I' for Inactive)
REMARK    1  A    between atoms: C_10  and  C_2 
REMARK    2  A    between atoms: C_9  and  C_4 
REMARK    3  A    between atoms: C_8  and  N_6 
REMARK    4  A    between atoms: N_7  and  C_9 
ROOT
ATOM      1  N   UNL d   1       8.126  -6.026   0.000  0.00  0.00    -0.301 N 
ATOM      2  N   UNL d   1       6.893  -7.118   0.000  0.00  0.00    -0.297 N 
ATOM      3  C   UNL d   1       7.343  -5.767   0.000  0.00  0.00     0.100 A 
ATOM      4  C   UNL d   1       8.293  -6.830   0.000  0.00  0.00     0.100 A 
ATOM      5  C   UNL d   1       6.726  -6.313   0.000  0.00  0.00     0.100 A 
ATOM      6  C   UNL d   1       7.676  -7.380   0.000  0.00  0.00     0.100 A 
ENDROOT
BRANCH   2   7
ATOM      7  C   UNL d   1       6.280  -7.668   0.000  0.00  0.00     0.127 C 
BRANCH   7   8
ATOM      8  C   UNL d   1       5.501  -7.405   0.000  0.00  0.00     0.222 A 
ATOM      9  N   UNL d   1       5.242  -6.617   0.000  0.00  0.00    -0.119 NA
ATOM     10  N   UNL d   1       4.417  -6.617   0.000  0.00  0.00    -0.121 NA
ATOM     11  C   UNL d   1       4.163  -7.405   0.000  0.00  0.00     0.204 A 
ATOM     12  O   UNL d   1       4.830  -7.893   0.000  0.00  0.00    -0.267 OA
BRANCH  11  13
ATOM     13  C   UNL d   1       3.375  -7.655   0.000  0.00  0.00     0.043 A 
ATOM     14  C   UNL d   1       2.767  -7.101   0.000  0.00  0.00     0.004 A 
ATOM     15  C   UNL d   1       1.980  -7.351   0.000  0.00  0.00     0.000 A 
ATOM     16  C   UNL d   1       1.804  -8.155   0.000  0.00  0.00     0.000 A 
ATOM     17  C   UNL d   1       2.425  -8.714   0.000  0.00  0.00     0.000 A 
ATOM     18  C   UNL d   1       3.205  -8.455   0.000  0.00  0.00     0.004 A 
ENDBRANCH  11  13
ENDBRANCH   7   8
ENDBRANCH   2   7
BRANCH   1  19
ATOM     19  C   UNL d   1       8.743  -5.480   0.000  0.00  0.00     0.064 A 
ATOM     20  C   UNL d   1       9.526  -5.742   0.000  0.00  0.00     0.020 A 
ATOM     21  C   UNL d   1      10.143  -5.192   0.000  0.00  0.00     0.031 A 
ATOM     22  C   UNL d   1       9.980  -4.380   0.000  0.00  0.00     0.140 A 
ATOM     23  C   UNL d   1       9.193  -4.130   0.000  0.00  0.00     0.031 A 
ATOM     24  F   UNL d   1      10.564  -3.800   0.000  0.00  0.00    -0.204 F 
ATOM     25  C   UNL d   1       8.576  -4.676   0.000  0.00  0.00     0.020 A 
ENDBRANCH   1  19
TORSDOF 4
