REMARK  4 active torsions:
REMARK  status: ('A' for Active; 'I' for Inactive)
REMARK    1  A    between atoms: C_4  and  C_1 
REMARK    2  A    between atoms: N_7  and  C_4 
REMARK    3  A    between atoms: C_10  and  C_4 
REMARK    4  A    between atoms: C_8  and  N_7 
ROOT
ATOM      1  C   UNL d   1       1.048  -1.151   0.000  0.00  0.00     0.085 C 
ENDROOT
BRANCH   1   2
ATOM      2  C   UNL d   1       0.783  -1.934   0.000  0.00  0.00     0.037 A 
ATOM      3  C   UNL d   1       1.230  -2.628   0.000  0.00  0.00     0.083 A 
ATOM      4  N   UNL d   1       0.783  -3.248   0.000  0.00  0.00    -0.245 NA
ATOM      5  C   UNL d   1       2.055  -2.647   0.000  0.00  0.00     0.021 C 
ATOM      6  C   UNL d   1      -0.023  -3.006   0.000  0.00  0.00     0.081 A 
ATOM      7  C   UNL d   1      -0.023  -2.181   0.000  0.00  0.00     0.021 A 
ATOM      8  C   UNL d   1      -0.741  -3.430   0.000  0.00  0.00     0.019 A 
ATOM      9  C   UNL d   1      -0.741  -1.775   0.000  0.00  0.00     0.002 A 
ATOM     10  C   UNL d   1      -1.454  -2.181   0.000  0.00  0.00     0.000 A 
ATOM     11  C   UNL d   1      -1.454  -3.006   0.000  0.00  0.00     0.002 A 
ENDBRANCH   1   2
BRANCH   1  12
ATOM     12  N   UNL d   1       1.850  -1.011   0.000  0.00  0.00    -0.227 NA
BRANCH  12  13
ATOM     13  C   UNL d   1       2.144  -0.256   0.000  0.00  0.00     0.162 A 
ATOM     14  N   UNL d   1       2.950  -0.117   0.000  0.00  0.00    -0.225 NA
ATOM     15  C   UNL d   1       3.243   0.685   0.000  0.00  0.00     0.101 A 
ATOM     16  C   UNL d   1       2.703   1.286   0.000  0.00  0.00     0.021 A 
ATOM     17  C   UNL d   1       1.901   1.156   0.000  0.00  0.00     0.005 A 
ATOM     18  C   UNL d   1       1.608   0.391   0.000  0.00  0.00     0.039 A 
ATOM     19  C   UNL d   1       1.384   1.803   0.000  0.00  0.00     0.000 C 
ENDBRANCH  12  13
ENDBRANCH   1  12
BRANCH   1  20
ATOM     20  C   UNL d   1       0.508  -0.522   0.000  0.00  0.00     0.021 A 
ATOM     21  C   UNL d   1      -0.294  -0.704   0.000  0.00  0.00     0.022 A 
ATOM     22  C   UNL d   1      -0.834  -0.075   0.000  0.00  0.00     0.099 A 
ATOM     23  N   UNL d   1      -0.559   0.708   0.000  0.00  0.00    -0.242 NA
ATOM     24  C   UNL d   1       0.242   0.862   0.000  0.00  0.00     0.099 A 
ATOM     25  C   UNL d   1       0.783   0.261   0.000  0.00  0.00     0.022 A 
ENDBRANCH   1  20
TORSDOF 4
