REMARK  1 active torsions:
REMARK  status: ('A' for Active; 'I' for Inactive)
REMARK       I    between atoms: N_2  and  C_1 
REMARK       I    between atoms: N_4  and  C_1 
REMARK    1  A    between atoms: C_5  and  N_3 
ROOT
ATOM      1  C   UNL d   1       4.046  -3.186   0.000  0.00  0.00     0.340 C 
ATOM      2  N   UNL d   1       4.885  -3.186   0.000  0.00  0.00    -0.254 N 
ATOM      3  N   UNL d   1       6.526  -3.186   0.000  0.00  0.00    -0.301 N 
ATOM      4  N   UNL d   1       3.624  -3.900   0.000  0.00  0.00    -0.253 N 
ATOM      5  O   UNL d   1       3.637  -2.459   0.000  0.00  0.00    -0.245 OA
ATOM      6  C   UNL d   1       5.290  -3.900   0.000  0.00  0.00     0.104 A 
ATOM      7  C   UNL d   1       5.290  -2.459   0.000  0.00  0.00     0.104 A 
ATOM      8  C   UNL d   1       6.113  -2.459   0.000  0.00  0.00     0.100 A 
ATOM      9  C   UNL d   1       6.113  -3.900   0.000  0.00  0.00     0.100 A 
ATOM     10  O   UNL d   1       2.785  -5.315   0.000  0.00  0.00    -0.300 OA
ATOM     11  C   UNL d   1       2.797  -3.887   0.000  0.00  0.00     0.111 A 
ATOM     12  C   UNL d   1       4.033  -4.614   0.000  0.00  0.00     0.111 A 
ATOM     13  C   UNL d   1       3.612  -5.328   0.000  0.00  0.00     0.142 A 
ATOM     14  C   UNL d   1       2.380  -4.597   0.000  0.00  0.00     0.142 A 
ENDROOT
BRANCH   3  15
ATOM     15  C   UNL d   1       7.353  -3.194   0.000  0.00  0.00     0.064 A 
ATOM     16  C   UNL d   1       7.758  -2.480   0.000  0.00  0.00     0.018 A 
ATOM     17  C   UNL d   1       8.585  -2.484   0.000  0.00  0.00     0.001 A 
ATOM     18  C   UNL d   1       8.998  -1.770   0.000  0.00  0.00     0.000 C 
ATOM     19  C   UNL d   1       8.998  -3.207   0.000  0.00  0.00     0.000 A 
ATOM     20  C   UNL d   1       8.585  -3.921   0.000  0.00  0.00     0.001 A 
ATOM     21  C   UNL d   1       7.758  -3.912   0.000  0.00  0.00     0.018 A 
ATOM     22  C   UNL d   1       8.994  -4.639   0.000  0.00  0.00     0.000 C 
ENDBRANCH   3  15
TORSDOF 1
