REMARK  3 active torsions:
REMARK  status: ('A' for Active; 'I' for Inactive)
REMARK    1  A    between atoms: S_2  and  N_1 
REMARK    2  A    between atoms: C_6  and  S_2 
REMARK    3  A    between atoms: O_17  and  C_11 
ROOT
ATOM      1  S   UNL d   1       2.784  -0.091   0.000  0.00  0.00     0.273 S 
ATOM      2  O   UNL d   1       2.957  -0.897   0.000  0.00  0.00    -0.200 OA
ATOM      3  O   UNL d   1       2.610   0.720   0.000  0.00  0.00    -0.200 OA
ENDROOT
BRANCH   1   4
ATOM      4  N   UNL d   1       1.977  -0.261   0.000  0.00  0.00    -0.214 N 
ATOM      5  C   UNL d   1       1.638  -1.017   0.000  0.00  0.00     0.157 A 
ATOM      6  N   UNL d   1       0.811  -0.931   0.000  0.00  0.00    -0.226 NA
ATOM      7  C   UNL d   1       2.047  -1.725   0.000  0.00  0.00     0.041 C 
ATOM      8  C   UNL d   1       0.645  -0.116   0.000  0.00  0.00     0.100 A 
ATOM      9  C   UNL d   1       1.357   0.294   0.000  0.00  0.00     0.094 A 
ATOM     10  C   UNL d   1      -0.070   0.294   0.000  0.00  0.00     0.021 A 
ATOM     11  C   UNL d   1       1.357   1.125   0.000  0.00  0.00     0.020 A 
ATOM     12  C   UNL d   1       0.645   1.534   0.000  0.00  0.00     0.002 A 
ATOM     13  C   UNL d   1      -0.070   1.125   0.000  0.00  0.00     0.002 A 
ENDBRANCH   1   4
BRANCH   1  14
ATOM     14  C   UNL d   1       3.590   0.083   0.000  0.00  0.00     0.106 A 
ATOM     15  C   UNL d   1       4.148  -0.533   0.000  0.00  0.00     0.039 A 
ATOM     16  C   UNL d   1       4.955  -0.360   0.000  0.00  0.00     0.122 A 
ATOM     17  C   UNL d   1       5.211   0.430   0.000  0.00  0.00     0.162 A 
ATOM     18  C   UNL d   1       4.657   1.042   0.000  0.00  0.00     0.032 A 
ATOM     19  F   UNL d   1       6.010   0.596   0.000  0.00  0.00    -0.202 F 
ATOM     20  C   UNL d   1       3.851   0.869   0.000  0.00  0.00     0.015 A 
BRANCH  16  21
ATOM     21  O   UNL d   1       5.501  -0.968   0.000  0.00  0.00    -0.326 OA
ATOM     22  C   UNL d   1       5.248  -1.741   0.000  0.00  0.00     0.181 C 
ENDBRANCH  16  21
ENDBRANCH   1  14
TORSDOF 3
