REMARK  2 active torsions:
REMARK  status: ('A' for Active; 'I' for Inactive)
REMARK       I    between atoms: N_3  and  C_1 
REMARK       I    between atoms: N_4  and  C_1 
REMARK       I    between atoms: C_2  and  N_5 
REMARK       I    between atoms: N_6  and  C_2 
REMARK    1  A    between atoms: C_13  and  N_4 
REMARK    2  A    between atoms: C_14  and  N_4 
ROOT
ATOM      1  C   UNL d   1       7.763  -6.350   0.000  0.00  0.00     0.339 C 
ATOM      2  C   UNL d   1      11.062  -6.354   0.000  0.00  0.00     0.340 C 
ATOM      3  N   UNL d   1       8.600  -6.350   0.000  0.00  0.00    -0.254 N 
ATOM      4  N   UNL d   1       7.350  -7.062   0.000  0.00  0.00    -0.260 N 
ATOM      5  N   UNL d   1      10.238  -6.350   0.000  0.00  0.00    -0.254 N 
ATOM      6  N   UNL d   1      11.479  -5.642   0.000  0.00  0.00    -0.253 N 
ATOM      7  O   UNL d   1       7.350  -5.629   0.000  0.00  0.00    -0.245 OA
ATOM      8  O   UNL d   1      11.467  -7.067   0.000  0.00  0.00    -0.245 OA
ATOM      9  C   UNL d   1       9.004  -5.617   0.000  0.00  0.00     0.104 A 
ATOM     10  C   UNL d   1       9.004  -7.054   0.000  0.00  0.00     0.104 A 
ATOM     11  C   UNL d   1       9.825  -7.054   0.000  0.00  0.00     0.104 A 
ATOM     12  C   UNL d   1       9.825  -5.617   0.000  0.00  0.00     0.104 A 
ATOM     13  O   UNL d   1      12.317  -4.217   0.000  0.00  0.00    -0.300 OA
ATOM     14  C   UNL d   1      12.304  -5.650   0.000  0.00  0.00     0.111 A 
ATOM     15  C   UNL d   1      11.067  -4.925   0.000  0.00  0.00     0.111 A 
ATOM     16  C   UNL d   1      11.492  -4.213   0.000  0.00  0.00     0.142 A 
ATOM     17  C   UNL d   1      12.725  -4.942   0.000  0.00  0.00     0.142 A 
ENDROOT
BRANCH   4  18
ATOM     18  C   UNL d   1       6.517  -7.062   0.000  0.00  0.00     0.068 A 
ATOM     19  C   UNL d   1       6.104  -6.338   0.000  0.00  0.00     0.018 A 
ATOM     20  C   UNL d   1       5.279  -6.338   0.000  0.00  0.00     0.002 A 
ATOM     21  C   UNL d   1       4.867  -7.054   0.000  0.00  0.00     0.000 A 
ATOM     22  C   UNL d   1       5.279  -7.775   0.000  0.00  0.00     0.002 A 
ATOM     23  C   UNL d   1       6.104  -7.775   0.000  0.00  0.00     0.018 A 
ENDBRANCH   4  18
BRANCH   4  24
ATOM     24  C   UNL d   1       7.754  -7.775   0.000  0.00  0.00     0.068 A 
ATOM     25  C   UNL d   1       7.342  -8.488   0.000  0.00  0.00     0.018 A 
ATOM     26  C   UNL d   1       7.754  -9.192   0.000  0.00  0.00     0.002 A 
ATOM     27  C   UNL d   1       8.579  -9.200   0.000  0.00  0.00     0.000 A 
ATOM     28  C   UNL d   1       8.992  -8.479   0.000  0.00  0.00     0.002 A 
ATOM     29  C   UNL d   1       8.579  -7.767   0.000  0.00  0.00     0.018 A 
ENDBRANCH   4  24
TORSDOF 2
