REMARK  4 active torsions:
REMARK  status: ('A' for Active; 'I' for Inactive)
REMARK    1  A    between atoms: N_3  and  S_1 
REMARK    2  A    between atoms: N_5  and  S_1 
REMARK    3  A    between atoms: S_2  and  N_4 
REMARK    4  A    between atoms: C_14  and  S_2 
ROOT
ATOM      1  N   UNL d   1       1.467  -9.300   0.000  0.00  0.00    -0.213 N 
ATOM      2  N   UNL d   1       3.104  -9.300   0.000  0.00  0.00    -0.226 N 
ATOM      3  C   UNL d   1       2.692  -8.567   0.000  0.00  0.00     0.111 A 
ATOM      4  C   UNL d   1       2.692 -10.004   0.000  0.00  0.00     0.111 A 
ATOM      5  C   UNL d   1       1.867 -10.004   0.000  0.00  0.00     0.113 A 
ATOM      6  C   UNL d   1       1.867  -8.567   0.000  0.00  0.00     0.113 A 
ENDROOT
BRANCH   2   7
ATOM      7  S   UNL d   1       3.929  -9.300   0.000  0.00  0.00     0.271 S 
ATOM      8  O   UNL d   1       4.342  -8.579   0.000  0.00  0.00    -0.200 OA
ATOM      9  O   UNL d   1       4.342 -10.012   0.000  0.00  0.00    -0.200 OA
BRANCH   7  10
ATOM     10  C   UNL d   1       4.754  -9.300   0.000  0.00  0.00     0.104 A 
ATOM     11  C   UNL d   1       5.162 -10.017   0.000  0.00  0.00     0.013 A 
ATOM     12  C   UNL d   1       5.987 -10.017   0.000  0.00  0.00     0.001 A 
ATOM     13  C   UNL d   1       6.400  -9.300   0.000  0.00  0.00     0.000 A 
ATOM     14  C   UNL d   1       5.979  -8.579   0.000  0.00  0.00     0.001 A 
ATOM     15  C   UNL d   1       5.162  -8.588   0.000  0.00  0.00     0.013 A 
ENDBRANCH   7  10
ENDBRANCH   2   7
BRANCH   1  16
ATOM     16  S   UNL d   1       0.629  -9.300   0.000  0.00  0.00     0.337 S 
ATOM     17  O   UNL d   1       0.217 -10.012   0.000  0.00  0.00    -0.181 OA
ATOM     18  O   UNL d   1       0.217  -8.579   0.000  0.00  0.00    -0.181 OA
BRANCH  16  19
ATOM     19  N   UNL d   1      -0.171  -9.512   0.000  0.00  0.00    -0.213 N 
ATOM     20  C   UNL d   1      -0.758  -8.925   0.000  0.00  0.00     0.113 C 
ATOM     21  C   UNL d   1      -0.383 -10.304   0.000  0.00  0.00     0.113 C 
ENDBRANCH  16  19
ENDBRANCH   1  16
TORSDOF 4
