REMARK  4 active torsions:
REMARK  status: ('A' for Active; 'I' for Inactive)
REMARK    1  A    between atoms: N_2  and  S_1 
REMARK    2  A    between atoms: C_5  and  S_1 
REMARK    3  A    between atoms: O_16  and  C_11 
REMARK    4  A    between atoms: C_19  and  O_16 
ROOT
ATOM      1  C   UNL d   1       2.958  -0.355   0.000  0.00  0.00     0.107 A 
ATOM      2  C   UNL d   1       3.371  -1.068   0.000  0.00  0.00     0.040 A 
ATOM      3  C   UNL d   1       4.197  -1.068   0.000  0.00  0.00     0.128 A 
ATOM      4  C   UNL d   1       4.610  -0.355   0.000  0.00  0.00     0.163 A 
ATOM      5  C   UNL d   1       3.371   0.359   0.000  0.00  0.00     0.015 A 
ATOM      6  C   UNL d   1       4.197   0.359   0.000  0.00  0.00     0.032 A 
ATOM      7  F   UNL d   1       5.436  -0.355   0.000  0.00  0.00    -0.202 F 
ENDROOT
BRANCH   1   8
ATOM      8  S   UNL d   1       2.132  -0.355   0.000  0.00  0.00     0.286 S 
ATOM      9  O   UNL d   1       2.132   0.471   0.000  0.00  0.00    -0.198 OA
ATOM     10  O   UNL d   1       2.132  -1.181   0.000  0.00  0.00    -0.198 OA
BRANCH   8  11
ATOM     11  N   UNL d   1       1.306  -0.355   0.000  0.00  0.00    -0.152 N 
ATOM     12  N   UNL d   1       0.818  -1.018   0.000  0.00  0.00    -0.155 NA
ATOM     13  C   UNL d   1       0.037  -0.768   0.000  0.00  0.00     0.104 A 
ATOM     14  C   UNL d   1      -0.634  -1.256   0.000  0.00  0.00     0.022 C 
ATOM     15  C   UNL d   1       0.037   0.058   0.000  0.00  0.00     0.041 A 
ATOM     16  C   UNL d   1       0.818   0.313   0.000  0.00  0.00     0.096 A 
ATOM     17  C   UNL d   1       1.076   1.097   0.000  0.00  0.00     0.022 C 
ENDBRANCH   8  11
ENDBRANCH   1   8
BRANCH   3  18
ATOM     18  O   UNL d   1       4.610  -1.781   0.000  0.00  0.00    -0.303 OA
BRANCH  18  19
ATOM     19  C   UNL d   1       4.197  -2.503   0.000  0.00  0.00     0.123 C 
ATOM     20  C   UNL d   1       4.610  -3.216   0.000  0.00  0.00     0.029 C 
ENDBRANCH  18  19
ENDBRANCH   3  18
TORSDOF 4
