REMARK  4 active torsions:
REMARK  status: ('A' for Active; 'I' for Inactive)
REMARK    1  A    between atoms: C_2  and  N_1 
REMARK    2  A    between atoms: C_12  and  C_5 
REMARK    3  A    between atoms: O_20  and  C_12 
REMARK    4  A    between atoms: C_22  and  O_20 
ROOT
ATOM      1  N   UNL d   1       3.530  -1.236   0.000  0.00  0.00    -0.237 N 
ATOM      2  C   UNL d   1       3.780  -2.029   0.000  0.00  0.00     0.263 A 
ATOM      3  C   UNL d   1       4.196  -0.750   0.000  0.00  0.00     0.263 A 
ATOM      4  C   UNL d   1       4.870  -1.236   0.000  0.00  0.00     0.039 A 
ATOM      5  C   UNL d   1       4.606  -2.029   0.000  0.00  0.00     0.039 A 
ATOM      6  C   UNL d   1       5.682  -1.067   0.000  0.00  0.00     0.049 A 
ATOM      7  C   UNL d   1       5.158  -2.652   0.000  0.00  0.00     0.049 A 
ATOM      8  C   UNL d   1       6.234  -1.690   0.000  0.00  0.00    -0.026 A 
ATOM      9  C   UNL d   1       5.975  -2.482   0.000  0.00  0.00    -0.026 A 
ATOM     10  C   UNL d   1       5.125  -1.619   0.000  0.00  0.00     0.018 A 
ATOM     11  O   UNL d   1       4.196   0.043   0.000  0.00  0.00    -0.267 OA
ATOM     12  O   UNL d   1       3.318  -2.667   0.000  0.00  0.00    -0.267 OA
ENDROOT
BRANCH   1  13
ATOM     13  C   UNL d   1       2.766  -0.991   0.000  0.00  0.00     0.105 A 
ATOM     14  C   UNL d   1       2.525  -0.231   0.000  0.00  0.00     0.086 A 
ATOM     15  C   UNL d   1       1.732  -0.231   0.000  0.00  0.00     0.014 A 
ATOM     16  C   UNL d   1       1.491  -0.991   0.000  0.00  0.00     0.031 A 
ATOM     17  S   UNL d   1       2.128  -1.458   0.000  0.00  0.00    -0.069 SA
ATOM     18  C   UNL d   1       0.713  -1.161   0.000  0.00  0.00     0.007 C 
BRANCH  14  19
ATOM     19  C   UNL d   1       2.992   0.406   0.000  0.00  0.00     0.302 C 
ATOM     20  O   UNL d   1       2.676   1.133   0.000  0.00  0.00    -0.259 OA
BRANCH  19  21
ATOM     21  O   UNL d   1       3.785   0.321   0.000  0.00  0.00    -0.271 OA
BRANCH  21  22
ATOM     22  C   UNL d   1       4.177   1.015   0.000  0.00  0.00     0.126 C 
ATOM     23  C   UNL d   1       4.969   1.019   0.000  0.00  0.00     0.029 C 
ENDBRANCH  21  22
ENDBRANCH  19  21
ENDBRANCH  14  19
ENDBRANCH   1  13
TORSDOF 4
