REMARK  3 active torsions:
REMARK  status: ('A' for Active; 'I' for Inactive)
REMARK       I    between atoms: N_2  and  C_1 
REMARK    1  A    between atoms: O_3  and  C_1 
REMARK    2  A    between atoms: C_9  and  O_3 
REMARK    3  A    between atoms: C_5  and  C_6 
ROOT
ATOM      1  C   UNL d   1       2.948  -9.787   0.000  0.00  0.00    -0.023 A 
ATOM      2  C   UNL d   1       3.361 -10.501   0.000  0.00  0.00    -0.002 A 
ATOM      3  C   UNL d   1       3.361  -9.073   0.000  0.00  0.00    -0.002 A 
ATOM      4  C   UNL d   1       4.589  -9.787   0.000  0.00  0.00     0.105 A 
ATOM      5  C   UNL d   1       4.184  -9.073   0.000  0.00  0.00     0.025 A 
ATOM      6  C   UNL d   1       4.184 -10.501   0.000  0.00  0.00     0.025 A 
ENDROOT
BRANCH   4   7
ATOM      7  O   UNL d   1       5.415  -9.787   0.000  0.00  0.00    -0.259 OA
BRANCH   7   8
ATOM      8  C   UNL d   1       5.841  -9.085   0.000  0.00  0.00     0.377 C 
ATOM      9  N   UNL d   1       6.668  -9.085   0.000  0.00  0.00    -0.252 N 
ATOM     10  C   UNL d   1       7.069  -9.812   0.000  0.00  0.00     0.085 A 
ATOM     11  C   UNL d   1       7.081  -8.380   0.000  0.00  0.00     0.085 A 
ATOM     12  C   UNL d   1       7.891  -9.820   0.000  0.00  0.00     0.019 A 
ATOM     13  C   UNL d   1       8.317  -9.111   0.000  0.00  0.00     0.003 A 
ATOM     14  C   UNL d   1       7.908  -8.384   0.000  0.00  0.00     0.019 A 
ATOM     15  O   UNL d   1       5.415  -8.355   0.000  0.00  0.00    -0.237 OA
ENDBRANCH   7   8
ENDBRANCH   4   7
BRANCH   1  16
ATOM     16  C   UNL d   1       2.121  -9.787   0.000  0.00  0.00     0.019 C 
ATOM     17  C   UNL d   1       1.708  -9.069   0.000  0.00  0.00     0.004 C 
ATOM     18  C   UNL d   1       1.708 -10.501   0.000  0.00  0.00     0.004 C 
ATOM     19  C   UNL d   1       2.334  -8.985   0.000  0.00  0.00     0.004 C 
ENDBRANCH   1  16
TORSDOF 3
