REMARK  8 active torsions:
REMARK  status: ('A' for Active; 'I' for Inactive)
REMARK    1  A    between atoms: C_6  and  N_1 
REMARK    2  A    between atoms: C_15  and  N_2 
REMARK    3  A    between atoms: C_8  and  C_3 
REMARK    4  A    between atoms: O_23  and  C_5 
REMARK    5  A    between atoms: C_7  and  O_9 
REMARK    6  A    between atoms: O_9  and  C_21 
REMARK    7  A    between atoms: C_20  and  C_15 
REMARK    8  A    between atoms: C_21  and  C_20 
ROOT
ATOM      1  C   UNL d   1       1.754  -0.092   0.000  0.00  0.00     0.238 C 
ATOM      2  O   UNL d   1       1.729   0.733   0.000  0.00  0.00    -0.283 OA
ENDROOT
BRANCH   1   3
ATOM      3  C   UNL d   1       1.054  -0.529   0.000  0.00  0.00     0.125 C 
BRANCH   3   4
ATOM      4  N   UNL d   1       0.317  -0.142   0.000  0.00  0.00    -0.297 N 
ATOM      5  C   UNL d   1       0.304   0.687   0.000  0.00  0.00     0.100 A 
ATOM      6  C   UNL d   1      -0.421   1.083   0.000  0.00  0.00     0.100 A 
ATOM      7  N   UNL d   1      -1.125   0.650   0.000  0.00  0.00    -0.301 N 
ATOM      8  C   UNL d   1      -1.108  -0.179   0.000  0.00  0.00     0.100 A 
ATOM      9  C   UNL d   1      -0.375  -0.579   0.000  0.00  0.00     0.100 A 
BRANCH   7  10
ATOM     10  C   UNL d   1      -1.849   1.046   0.000  0.00  0.00     0.064 A 
ATOM     11  C   UNL d   1      -1.870   1.870   0.000  0.00  0.00     0.020 A 
ATOM     12  C   UNL d   1      -2.595   2.270   0.000  0.00  0.00     0.031 A 
ATOM     13  C   UNL d   1      -3.295   1.837   0.000  0.00  0.00     0.140 A 
ATOM     14  C   UNL d   1      -3.274   1.008   0.000  0.00  0.00     0.031 A 
ATOM     15  F   UNL d   1      -4.019   2.233   0.000  0.00  0.00    -0.204 F 
ATOM     16  C   UNL d   1      -2.549   0.621   0.000  0.00  0.00     0.020 A 
ENDBRANCH   7  10
ENDBRANCH   3   4
ENDBRANCH   1   3
BRANCH   1  17
ATOM     17  C   UNL d   1       2.491  -0.491   0.000  0.00  0.00     0.166 C 
BRANCH  17  18
ATOM     18  O   UNL d   1       2.516  -1.329   0.000  0.00  0.00    -0.300 OA
BRANCH  18  19
ATOM     19  C   UNL d   1       3.241  -1.749   0.000  0.00  0.00     0.122 A 
ATOM     20  C   UNL d   1       3.241  -2.566   0.000  0.00  0.00     0.117 A 
ATOM     21  C   UNL d   1       3.949  -2.978   0.000  0.00  0.00     0.029 A 
ATOM     22  C   UNL d   1       4.665  -2.566   0.000  0.00  0.00     0.041 A 
ATOM     23  C   UNL d   1       4.665  -1.749   0.000  0.00  0.00     0.005 A 
ATOM     24  C   UNL d   1       3.949  -1.329   0.000  0.00  0.00     0.027 A 
BRANCH  20  25
ATOM     25  O   UNL d   1       2.528  -2.974   0.000  0.00  0.00    -0.326 OA
ATOM     26  C   UNL d   1       2.524  -3.799   0.000  0.00  0.00     0.181 C 
ENDBRANCH  20  25
BRANCH  22  27
ATOM     27  C   UNL d   1       5.378  -2.978   0.000  0.00  0.00     0.196 C 
ATOM     28  O   UNL d   1       5.378  -3.803   0.000  0.00  0.00    -0.287 OA
ATOM     29  C   UNL d   1       6.090  -2.566   0.000  0.00  0.00     0.045 C 
ENDBRANCH  22  27
ENDBRANCH  18  19
ENDBRANCH  17  18
ENDBRANCH   1  17
TORSDOF 8
