REMARK  7 active torsions:
REMARK  status: ('A' for Active; 'I' for Inactive)
REMARK    1  A    between atoms: N_3  and  S_1 
REMARK    2  A    between atoms: C_8  and  S_1 
REMARK    3  A    between atoms: S_2  and  C_7 
REMARK    4  A    between atoms: N_9  and  S_2 
REMARK    5  A    between atoms: C_4  and  N_3 
REMARK       I    between atoms: C_5  and  N_10 
REMARK    6  A    between atoms: C_16  and  C_5 
REMARK    7  A    between atoms: N_10  and  C_24 
ROOT
ATOM      1  C   UNL d   1      -1.012   2.671   0.000  0.00  0.00     0.106 A 
ATOM      2  C   UNL d   1      -0.308   3.083   0.000  0.00  0.00     0.015 A 
ATOM      3  C   UNL d   1      -1.021   1.846   0.000  0.00  0.00     0.015 A 
ATOM      4  C   UNL d   1       0.404   1.846   0.000  0.00  0.00     0.085 A 
ATOM      5  C   UNL d   1      -0.308   1.433   0.000  0.00  0.00     0.020 A 
ATOM      6  C   UNL d   1       0.404   2.671   0.000  0.00  0.00     0.020 A 
ENDROOT
BRANCH   4   7
ATOM      7  N   UNL d   1       1.125   1.425   0.000  0.00  0.00    -0.208 NA
ATOM      8  C   UNL d   1       1.125   0.600   0.000  0.00  0.00     0.279 C 
ATOM      9  O   UNL d   1       0.404   0.196   0.000  0.00  0.00    -0.265 OA
BRANCH   8  10
ATOM     10  C   UNL d   1       1.837   0.188   0.000  0.00  0.00     0.058 A 
ATOM     11  C   UNL d   1       1.842  -0.637   0.000  0.00  0.00     0.005 A 
ATOM     12  C   UNL d   1       2.550  -1.050   0.000  0.00  0.00     0.013 A 
ATOM     13  C   UNL d   1       3.275  -0.642   0.000  0.00  0.00     0.104 A 
ATOM     14  C   UNL d   1       3.267   0.196   0.000  0.00  0.00     0.013 A 
ATOM     15  C   UNL d   1       2.562   0.608   0.000  0.00  0.00     0.005 A 
BRANCH  13  16
ATOM     16  S   UNL d   1       3.992  -1.062   0.000  0.00  0.00     0.271 S 
ATOM     17  O   UNL d   1       3.575  -1.779   0.000  0.00  0.00    -0.200 OA
ATOM     18  O   UNL d   1       4.404  -0.342   0.000  0.00  0.00    -0.200 OA
BRANCH  16  19
ATOM     19  N   UNL d   1       4.704  -1.479   0.000  0.00  0.00    -0.226 N 
ATOM     20  C   UNL d   1       5.429  -1.067   0.000  0.00  0.00     0.111 C 
ATOM     21  C   UNL d   1       4.704  -2.300   0.000  0.00  0.00     0.111 C 
ENDBRANCH  16  19
ENDBRANCH  13  16
ENDBRANCH   8  10
ENDBRANCH   4   7
BRANCH   1  22
ATOM     22  S   UNL d   1      -1.725   3.083   0.000  0.00  0.00     0.300 S 
ATOM     23  O   UNL d   1      -2.146   2.371   0.000  0.00  0.00    -0.198 OA
ATOM     24  O   UNL d   1      -1.321   3.800   0.000  0.00  0.00    -0.198 OA
BRANCH  22  25
ATOM     25  N   UNL d   1      -2.446   3.496   0.000  0.00  0.00     0.034 NA
BRANCH  25  26
ATOM     26  C   UNL d   1      -3.158   3.083   0.000  0.00  0.00     0.760 A 
ATOM     27  N   UNL d   1      -3.158   2.246   0.000  0.00  0.00    -0.059 NA
ATOM     28  C   UNL d   1      -3.871   1.833   0.000  0.00  0.00     0.102 A 
ATOM     29  C   UNL d   1      -3.871   1.008   0.000  0.00  0.00     0.021 C 
ATOM     30  C   UNL d   1      -4.583   2.246   0.000  0.00  0.00     0.041 A 
ATOM     31  C   UNL d   1      -4.583   3.083   0.000  0.00  0.00     0.120 A 
ATOM     32  N   UNL d   1      -3.871   3.487   0.000  0.00  0.00    -0.057 NA
ENDBRANCH  25  26
ENDBRANCH  22  25
ENDBRANCH   1  22
TORSDOF 7
