REMARK  6 active torsions:
REMARK  status: ('A' for Active; 'I' for Inactive)
REMARK       I    between atoms: N_2  and  C_1 
REMARK       I    between atoms: N_4  and  C_1 
REMARK    1  A    between atoms: C_8  and  N_2 
REMARK    2  A    between atoms: C_3  and  C_5 
REMARK    3  A    between atoms: O_11  and  C_3 
REMARK    4  A    between atoms: C_14  and  N_4 
REMARK    5  A    between atoms: C_15  and  N_4 
REMARK    6  A    between atoms: C_16  and  O_11 
ROOT
ATOM      1  C   UNL d   1       4.653  -2.684   0.000  0.00  0.00     0.064 A 
ATOM      2  C   UNL d   1       3.220  -1.874   0.000  0.00  0.00     0.086 A 
ATOM      3  C   UNL d   1       3.938  -3.103   0.000  0.00  0.00     0.007 A 
ATOM      4  C   UNL d   1       4.653  -1.874   0.000  0.00  0.00     0.007 A 
ATOM      5  C   UNL d   1       3.220  -2.684   0.000  0.00  0.00     0.019 A 
ATOM      6  C   UNL d   1       3.938  -1.458   0.000  0.00  0.00     0.019 A 
ENDROOT
BRANCH   2   7
ATOM      7  N   UNL d   1       2.509  -1.458   0.000  0.00  0.00    -0.192 NA
ATOM      8  C   UNL d   1       2.522  -0.627   0.000  0.00  0.00     0.354 C 
ATOM      9  N   UNL d   1       1.819  -0.216   0.000  0.00  0.00    -0.256 N 
ATOM     10  O   UNL d   1       3.244  -0.229   0.000  0.00  0.00    -0.244 OA
BRANCH   9  11
ATOM     11  C   UNL d   1       1.101  -0.623   0.000  0.00  0.00     0.085 C 
ATOM     12  C   UNL d   1       0.386  -0.204   0.000  0.00  0.00     0.021 C 
ENDBRANCH   9  11
BRANCH   9  13
ATOM     13  C   UNL d   1       1.836   0.619   0.000  0.00  0.00     0.085 C 
ATOM     14  C   UNL d   1       1.126   1.034   0.000  0.00  0.00     0.021 C 
ENDBRANCH   9  13
ENDBRANCH   2   7
BRANCH   1  15
ATOM     15  C   UNL d   1       5.363  -3.091   0.000  0.00  0.00     0.300 C 
ATOM     16  O   UNL d   1       5.375  -3.913   0.000  0.00  0.00    -0.259 OA
BRANCH  15  17
ATOM     17  O   UNL d   1       6.073  -2.671   0.000  0.00  0.00    -0.271 OA
BRANCH  17  18
ATOM     18  C   UNL d   1       6.784  -3.070   0.000  0.00  0.00     0.126 C 
ATOM     19  C   UNL d   1       7.494  -2.655   0.000  0.00  0.00     0.029 C 
ENDBRANCH  17  18
ENDBRANCH  15  17
ENDBRANCH   1  15
TORSDOF 6
