REMARK  5 active torsions:
REMARK  status: ('A' for Active; 'I' for Inactive)
REMARK    1  A    between atoms: N_2  and  S_1 
REMARK    2  A    between atoms: C_3  and  S_1 
REMARK    3  A    between atoms: C_15  and  C_11 
REMARK    4  A    between atoms: O_17  and  C_12 
REMARK    5  A    between atoms: C_21  and  O_17 
ROOT
ATOM      1  C   UNL d   1       3.575  -0.354   0.000  0.00  0.00     0.128 A 
ATOM      2  C   UNL d   1       3.987  -1.067   0.000  0.00  0.00     0.015 A 
ATOM      3  C   UNL d   1       4.812  -1.067   0.000  0.00  0.00     0.001 A 
ATOM      4  C   UNL d   1       3.987   0.358   0.000  0.00  0.00     0.112 A 
ATOM      5  C   UNL d   1       5.225  -0.354   0.000  0.00  0.00     0.002 A 
ATOM      6  C   UNL d   1       4.812   0.358   0.000  0.00  0.00     0.025 A 
ENDROOT
BRANCH   1   7
ATOM      7  S   UNL d   1       2.750  -0.354   0.000  0.00  0.00     0.288 S 
ATOM      8  O   UNL d   1       2.750   0.471   0.000  0.00  0.00    -0.198 OA
ATOM      9  O   UNL d   1       2.750  -1.179   0.000  0.00  0.00    -0.198 OA
BRANCH   7  10
ATOM     10  N   UNL d   1       1.925  -0.354   0.000  0.00  0.00    -0.152 N 
ATOM     11  N   UNL d   1       1.438  -1.017   0.000  0.00  0.00    -0.155 NA
ATOM     12  C   UNL d   1       0.654  -0.767   0.000  0.00  0.00     0.104 A 
ATOM     13  C   UNL d   1      -0.013  -1.254   0.000  0.00  0.00     0.022 C 
ATOM     14  C   UNL d   1       0.654   0.058   0.000  0.00  0.00     0.041 A 
ATOM     15  C   UNL d   1       1.438   0.312   0.000  0.00  0.00     0.096 A 
ATOM     16  C   UNL d   1       1.692   1.096   0.000  0.00  0.00     0.022 C 
ENDBRANCH   7  10
ENDBRANCH   1   7
BRANCH   4  17
ATOM     17  O   UNL d   1       3.575   1.075   0.000  0.00  0.00    -0.304 OA
BRANCH  17  18
ATOM     18  C   UNL d   1       3.987   1.788   0.000  0.00  0.00     0.123 C 
ATOM     19  C   UNL d   1       3.575   2.508   0.000  0.00  0.00     0.029 C 
ENDBRANCH  17  18
ENDBRANCH   4  17
BRANCH   3  20
ATOM     20  C   UNL d   1       5.225  -1.779   0.000  0.00  0.00     0.000 C 
ATOM     21  C   UNL d   1       4.812  -2.500   0.000  0.00  0.00     0.000 C 
ATOM     22  C   UNL d   1       6.050  -1.779   0.000  0.00  0.00     0.000 C 
ENDBRANCH   3  20
TORSDOF 5
