REMARK  6 active torsions:
REMARK  status: ('A' for Active; 'I' for Inactive)
REMARK    1  A    between atoms: N_3  and  S_1 
REMARK    2  A    between atoms: C_10  and  S_1 
REMARK    3  A    between atoms: N_2  and  C_12 
REMARK    4  A    between atoms: C_4  and  N_3 
REMARK       I    between atoms: C_7  and  N_11 
REMARK    5  A    between atoms: C_15  and  C_7 
REMARK    6  A    between atoms: N_11  and  C_30 
ROOT
ATOM      1  C   UNL d   1      -0.296   2.676   0.000  0.00  0.00     0.106 A 
ATOM      2  C   UNL d   1       0.413   3.090   0.000  0.00  0.00     0.015 A 
ATOM      3  C   UNL d   1      -0.309   1.850   0.000  0.00  0.00     0.015 A 
ATOM      4  C   UNL d   1       1.127   1.850   0.000  0.00  0.00     0.085 A 
ATOM      5  C   UNL d   1       0.405   1.436   0.000  0.00  0.00     0.020 A 
ATOM      6  C   UNL d   1       1.127   2.676   0.000  0.00  0.00     0.020 A 
ENDROOT
BRANCH   4   7
ATOM      7  N   UNL d   1       1.845   1.428   0.000  0.00  0.00    -0.208 NA
ATOM      8  C   UNL d   1       1.845   0.601   0.000  0.00  0.00     0.279 C 
ATOM      9  O   UNL d   1       1.127   0.196   0.000  0.00  0.00    -0.265 OA
BRANCH   8  10
ATOM     10  C   UNL d   1       2.559   0.188   0.000  0.00  0.00     0.058 A 
ATOM     11  C   UNL d   1       2.559  -0.630   0.000  0.00  0.00     0.006 A 
ATOM     12  C   UNL d   1       3.269  -1.044   0.000  0.00  0.00     0.018 A 
ATOM     13  C   UNL d   1       3.987  -0.656   0.000  0.00  0.00     0.070 A 
ATOM     14  C   UNL d   1       3.996   0.184   0.000  0.00  0.00     0.018 A 
ATOM     15  C   UNL d   1       3.286   0.601   0.000  0.00  0.00     0.006 A 
BRANCH  13  16
ATOM     16  N   UNL d   1       4.701  -1.077   0.000  0.00  0.00    -0.242 N 
ATOM     17  C   UNL d   1       5.449  -0.714   0.000  0.00  0.00     0.267 A 
ATOM     18  C   UNL d   1       6.025  -1.315   0.000  0.00  0.00     0.066 A 
ATOM     19  O   UNL d   1       5.603   0.121   0.000  0.00  0.00    -0.267 OA
ATOM     20  C   UNL d   1       5.628  -2.033   0.000  0.00  0.00     0.066 A 
ATOM     21  C   UNL d   1       4.814  -1.883   0.000  0.00  0.00     0.267 A 
ATOM     22  O   UNL d   1       4.221  -2.459   0.000  0.00  0.00    -0.267 OA
ENDBRANCH  13  16
ENDBRANCH   8  10
ENDBRANCH   4   7
BRANCH   1  23
ATOM     23  S   UNL d   1      -1.010   3.090   0.000  0.00  0.00     0.300 S 
ATOM     24  O   UNL d   1      -0.610   3.808   0.000  0.00  0.00    -0.198 OA
ATOM     25  O   UNL d   1      -1.436   2.376   0.000  0.00  0.00    -0.198 OA
BRANCH  23  26
ATOM     26  N   UNL d   1      -1.729   3.503   0.000  0.00  0.00     0.034 NA
BRANCH  26  27
ATOM     27  C   UNL d   1      -2.443   3.090   0.000  0.00  0.00     0.760 A 
ATOM     28  N   UNL d   1      -3.165   3.495   0.000  0.00  0.00    -0.059 NA
ATOM     29  C   UNL d   1      -3.879   3.090   0.000  0.00  0.00     0.101 A 
ATOM     30  C   UNL d   1      -4.593   3.495   0.000  0.00  0.00     0.021 C 
ATOM     31  C   UNL d   1      -3.879   2.251   0.000  0.00  0.00     0.040 A 
ATOM     32  C   UNL d   1      -3.165   1.837   0.000  0.00  0.00     0.101 A 
ATOM     33  N   UNL d   1      -2.443   2.251   0.000  0.00  0.00    -0.059 NA
ATOM     34  C   UNL d   1      -3.165   1.010   0.000  0.00  0.00     0.021 C 
ENDBRANCH  26  27
ENDBRANCH  23  26
ENDBRANCH   1  23
TORSDOF 6
