REMARK  1 active torsions:
REMARK  status: ('A' for Active; 'I' for Inactive)
REMARK       I    between atoms: N_3  and  C_1 
REMARK       I    between atoms: N_5  and  C_1 
REMARK       I    between atoms: C_2  and  N_4 
REMARK    1  A    between atoms: C_6  and  C_2 
ROOT
ATOM      1  C   UNL d   1       6.267  -2.529  -0.292  0.00  0.00     0.340 C 
ATOM      2  C   UNL d   1       2.992  -2.429   0.117  0.00  0.00     0.265 C 
ATOM      3  N   UNL d   1       5.442  -2.504  -0.292  0.00  0.00    -0.254 N 
ATOM      4  N   UNL d   1       3.825  -2.462   0.000  0.00  0.00    -0.269 N 
ATOM      5  N   UNL d   1       6.704  -1.829  -0.292  0.00  0.00    -0.253 N 
ATOM      6  O   UNL d   1       6.654  -3.263  -0.292  0.00  0.00    -0.245 OA
ATOM      7  C   UNL d   1       5.004  -3.204  -0.263  0.00  0.00     0.104 A 
ATOM      8  C   UNL d   1       5.054  -1.775  -0.192  0.00  0.00     0.104 A 
ATOM      9  C   UNL d   1       4.179  -3.188  -0.104  0.00  0.00     0.102 A 
ATOM     10  C   UNL d   1       4.242  -1.750  -0.050  0.00  0.00     0.102 A 
ATOM     11  O   UNL d   1       2.612  -1.700   0.217  0.00  0.00    -0.267 OA
ATOM     12  O   UNL d   1       7.579  -0.438   0.000  0.00  0.00    -0.300 OA
ATOM     13  C   UNL d   1       6.312  -1.104   0.000  0.00  0.00     0.111 C 
ATOM     14  C   UNL d   1       7.525  -1.863   0.000  0.00  0.00     0.111 C 
ATOM     15  C   UNL d   1       7.963  -1.167   0.000  0.00  0.00     0.142 C 
ATOM     16  C   UNL d   1       6.754  -0.404   0.000  0.00  0.00     0.142 C 
ENDROOT
BRANCH   2  17
ATOM     17  C   UNL d   1       2.554  -3.129   0.154  0.00  0.00     0.057 C 
ATOM     18  C   UNL d   1       2.942  -3.854   0.000  0.00  0.00     0.011 C 
ATOM     19  C   UNL d   1       2.504  -4.562   0.000  0.00  0.00     0.035 C 
ATOM     20 BR   UNL d   1       2.904  -5.292   0.000  0.00  0.00    -0.049 Br
ATOM     21  C   UNL d   1       1.679  -4.537   0.000  0.00  0.00     0.007 C 
ATOM     22  C   UNL d   1       1.288  -3.804   0.000  0.00  0.00     0.001 C 
ATOM     23  C   UNL d   1       1.725  -3.100   0.000  0.00  0.00     0.005 C 
ENDBRANCH   2  17
TORSDOF 1
