REMARK  6 active torsions:
REMARK  status: ('A' for Active; 'I' for Inactive)
REMARK    1  A    between atoms: N_4  and  S_1 
REMARK    2  A    between atoms: C_12  and  S_1 
REMARK    3  A    between atoms: N_3  and  C_2 
REMARK    4  A    between atoms: C_7  and  N_4 
REMARK    5  A    between atoms: C_6  and  C_8 
REMARK       I    between atoms: C_8  and  N_13 
REMARK    6  A    between atoms: N_13  and  C_22 
ROOT
ATOM      1  C   UNL d   1      -1.015   2.676   0.000  0.00  0.00     0.106 A 
ATOM      2  C   UNL d   1      -0.309   3.090   0.000  0.00  0.00     0.015 A 
ATOM      3  C   UNL d   1      -1.023   1.850   0.000  0.00  0.00     0.015 A 
ATOM      4  C   UNL d   1       0.405   1.850   0.000  0.00  0.00     0.085 A 
ATOM      5  C   UNL d   1      -0.309   1.436   0.000  0.00  0.00     0.020 A 
ATOM      6  C   UNL d   1       0.405   2.676   0.000  0.00  0.00     0.020 A 
ENDROOT
BRANCH   1   7
ATOM      7  S   UNL d   1      -1.729   3.090   0.000  0.00  0.00     0.300 S 
ATOM      8  O   UNL d   1      -1.323   3.808   0.000  0.00  0.00    -0.198 OA
ATOM      9  O   UNL d   1      -2.150   2.376   0.000  0.00  0.00    -0.198 OA
BRANCH   7  10
ATOM     10  N   UNL d   1      -2.451   3.503   0.000  0.00  0.00     0.034 NA
BRANCH  10  11
ATOM     11  C   UNL d   1      -3.165   3.090   0.000  0.00  0.00     0.760 A 
ATOM     12  N   UNL d   1      -3.165   2.251   0.000  0.00  0.00    -0.059 NA
ATOM     13  C   UNL d   1      -3.879   1.837   0.000  0.00  0.00     0.102 A 
ATOM     14  C   UNL d   1      -3.879   1.010   0.000  0.00  0.00     0.021 C 
ATOM     15  C   UNL d   1      -4.593   2.251   0.000  0.00  0.00     0.041 A 
ATOM     16  C   UNL d   1      -4.593   3.090   0.000  0.00  0.00     0.120 A 
ATOM     17  N   UNL d   1      -3.879   3.495   0.000  0.00  0.00    -0.057 NA
ENDBRANCH  10  11
ENDBRANCH   7  10
ENDBRANCH   1   7
BRANCH   4  18
ATOM     18  N   UNL d   1       1.127   1.428   0.000  0.00  0.00    -0.208 NA
ATOM     19  C   UNL d   1       1.127   0.601   0.000  0.00  0.00     0.285 C 
ATOM     20  O   UNL d   1       0.405   0.196   0.000  0.00  0.00    -0.265 OA
BRANCH  19  21
ATOM     21  C   UNL d   1       1.841   0.188   0.000  0.00  0.00     0.089 A 
ATOM     22  S   UNL d   1       1.929  -0.639   0.000  0.00  0.00    -0.059 SA
ATOM     23  C   UNL d   1       2.743  -0.793   0.000  0.00  0.00     0.156 A 
ATOM     24  C   UNL d   1       3.144  -0.067   0.000  0.00  0.00     0.031 A 
ATOM     25  C   UNL d   1       2.584   0.522   0.000  0.00  0.00     0.014 A 
BRANCH  23  26
ATOM     26  N   UNL d   1       3.086  -1.557   0.000  0.00  0.00    -0.107 N 
ATOM     27  O   UNL d   1       2.610  -2.234   0.000  0.00  0.00    -0.531 OA
ATOM     28  O   UNL d   1       3.912  -1.628   0.000  0.00  0.00    -0.531 OA
ENDBRANCH  23  26
ENDBRANCH  19  21
ENDBRANCH   4  18
TORSDOF 6
