REMARK  4 active torsions:
REMARK  status: ('A' for Active; 'I' for Inactive)
REMARK    1  A    between atoms: C_2  and  S_1 
REMARK    2  A    between atoms: N_3  and  S_1 
REMARK    3  A    between atoms: C_7  and  N_3 
REMARK    4  A    between atoms: C_8  and  C_4 
ROOT
ATOM      1  S   UNL d   1       2.379  -4.941   0.000  0.00  0.00     0.285 S 
ATOM      2  O   UNL d   1       2.791  -4.224   0.000  0.00  0.00    -0.198 OA
ATOM      3  O   UNL d   1       1.966  -5.666   0.000  0.00  0.00    -0.198 OA
ENDROOT
BRANCH   1   4
ATOM      4  C   UNL d   1       1.654  -4.529   0.000  0.00  0.00     0.105 A 
ATOM      5  C   UNL d   1       1.654  -3.704   0.000  0.00  0.00     0.012 A 
ATOM      6  C   UNL d   1       0.942  -3.291   0.000  0.00  0.00     0.001 A 
ATOM      7  C   UNL d   1       2.375  -3.279   0.000  0.00  0.00     0.001 C 
ATOM      8  C   UNL d   1       0.942  -2.466   0.000  0.00  0.00     0.000 C 
ATOM      9  C   UNL d   1       0.217  -3.712   0.000  0.00  0.00     0.000 A 
ATOM     10  C   UNL d   1       0.225  -4.541   0.000  0.00  0.00     0.001 A 
ATOM     11  C   UNL d   1       0.942  -4.949   0.000  0.00  0.00     0.012 A 
ATOM     12  C   UNL d   1      -0.496  -4.966   0.000  0.00  0.00     0.000 C 
ATOM     13  C   UNL d   1       0.954  -5.774   0.000  0.00  0.00     0.001 C 
ENDBRANCH   1   4
BRANCH   1  14
ATOM     14  N   UNL d   1       3.100  -5.354   0.000  0.00  0.00    -0.158 NA
BRANCH  14  15
ATOM     15  C   UNL d   1       3.816  -4.937   0.000  0.00  0.00     0.100 A 
ATOM     16  C   UNL d   1       4.537  -5.349   0.000  0.00  0.00     0.083 A 
ATOM     17  C   UNL d   1       5.249  -4.937   0.000  0.00  0.00     0.008 A 
ATOM     18  C   UNL d   1       5.249  -4.112   0.000  0.00  0.00     0.000 A 
ATOM     19  C   UNL d   1       4.537  -3.700   0.000  0.00  0.00     0.002 A 
ATOM     20  C   UNL d   1       3.816  -4.112   0.000  0.00  0.00     0.020 A 
BRANCH  16  21
ATOM     21  C   UNL d   1       4.541  -6.174   0.000  0.00  0.00     0.212 C 
ATOM     22  O   UNL d   1       5.254  -6.587   0.000  0.00  0.00    -0.644 OA
ATOM     23  O   UNL d   1       3.829  -6.591   0.000  0.00  0.00    -0.644 OA
ENDBRANCH  16  21
ENDBRANCH  14  15
ENDBRANCH   1  14
TORSDOF 4
