REMARK  5 active torsions:
REMARK  status: ('A' for Active; 'I' for Inactive)
REMARK    1  A    between atoms: C_5  and  C_1 
REMARK    2  A    between atoms: N_7  and  C_5 
REMARK    3  A    between atoms: C_10  and  C_5 
REMARK    4  A    between atoms: C_16  and  C_19 
REMARK    5  A    between atoms: C_20  and  C_16 
ROOT
ATOM      1  C   UNL d   1       0.016   1.020   0.000  0.00  0.00     0.085 C 
ENDROOT
BRANCH   1   2
ATOM      2  C   UNL d   1      -0.727   1.426   0.000  0.00  0.00     0.059 A 
ATOM      3  C   UNL d   1      -1.446   0.996   0.000  0.00  0.00     0.214 A 
ATOM      4  C   UNL d   1      -2.166   1.410   0.000  0.00  0.00     0.121 A 
ATOM      5  O   UNL d   1      -1.446   0.179   0.000  0.00  0.00    -0.285 OA
ATOM      6  N   UNL d   1      -2.873   0.996   0.000  0.00  0.00    -0.241 NA
ATOM      7  C   UNL d   1      -2.166   2.243   0.000  0.00  0.00     0.032 A 
ATOM      8  C   UNL d   1      -3.592   1.426   0.000  0.00  0.00     0.099 A 
ATOM      9  C   UNL d   1      -3.592   2.227   0.000  0.00  0.00     0.021 A 
ATOM     10  C   UNL d   1      -2.873   2.653   0.000  0.00  0.00     0.004 A 
ATOM     11  C   UNL d   1      -1.446   2.653   0.000  0.00  0.00     0.059 A 
ATOM     12  C   UNL d   1      -0.727   2.227   0.000  0.00  0.00     0.016 A 
ATOM     13 CL   UNL d   1      -1.446   3.474   0.000  0.00  0.00    -0.082 Cl
ENDBRANCH   1   2
BRANCH   1  14
ATOM     14  N   UNL d   1       0.037   0.195   0.000  0.00  0.00    -0.302 N 
ATOM     15  C   UNL d   1      -0.666  -0.248   0.000  0.00  0.00     0.080 A 
ATOM     16  C   UNL d   1      -0.646  -1.073   0.000  0.00  0.00     0.019 A 
ATOM     17  C   UNL d   1       0.077  -1.463   0.000  0.00  0.00     0.003 A 
ATOM     18  C   UNL d   1       0.780  -1.028   0.000  0.00  0.00     0.019 A 
ATOM     19  C   UNL d   1       0.760  -0.211   0.000  0.00  0.00     0.080 A 
BRANCH  17  20
ATOM     20  C   UNL d   1       0.098  -2.280   0.000  0.00  0.00     0.000 C 
BRANCH  20  21
ATOM     21  C   UNL d   1       0.809  -2.670   0.000  0.00  0.00     0.000 A 
ATOM     22  C   UNL d   1       1.512  -2.247   0.000  0.00  0.00     0.000 A 
ATOM     23  C   UNL d   1       2.231  -2.637   0.000  0.00  0.00     0.000 A 
ATOM     24  C   UNL d   1       2.247  -3.462   0.000  0.00  0.00     0.000 A 
ATOM     25  C   UNL d   1       1.548  -3.889   0.000  0.00  0.00     0.000 A 
ATOM     26  C   UNL d   1       0.817  -3.490   0.000  0.00  0.00     0.000 A 
ENDBRANCH  20  21
ENDBRANCH  17  20
ENDBRANCH   1  14
BRANCH   1  27
ATOM     27  C   UNL d   1       0.736   1.463   0.000  0.00  0.00     0.098 A 
ATOM     28  N   UNL d   1       1.463   1.056   0.000  0.00  0.00    -0.243 NA
ATOM     29  C   UNL d   1       2.162   1.483   0.000  0.00  0.00     0.099 A 
ATOM     30  C   UNL d   1       2.137   2.304   0.000  0.00  0.00     0.021 A 
ATOM     31  C   UNL d   1       1.418   2.714   0.000  0.00  0.00     0.003 A 
ATOM     32  C   UNL d   1       0.719   2.288   0.000  0.00  0.00     0.021 A 
ENDBRANCH   1  27
TORSDOF 5
