REMARK  3 active torsions:
REMARK  status: ('A' for Active; 'I' for Inactive)
REMARK    1  A    between atoms: C_8  and  N_1 
REMARK    2  A    between atoms: C_2  and  C_7 
REMARK    3  A    between atoms: C_7  and  C_9 
ROOT
ATOM      1  N   UNL d   1       2.165  -1.107   0.000  0.00  0.00    -0.242 N 
ATOM      2  C   UNL d   1       2.251  -0.277   0.000  0.00  0.00     0.267 A 
ATOM      3  C   UNL d   1       2.924  -1.436   0.000  0.00  0.00     0.267 A 
ATOM      4  C   UNL d   1       3.477  -0.820   0.000  0.00  0.00     0.062 A 
ATOM      5  C   UNL d   1       3.062  -0.105   0.000  0.00  0.00     0.066 A 
ATOM      6  O   UNL d   1       1.636   0.267   0.000  0.00  0.00    -0.267 OA
ATOM      7  O   UNL d   1       3.095  -2.246   0.000  0.00  0.00    -0.267 OA
ENDROOT
BRANCH   4   8
ATOM      8  C   UNL d   1       4.297  -0.906   0.000  0.00  0.00     0.018 C 
BRANCH   8   9
ATOM      9  C   UNL d   1       4.698  -0.191   0.000  0.00  0.00     0.045 A 
ATOM     10  N   UNL d   1       5.513  -0.091   0.000  0.00  0.00    -0.308 N 
ATOM     11  C   UNL d   1       5.680   0.711   0.000  0.00  0.00     0.060 A 
ATOM     12  C   UNL d   1       6.072  -0.701   0.000  0.00  0.00     0.099 C 
ATOM     13  C   UNL d   1       6.386   1.126   0.000  0.00  0.00     0.017 A 
ATOM     14  C   UNL d   1       4.965   1.116   0.000  0.00  0.00    -0.002 A 
ATOM     15  C   UNL d   1       6.381   1.955   0.000  0.00  0.00     0.002 A 
ATOM     16  C   UNL d   1       5.657   2.356   0.000  0.00  0.00    -0.000 A 
ATOM     17  C   UNL d   1       4.955   1.941   0.000  0.00  0.00    -0.003 A 
ATOM     18  C   UNL d   1       4.355   0.558   0.000  0.00  0.00     0.054 A 
ATOM     19  C   UNL d   1       4.140   1.359   0.000  0.00  0.00     0.010 C 
ATOM     20  C   UNL d   1       3.553   0.773   0.000  0.00  0.00     0.010 C 
ENDBRANCH   8   9
ENDBRANCH   4   8
BRANCH   1  21
ATOM     21  C   UNL d   1       1.460  -1.522   0.000  0.00  0.00     0.070 A 
ATOM     22  C   UNL d   1       1.460  -2.351   0.000  0.00  0.00     0.016 A 
ATOM     23  C   UNL d   1       0.744  -2.761   0.000  0.00  0.00     0.001 A 
ATOM     24  C   UNL d   1       2.165  -2.761   0.000  0.00  0.00     0.001 A 
ATOM     25  C   UNL d   1       0.744  -3.582   0.000  0.00  0.00     0.000 A 
ATOM     26  C   UNL d   1       0.033  -2.351   0.000  0.00  0.00     0.000 A 
ATOM     27  C   UNL d   1       1.450  -3.997   0.000  0.00  0.00     0.000 A 
ATOM     28  C   UNL d   1       2.165  -3.582   0.000  0.00  0.00     0.000 A 
ATOM     29  C   UNL d   1       0.033  -1.522   0.000  0.00  0.00     0.002 A 
ATOM     30  C   UNL d   1       0.744  -1.107   0.000  0.00  0.00     0.018 A 
ENDBRANCH   1  21
TORSDOF 3
