REMARK  3 active torsions:
REMARK  status: ('A' for Active; 'I' for Inactive)
REMARK    1  A    between atoms: C_6  and  N_1 
REMARK    2  A    between atoms: C_9  and  C_6 
REMARK    3  A    between atoms: C_10  and  C_9 
ROOT
ATOM      1  C   UNL d   1       2.493  -0.449   0.000  0.00  0.00     0.086 C 
ENDROOT
BRANCH   1   2
ATOM      2  N   UNL d   1       3.257  -0.702   0.000  0.00  0.00    -0.240 N 
ATOM      3  C   UNL d   1       3.940  -0.205   0.000  0.00  0.00     0.267 A 
ATOM      4  C   UNL d   1       4.619  -0.702   0.000  0.00  0.00     0.066 A 
ATOM      5  O   UNL d   1       3.931   0.597   0.000  0.00  0.00    -0.267 OA
ATOM      6  C   UNL d   1       4.346  -1.504   0.000  0.00  0.00     0.066 A 
ATOM      7  C   UNL d   1       3.515  -1.504   0.000  0.00  0.00     0.267 A 
ATOM      8  O   UNL d   1       3.042  -2.149   0.000  0.00  0.00    -0.267 OA
ENDBRANCH   1   2
BRANCH   1   9
ATOM      9  C   UNL d   1       1.882  -1.003   0.000  0.00  0.00     0.019 C 
BRANCH   9  10
ATOM     10  C   UNL d   1       1.103  -0.750   0.000  0.00  0.00     0.002 A 
ATOM     11  C   UNL d   1       0.936   0.052   0.000  0.00  0.00     0.000 A 
ATOM     12  C   UNL d   1       0.158   0.310   0.000  0.00  0.00     0.000 A 
ATOM     13  C   UNL d   1      -0.454  -0.244   0.000  0.00  0.00     0.000 A 
ATOM     14  C   UNL d   1      -0.282  -1.051   0.000  0.00  0.00     0.000 A 
ATOM     15  C   UNL d   1       0.501  -1.294   0.000  0.00  0.00     0.000 A 
ENDBRANCH   9  10
ENDBRANCH   1   9
TORSDOF 3
