REMARK  4 active torsions:
REMARK  status: ('A' for Active; 'I' for Inactive)
REMARK       I    between atoms: N_2  and  C_1 
REMARK    1  A    between atoms: O_3  and  C_1 
REMARK    2  A    between atoms: C_5  and  O_3 
REMARK    3  A    between atoms: O_8  and  C_7 
REMARK    4  A    between atoms: C_10  and  O_8 
ROOT
ATOM      1  C   UNL d   1       1.583  -1.783   0.000  0.00  0.00     0.107 A 
ATOM      2  C   UNL d   1       1.169  -2.497   0.000  0.00  0.00     0.050 A 
ATOM      3  C   UNL d   1       0.342  -2.497   0.000  0.00  0.00     0.102 A 
ATOM      4  C   UNL d   1       0.342  -1.069   0.000  0.00  0.00     0.004 A 
ATOM      5  C   UNL d   1       1.169  -1.069   0.000  0.00  0.00     0.025 A 
ATOM      6  C   UNL d   1      -0.071  -1.783   0.000  0.00  0.00     0.025 A 
ENDROOT
BRANCH   1   7
ATOM      7  O   UNL d   1       2.409  -1.783   0.000  0.00  0.00    -0.259 OA
BRANCH   7   8
ATOM      8  C   UNL d   1       2.835  -1.081   0.000  0.00  0.00     0.378 C 
ATOM      9  N   UNL d   1       3.670  -1.081   0.000  0.00  0.00    -0.247 N 
ATOM     10  C   UNL d   1       4.075  -1.808   0.000  0.00  0.00     0.112 A 
ATOM     11  C   UNL d   1       4.088  -0.367   0.000  0.00  0.00     0.112 A 
ATOM     12  C   UNL d   1       4.902  -1.816   0.000  0.00  0.00     0.142 A 
ATOM     13  O   UNL d   1       5.328  -1.107   0.000  0.00  0.00    -0.300 OA
ATOM     14  C   UNL d   1       4.914  -0.376   0.000  0.00  0.00     0.142 A 
ATOM     15  O   UNL d   1       2.409  -0.342   0.000  0.00  0.00    -0.237 OA
ENDBRANCH   7   8
ENDBRANCH   1   7
BRANCH   3  16
ATOM     16  O   UNL d   1      -0.071  -3.211   0.000  0.00  0.00    -0.307 OA
BRANCH  16  17
ATOM     17  C   UNL d   1      -0.898  -3.211   0.000  0.00  0.00     0.100 A 
ATOM     18  C   UNL d   1      -1.311  -2.497   0.000  0.00  0.00     0.025 A 
ATOM     19  C   UNL d   1      -2.138  -2.497   0.000  0.00  0.00     0.002 A 
ATOM     20  C   UNL d   1      -2.551  -3.211   0.000  0.00  0.00     0.000 A 
ATOM     21  C   UNL d   1      -2.129  -3.925   0.000  0.00  0.00     0.002 A 
ATOM     22  C   UNL d   1      -1.311  -3.925   0.000  0.00  0.00     0.025 A 
ENDBRANCH  16  17
ENDBRANCH   3  16
TORSDOF 4
