REMARK  7 active torsions:
REMARK  status: ('A' for Active; 'I' for Inactive)
REMARK    1  A    between atoms: C_6  and  N_1 
REMARK    2  A    between atoms: C_12  and  C_6 
REMARK    3  A    between atoms: C_7  and  C_8 
REMARK    4  A    between atoms: C_22  and  C_7 
REMARK    5  A    between atoms: C_15  and  C_12 
REMARK    6  A    between atoms: O_13  and  C_15 
REMARK    7  A    between atoms: C_14  and  O_13 
ROOT
ATOM      1  C   UNL d   1       5.811  -6.524   0.000  0.00  0.00     0.238 C 
ATOM      2  O   UNL d   1       5.786  -5.698   0.000  0.00  0.00    -0.283 OA
ENDROOT
BRANCH   1   3
ATOM      3  C   UNL d   1       5.110  -6.962   0.000  0.00  0.00     0.126 C 
BRANCH   3   4
ATOM      4  N   UNL d   1       4.380  -6.562   0.000  0.00  0.00    -0.286 N 
ATOM      5  C   UNL d   1       3.633  -6.925   0.000  0.00  0.00     0.148 A 
ATOM      6  N   UNL d   1       3.058  -6.324   0.000  0.00  0.00    -0.227 NA
ATOM      7  C   UNL d   1       3.483  -7.734   0.000  0.00  0.00     0.041 C 
ATOM      8  C   UNL d   1       3.446  -5.598   0.000  0.00  0.00     0.099 A 
ATOM      9  C   UNL d   1       4.267  -5.748   0.000  0.00  0.00     0.083 A 
ATOM     10  C   UNL d   1       3.170  -4.830   0.000  0.00  0.00     0.021 A 
ATOM     11  C   UNL d   1       4.797  -5.110   0.000  0.00  0.00     0.019 A 
ATOM     12  C   UNL d   1       4.509  -4.334   0.000  0.00  0.00     0.002 A 
ATOM     13  C   UNL d   1       3.696  -4.197   0.000  0.00  0.00     0.002 A 
ENDBRANCH   3   4
ENDBRANCH   1   3
BRANCH   1  14
ATOM     14  C   UNL d   1       6.549  -6.912   0.000  0.00  0.00     0.166 C 
BRANCH  14  15
ATOM     15  O   UNL d   1       6.574  -7.763   0.000  0.00  0.00    -0.302 OA
BRANCH  15  16
ATOM     16  C   UNL d   1       7.300  -8.176   0.000  0.00  0.00     0.100 A 
ATOM     17  C   UNL d   1       8.009  -7.763   0.000  0.00  0.00     0.025 A 
ATOM     18  C   UNL d   1       8.727  -8.176   0.000  0.00  0.00     0.005 A 
ATOM     19  C   UNL d   1       8.727  -8.989   0.000  0.00  0.00     0.039 A 
ATOM     20  C   UNL d   1       8.009  -9.402   0.000  0.00  0.00     0.005 A 
ATOM     21  C   UNL d   1       7.300  -8.989   0.000  0.00  0.00     0.025 A 
BRANCH  19  22
ATOM     22  C   UNL d   1       9.440  -9.402   0.000  0.00  0.00     0.196 C 
ATOM     23  O   UNL d   1      10.153  -8.998   0.000  0.00  0.00    -0.287 OA
BRANCH  22  24
ATOM     24  C   UNL d   1       9.436 -10.228   0.000  0.00  0.00     0.042 C 
ATOM     25  C   UNL d   1      10.141 -10.641   0.000  0.00  0.00     0.003 C 
ENDBRANCH  22  24
ENDBRANCH  19  22
ENDBRANCH  15  16
ENDBRANCH  14  15
ENDBRANCH   1  14
TORSDOF 7
