REMARK  5 active torsions:
REMARK  status: ('A' for Active; 'I' for Inactive)
REMARK    1  A    between atoms: N_2  and  S_1 
REMARK    2  A    between atoms: C_4  and  S_1 
REMARK    3  A    between atoms: C_5  and  C_9 
REMARK       I    between atoms: N_8  and  C_5 
REMARK    4  A    between atoms: C_17  and  N_8 
REMARK    5  A    between atoms: C_18  and  C_17 
ROOT
ATOM      1  C   UNL d   1       4.614  -0.611   0.000  0.00  0.00     0.104 A 
ATOM      2  C   UNL d   1       3.095  -1.100   0.000  0.00  0.00     0.058 A 
ATOM      3  C   UNL d   1       4.451  -1.396   0.000  0.00  0.00     0.013 A 
ATOM      4  C   UNL d   1       4.014  -0.058   0.000  0.00  0.00     0.013 A 
ATOM      5  C   UNL d   1       3.689  -1.641   0.000  0.00  0.00     0.005 A 
ATOM      6  C   UNL d   1       3.252  -0.320   0.000  0.00  0.00     0.005 A 
ENDROOT
BRANCH   1   7
ATOM      7  S   UNL d   1       5.376  -0.355   0.000  0.00  0.00     0.271 S 
ATOM      8  O   UNL d   1       5.137   0.401   0.000  0.00  0.00    -0.200 OA
ATOM      9  O   UNL d   1       5.591  -1.274   0.000  0.00  0.00    -0.200 OA
BRANCH   7  10
ATOM     10  N   UNL d   1       6.231  -0.163   0.000  0.00  0.00    -0.231 N 
ATOM     11  C   UNL d   1       6.813  -0.820   0.000  0.00  0.00     0.075 A 
ATOM     12  C   UNL d   1       7.668  -0.634   0.000  0.00  0.00     0.017 A 
ATOM     13  C   UNL d   1       6.563  -1.647   0.000  0.00  0.00     0.018 A 
ATOM     14  C   UNL d   1       8.262  -1.274   0.000  0.00  0.00     0.002 A 
ATOM     15  C   UNL d   1       7.942   0.204   0.000  0.00  0.00     0.003 A 
ATOM     16  C   UNL d   1       8.000  -2.100   0.000  0.00  0.00     0.000 A 
ATOM     17  C   UNL d   1       7.144  -2.292   0.000  0.00  0.00     0.002 A 
ATOM     18  C   UNL d   1       7.354   0.849   0.000  0.00  0.00     0.020 A 
ATOM     19  C   UNL d   1       6.493   0.663   0.000  0.00  0.00     0.092 A 
ENDBRANCH   7  10
ENDBRANCH   1   7
BRANCH   2  20
ATOM     20  C   UNL d   1       2.327  -1.350   0.000  0.00  0.00     0.279 C 
ATOM     21  N   UNL d   1       1.728  -0.809   0.000  0.00  0.00    -0.206 NA
ATOM     22  O   UNL d   1       2.153  -2.129   0.000  0.00  0.00    -0.265 OA
BRANCH  21  23
ATOM     23  C   UNL d   1       0.966  -1.053   0.000  0.00  0.00     0.102 C 
BRANCH  23  24
ATOM     24  C   UNL d   1       0.349  -0.506   0.000  0.00  0.00     0.019 A 
ATOM     25  C   UNL d   1       0.524   0.297   0.000  0.00  0.00     0.002 A 
ATOM     26  C   UNL d   1      -0.087   0.849   0.000  0.00  0.00     0.000 A 
ATOM     27  C   UNL d   1      -0.884   0.593   0.000  0.00  0.00     0.000 A 
ATOM     28  C   UNL d   1      -1.047  -0.215   0.000  0.00  0.00     0.000 A 
ATOM     29  C   UNL d   1      -0.430  -0.768   0.000  0.00  0.00     0.002 A 
ENDBRANCH  23  24
ENDBRANCH  21  23
ENDBRANCH   2  20
TORSDOF 5
