REMARK  4 active torsions:
REMARK  status: ('A' for Active; 'I' for Inactive)
REMARK    1  A    between atoms: C_2  and  N_1 
REMARK    2  A    between atoms: C_12  and  C_5 
REMARK    3  A    between atoms: O_20  and  C_12 
REMARK    4  A    between atoms: C_21  and  C_13 
ROOT
ATOM      1  N   UNL d   1       4.990  -0.651   0.000  0.00  0.00    -0.237 N 
ATOM      2  C   UNL d   1       5.246  -1.447   0.000  0.00  0.00     0.263 A 
ATOM      3  C   UNL d   1       5.664  -0.163   0.000  0.00  0.00     0.263 A 
ATOM      4  C   UNL d   1       6.332  -0.651   0.000  0.00  0.00     0.039 A 
ATOM      5  C   UNL d   1       6.071  -1.447   0.000  0.00  0.00     0.039 A 
ATOM      6  C   UNL d   1       7.152  -0.476   0.000  0.00  0.00     0.049 A 
ATOM      7  C   UNL d   1       6.629  -2.074   0.000  0.00  0.00     0.049 A 
ATOM      8  C   UNL d   1       7.709  -1.115   0.000  0.00  0.00    -0.026 A 
ATOM      9  C   UNL d   1       7.442  -1.906   0.000  0.00  0.00    -0.026 A 
ATOM     10  C   UNL d   1       6.588  -1.034   0.000  0.00  0.00     0.018 A 
ATOM     11  O   UNL d   1       5.653   0.627   0.000  0.00  0.00    -0.267 OA
ATOM     12  O   UNL d   1       4.775  -2.080   0.000  0.00  0.00    -0.267 OA
ENDROOT
BRANCH   1  13
ATOM     13  C   UNL d   1       4.224  -0.407   0.000  0.00  0.00     0.105 A 
ATOM     14  C   UNL d   1       3.980   0.349   0.000  0.00  0.00     0.086 A 
ATOM     15  C   UNL d   1       3.178   0.349   0.000  0.00  0.00     0.014 A 
ATOM     16  C   UNL d   1       2.945  -0.407   0.000  0.00  0.00     0.031 A 
ATOM     17  S   UNL d   1       3.579  -0.877   0.000  0.00  0.00    -0.069 SA
BRANCH  14  18
ATOM     18  C   UNL d   1       4.450   0.993   0.000  0.00  0.00     0.298 C 
ATOM     19  O   UNL d   1       4.131   1.725   0.000  0.00  0.00    -0.259 OA
BRANCH  18  20
ATOM     20  O   UNL d   1       5.252   0.906   0.000  0.00  0.00    -0.296 OA
ATOM     21  C   UNL d   1       5.635   1.598   0.000  0.00  0.00     0.185 C 
ENDBRANCH  18  20
ENDBRANCH  14  18
BRANCH  16  22
ATOM     22  C   UNL d   1       2.161  -0.575   0.000  0.00  0.00     0.006 C 
ATOM     23  C   UNL d   1       1.906  -1.348   0.000  0.00  0.00     0.001 C 
ENDBRANCH  16  22
ENDBRANCH   1  13
TORSDOF 4
