REMARK  3 active torsions:
REMARK  status: ('A' for Active; 'I' for Inactive)
REMARK    1  A    between atoms: N_2  and  S_1 
REMARK    2  A    between atoms: N_4  and  S_1 
REMARK    3  A    between atoms: C_9  and  N_3 
ROOT
ATOM      1  N   UNL d   1       1.885  -0.004   0.000  0.00  0.00    -0.213 N 
ATOM      2  N   UNL d   1       3.530  -0.004   0.000  0.00  0.00    -0.301 N 
ATOM      3  C   UNL d   1       2.291  -0.708   0.000  0.00  0.00     0.112 A 
ATOM      4  C   UNL d   1       2.291   0.737   0.000  0.00  0.00     0.112 A 
ATOM      5  C   UNL d   1       3.116  -0.708   0.000  0.00  0.00     0.100 A 
ATOM      6  C   UNL d   1       3.116   0.737   0.000  0.00  0.00     0.100 A 
ENDROOT
BRANCH   2   7
ATOM      7  C   UNL d   1       4.360  -0.004   0.000  0.00  0.00     0.064 A 
ATOM      8  C   UNL d   1       4.762  -0.729   0.000  0.00  0.00     0.018 A 
ATOM      9  C   UNL d   1       5.591  -0.733   0.000  0.00  0.00     0.013 A 
ATOM     10  C   UNL d   1       6.010  -0.025   0.000  0.00  0.00     0.058 A 
ATOM     11  C   UNL d   1       5.595   0.699   0.000  0.00  0.00     0.013 A 
ATOM     12 CL   UNL d   1       6.839  -0.029   0.000  0.00  0.00    -0.082 Cl
ATOM     13  C   UNL d   1       4.774   0.704   0.000  0.00  0.00     0.018 A 
ENDBRANCH   2   7
BRANCH   1  14
ATOM     14  S   UNL d   1       1.043  -0.004   0.000  0.00  0.00     0.337 S 
ATOM     15  O   UNL d   1       0.628  -0.720   0.000  0.00  0.00    -0.181 OA
ATOM     16  O   UNL d   1       0.628   0.716   0.000  0.00  0.00    -0.181 OA
BRANCH  14  17
ATOM     17  N   UNL d   1       0.239  -0.218   0.000  0.00  0.00    -0.213 N 
ATOM     18  C   UNL d   1       0.025  -1.009   0.000  0.00  0.00     0.113 C 
ATOM     19  C   UNL d   1      -0.348   0.373   0.000  0.00  0.00     0.113 C 
ENDBRANCH  14  17
ENDBRANCH   1  14
TORSDOF 3
