REMARK  2 active torsions:
REMARK  status: ('A' for Active; 'I' for Inactive)
REMARK    1  A    between atoms: N_2  and  S_1 
REMARK    2  A    between atoms: C_3  and  S_1 
ROOT
ATOM      1  C   UNL d   1       1.966  -0.875   0.000  0.00  0.00     0.104 A 
ATOM      2  O   UNL d   1       4.102  -2.116   0.000  0.00  0.00    -0.273 OA
ATOM      3  C   UNL d   1       4.827  -1.703   0.000  0.00  0.00     0.300 A 
ATOM      4  C   UNL d   1       3.390  -0.875   0.000  0.00  0.00     0.024 A 
ATOM      5  C   UNL d   1       3.390  -1.703   0.000  0.00  0.00     0.103 A 
ATOM      6  C   UNL d   1       4.111  -0.454   0.000  0.00  0.00     0.007 A 
ATOM      7  C   UNL d   1       2.678  -0.462   0.000  0.00  0.00     0.015 A 
ATOM      8  C   UNL d   1       4.827  -0.875   0.000  0.00  0.00     0.069 A 
ATOM      9  C   UNL d   1       1.966  -1.703   0.000  0.00  0.00     0.015 A 
ATOM     10  O   UNL d   1       5.539  -2.124   0.000  0.00  0.00    -0.259 OA
ATOM     11  C   UNL d   1       2.678  -2.116   0.000  0.00  0.00     0.025 A 
ENDROOT
BRANCH   1  12
ATOM     12  S   UNL d   1       1.254  -0.467   0.000  0.00  0.00     0.272 S 
ATOM     13  O   UNL d   1       0.837  -1.179   0.000  0.00  0.00    -0.200 OA
ATOM     14  O   UNL d   1       1.662   0.250   0.000  0.00  0.00    -0.200 OA
BRANCH  12  15
ATOM     15  N   UNL d   1       0.537  -0.054   0.000  0.00  0.00    -0.225 N 
ATOM     16  C   UNL d   1       0.537   0.775   0.000  0.00  0.00     0.118 A 
ATOM     17  C   UNL d   1      -0.175   1.187   0.000  0.00  0.00     0.142 A 
ATOM     18  O   UNL d   1      -0.895   0.783   0.000  0.00  0.00    -0.300 OA
ATOM     19  C   UNL d   1      -0.895  -0.050   0.000  0.00  0.00     0.142 A 
ATOM     20  C   UNL d   1      -0.183  -0.467   0.000  0.00  0.00     0.118 A 
ENDBRANCH  12  15
ENDBRANCH   1  12
TORSDOF 2
