REMARK  5 active torsions:
REMARK  status: ('A' for Active; 'I' for Inactive)
REMARK    1  A    between atoms: N_2  and  S_1 
REMARK    2  A    between atoms: N_6  and  S_1 
REMARK    3  A    between atoms: C_3  and  N_4 
REMARK       I    between atoms: N_4  and  C_5 
REMARK    4  A    between atoms: C_5  and  C_14 
REMARK    5  A    between atoms: C_14  and  N_7 
ROOT
ATOM      1  N   UNL d   1       3.504  -4.192   0.000  0.00  0.00    -0.213 N 
ATOM      2  N   UNL d   1       1.867  -4.192   0.000  0.00  0.00    -0.296 N 
ATOM      3  C   UNL d   1       3.092  -4.904   0.000  0.00  0.00     0.112 A 
ATOM      4  C   UNL d   1       3.092  -3.467   0.000  0.00  0.00     0.112 A 
ATOM      5  C   UNL d   1       2.267  -4.904   0.000  0.00  0.00     0.100 A 
ATOM      6  C   UNL d   1       2.267  -3.467   0.000  0.00  0.00     0.100 A 
ENDROOT
BRANCH   2   7
ATOM      7  C   UNL d   1       1.029  -4.192   0.000  0.00  0.00     0.144 C 
BRANCH   7   8
ATOM      8  C   UNL d   1       0.617  -4.912   0.000  0.00  0.00     0.297 C 
ATOM      9  N   UNL d   1       1.029  -5.625   0.000  0.00  0.00    -0.206 NA
ATOM     10  O   UNL d   1      -0.208  -4.912   0.000  0.00  0.00    -0.264 OA
BRANCH   9  11
ATOM     11  C   UNL d   1       0.617  -6.342   0.000  0.00  0.00     0.096 A 
ATOM     12  C   UNL d   1      -0.208  -6.338   0.000  0.00  0.00     0.032 A 
ATOM     13  C   UNL d   1      -0.621  -7.054   0.000  0.00  0.00     0.059 A 
ATOM     14 CL   UNL d   1      -1.446  -7.050   0.000  0.00  0.00    -0.082 Cl
ATOM     15  C   UNL d   1      -0.208  -7.767   0.000  0.00  0.00     0.012 A 
ATOM     16  C   UNL d   1       0.617  -7.767   0.000  0.00  0.00     0.014 A 
ATOM     17  C   UNL d   1       1.029  -7.050   0.000  0.00  0.00     0.075 A 
ATOM     18 CL   UNL d   1       1.854  -7.042   0.000  0.00  0.00    -0.081 Cl
ENDBRANCH   9  11
ENDBRANCH   7   8
ENDBRANCH   2   7
BRANCH   1  19
ATOM     19  S   UNL d   1       4.329  -4.192   0.000  0.00  0.00     0.337 S 
ATOM     20  O   UNL d   1       4.742  -4.912   0.000  0.00  0.00    -0.181 OA
ATOM     21  O   UNL d   1       4.742  -3.479   0.000  0.00  0.00    -0.181 OA
BRANCH  19  22
ATOM     22  N   UNL d   1       5.154  -4.192   0.000  0.00  0.00    -0.213 N 
ATOM     23  C   UNL d   1       5.567  -4.912   0.000  0.00  0.00     0.113 C 
ATOM     24  C   UNL d   1       5.567  -3.479   0.000  0.00  0.00     0.113 C 
ENDBRANCH  19  22
ENDBRANCH   1  19
TORSDOF 5
