REMARK  4 active torsions:
REMARK  status: ('A' for Active; 'I' for Inactive)
REMARK    1  A    between atoms: C_3  and  C_1 
REMARK    2  A    between atoms: N_10  and  C_3 
REMARK    3  A    between atoms: C_13  and  C_3 
REMARK    4  A    between atoms: C_5  and  N_10 
ROOT
ATOM      1  C   UNL d   1      -0.874   0.093   0.000  0.00  0.00     0.086 C 
ENDROOT
BRANCH   1   2
ATOM      2  C   UNL d   1      -1.167  -0.688   0.000  0.00  0.00     0.037 A 
ATOM      3  C   UNL d   1      -0.693  -1.380   0.000  0.00  0.00     0.083 A 
ATOM      4  N   UNL d   1      -1.167  -2.008   0.000  0.00  0.00    -0.245 NA
ATOM      5  C   UNL d   1       0.130  -1.399   0.000  0.00  0.00     0.021 C 
ATOM      6  C   UNL d   1      -1.947  -1.762   0.000  0.00  0.00     0.081 A 
ATOM      7  C   UNL d   1      -1.947  -0.934   0.000  0.00  0.00     0.021 A 
ATOM      8  C   UNL d   1      -2.658  -2.180   0.000  0.00  0.00     0.019 A 
ATOM      9  C   UNL d   1      -2.658  -0.534   0.000  0.00  0.00     0.002 A 
ATOM     10  C   UNL d   1      -3.369  -0.934   0.000  0.00  0.00     0.000 A 
ATOM     11  C   UNL d   1      -3.369  -1.762   0.000  0.00  0.00     0.002 A 
ENDBRANCH   1   2
BRANCH   1  12
ATOM     12  N   UNL d   1      -0.070   0.223   0.000  0.00  0.00    -0.225 NA
BRANCH  12  13
ATOM     13  C   UNL d   1       0.200   0.985   0.000  0.00  0.00     0.191 A 
ATOM     14  N   UNL d   1      -0.181   1.743   0.000  0.00  0.00    -0.107 NA
ATOM     15  O   UNL d   1       0.395   2.324   0.000  0.00  0.00    -0.210 OA
ATOM     16  C   UNL d   1       1.134   1.966   0.000  0.00  0.00     0.128 A 
ATOM     17  C   UNL d   1       1.022   1.139   0.000  0.00  0.00     0.068 A 
ATOM     18  C   UNL d   1       1.845   2.393   0.000  0.00  0.00     0.029 C 
ENDBRANCH  12  13
ENDBRANCH   1  12
BRANCH   1  19
ATOM     19  C   UNL d   1      -1.408   0.720   0.000  0.00  0.00     0.037 A 
ATOM     20  C   UNL d   1      -1.139   1.473   0.000  0.00  0.00     0.100 A 
ATOM     21  N   UNL d   1      -1.655   2.119   0.000  0.00  0.00    -0.242 NA
ATOM     22  C   UNL d   1      -2.477   1.966   0.000  0.00  0.00     0.099 A 
ATOM     23  C   UNL d   1      -2.747   1.185   0.000  0.00  0.00     0.021 A 
ATOM     24  C   UNL d   1      -2.231   0.558   0.000  0.00  0.00     0.005 A 
ENDBRANCH   1  19
TORSDOF 4
