REMARK  4 active torsions:
REMARK  status: ('A' for Active; 'I' for Inactive)
REMARK    1  A    between atoms: N_2  and  S_1 
REMARK    2  A    between atoms: C_4  and  S_1 
REMARK    3  A    between atoms: C_11  and  C_3 
REMARK    4  A    between atoms: O_17  and  C_9 
ROOT
ATOM      1  S   UNL d   1       2.409  -1.138   0.000  0.00  0.00     0.273 S 
ATOM      2  O   UNL d   1       2.409  -1.969   0.000  0.00  0.00    -0.200 OA
ATOM      3  O   UNL d   1       2.409  -0.316   0.000  0.00  0.00    -0.200 OA
ENDROOT
BRANCH   1   4
ATOM      4  N   UNL d   1       1.587  -1.138   0.000  0.00  0.00    -0.213 N 
ATOM      5  C   UNL d   1       1.101  -0.474   0.000  0.00  0.00     0.157 A 
ATOM      6  N   UNL d   1       0.316  -0.727   0.000  0.00  0.00    -0.224 NA
ATOM      7  C   UNL d   1       0.316  -1.558   0.000  0.00  0.00     0.120 A 
ATOM      8  C   UNL d   1       1.101  -1.811   0.000  0.00  0.00     0.114 A 
BRANCH   5   9
ATOM      9  C   UNL d   1       1.358   0.312   0.000  0.00  0.00     0.035 A 
ATOM     10  C   UNL d   1       2.160   0.486   0.000  0.00  0.00     0.003 A 
ATOM     11  C   UNL d   1       2.422   1.271   0.000  0.00  0.00     0.000 A 
ATOM     12  C   UNL d   1       1.861   1.890   0.000  0.00  0.00     0.000 A 
ATOM     13  C   UNL d   1       1.059   1.716   0.000  0.00  0.00     0.000 A 
ATOM     14  C   UNL d   1       0.802   0.930   0.000  0.00  0.00     0.003 A 
ENDBRANCH   5   9
ENDBRANCH   1   4
BRANCH   1  15
ATOM     15  C   UNL d   1       3.240  -1.138   0.000  0.00  0.00     0.106 A 
ATOM     16  C   UNL d   1       3.656  -1.857   0.000  0.00  0.00     0.039 A 
ATOM     17  C   UNL d   1       4.478  -1.857   0.000  0.00  0.00     0.122 A 
ATOM     18  C   UNL d   1       4.889  -1.138   0.000  0.00  0.00     0.162 A 
ATOM     19  C   UNL d   1       4.478  -0.424   0.000  0.00  0.00     0.032 A 
ATOM     20  F   UNL d   1       5.712  -1.138   0.000  0.00  0.00    -0.202 F 
ATOM     21  C   UNL d   1       3.656  -0.428   0.000  0.00  0.00     0.015 A 
BRANCH  17  22
ATOM     22  O   UNL d   1       4.889  -2.571   0.000  0.00  0.00    -0.326 OA
ATOM     23  C   UNL d   1       4.478  -3.282   0.000  0.00  0.00     0.181 C 
ENDBRANCH  17  22
ENDBRANCH   1  15
TORSDOF 4
