REMARK  1 active torsions:
REMARK  status: ('A' for Active; 'I' for Inactive)
REMARK       I    between atoms: N_3  and  C_1 
REMARK       I    between atoms: N_5  and  C_1 
REMARK       I    between atoms: C_2  and  N_4 
REMARK    1  A    between atoms: C_6  and  C_2 
ROOT
ATOM      1  C   UNL d   1       4.213  -7.917  -0.292  0.00  0.00     0.340 C 
ATOM      2  C   UNL d   1       0.938  -7.812   0.117  0.00  0.00     0.271 C 
ATOM      3  N   UNL d   1       3.388  -7.888  -0.292  0.00  0.00    -0.254 N 
ATOM      4  N   UNL d   1       1.767  -7.842   0.000  0.00  0.00    -0.269 N 
ATOM      5  N   UNL d   1       4.650  -7.217  -0.292  0.00  0.00    -0.253 N 
ATOM      6  O   UNL d   1       4.600  -8.642  -0.292  0.00  0.00    -0.245 OA
ATOM      7  C   UNL d   1       2.950  -8.592  -0.263  0.00  0.00     0.104 A 
ATOM      8  C   UNL d   1       3.000  -7.154  -0.192  0.00  0.00     0.104 A 
ATOM      9  C   UNL d   1       2.129  -8.567  -0.104  0.00  0.00     0.102 A 
ATOM     10  C   UNL d   1       2.188  -7.129  -0.050  0.00  0.00     0.102 A 
ATOM     11  O   UNL d   1       0.554  -7.079   0.217  0.00  0.00    -0.266 OA
ATOM     12  O   UNL d   1       5.525  -5.817   0.000  0.00  0.00    -0.300 OA
ATOM     13  C   UNL d   1       5.467  -7.242   0.000  0.00  0.00     0.111 C 
ATOM     14  C   UNL d   1       4.254  -6.492   0.000  0.00  0.00     0.111 C 
ATOM     15  C   UNL d   1       4.700  -5.792   0.000  0.00  0.00     0.142 C 
ATOM     16  C   UNL d   1       5.904  -6.550   0.000  0.00  0.00     0.142 C 
ENDROOT
BRANCH   2  17
ATOM     17  C   UNL d   1       0.500  -8.517   0.154  0.00  0.00     0.086 A 
ATOM     18  S   UNL d   1       0.804  -9.287   0.067  0.00  0.00    -0.082 SA
ATOM     19  C   UNL d   1       0.167  -9.829   0.154  0.00  0.00     0.036 A 
ATOM     20  C   UNL d   1      -0.525  -9.387   0.287  0.00  0.00     0.008 A 
ATOM     21  C   UNL d   1      -0.321  -8.579   0.292  0.00  0.00     0.012 A 
ENDBRANCH   2  17
TORSDOF 1
