REMARK  4 active torsions:
REMARK  status: ('A' for Active; 'I' for Inactive)
REMARK    1  A    between atoms: N_2  and  S_1 
REMARK    2  A    between atoms: C_3  and  S_1 
REMARK    3  A    between atoms: O_15  and  C_7 
REMARK    4  A    between atoms: C_18  and  O_15 
ROOT
ATOM      1  C   UNL d   1       3.457  -0.054   0.000  0.00  0.00     0.106 A 
ATOM      2  C   UNL d   1       3.870  -0.768   0.000  0.00  0.00     0.040 A 
ATOM      3  C   UNL d   1       4.689  -0.768   0.000  0.00  0.00     0.128 A 
ATOM      4  C   UNL d   1       5.102  -0.054   0.000  0.00  0.00     0.163 A 
ATOM      5  C   UNL d   1       3.870   0.660   0.000  0.00  0.00     0.015 A 
ATOM      6  C   UNL d   1       4.689   0.660   0.000  0.00  0.00     0.032 A 
ATOM      7  F   UNL d   1       5.929  -0.054   0.000  0.00  0.00    -0.202 F 
ENDROOT
BRANCH   1   8
ATOM      8  S   UNL d   1       2.630  -0.054   0.000  0.00  0.00     0.272 S 
ATOM      9  O   UNL d   1       2.630  -0.881   0.000  0.00  0.00    -0.200 OA
ATOM     10  O   UNL d   1       2.630   0.772   0.000  0.00  0.00    -0.200 OA
BRANCH   8  11
ATOM     11  N   UNL d   1       1.804  -0.054   0.000  0.00  0.00    -0.225 N 
ATOM     12  C   UNL d   1       1.390   0.660   0.000  0.00  0.00     0.118 A 
ATOM     13  C   UNL d   1       0.564   0.660   0.000  0.00  0.00     0.142 A 
ATOM     14  O   UNL d   1       0.150  -0.054   0.000  0.00  0.00    -0.300 OA
ATOM     15  C   UNL d   1       0.564  -0.768   0.000  0.00  0.00     0.142 A 
ATOM     16  C   UNL d   1       1.390  -0.768   0.000  0.00  0.00     0.118 A 
ENDBRANCH   8  11
ENDBRANCH   1   8
BRANCH   3  17
ATOM     17  O   UNL d   1       5.102  -1.491   0.000  0.00  0.00    -0.303 OA
BRANCH  17  18
ATOM     18  C   UNL d   1       4.689  -2.205   0.000  0.00  0.00     0.123 C 
ATOM     19  C   UNL d   1       5.102  -2.923   0.000  0.00  0.00     0.029 C 
ENDBRANCH  17  18
ENDBRANCH   3  17
TORSDOF 4
