REMARK  7 active torsions:
REMARK  status: ('A' for Active; 'I' for Inactive)
REMARK    1  A    between atoms: C_2  and  S_1 
REMARK    2  A    between atoms: N_6  and  S_1 
REMARK    3  A    between atoms: C_14  and  C_4 
REMARK    4  A    between atoms: O_15  and  C_5 
REMARK    5  A    between atoms: C_12  and  N_6 
REMARK    6  A    between atoms: C_13  and  C_12 
REMARK    7  A    between atoms: C_20  and  O_15 
ROOT
ATOM      1  C   UNL d   1       3.010  -0.455   0.000  0.00  0.00     0.128 A 
ATOM      2  C   UNL d   1       3.424  -1.169   0.000  0.00  0.00     0.015 A 
ATOM      3  C   UNL d   1       4.246  -1.169   0.000  0.00  0.00     0.001 A 
ATOM      4  C   UNL d   1       3.424   0.259   0.000  0.00  0.00     0.112 A 
ATOM      5  C   UNL d   1       4.660  -0.455   0.000  0.00  0.00     0.002 A 
ATOM      6  C   UNL d   1       4.246   0.259   0.000  0.00  0.00     0.025 A 
ATOM      7  C   UNL d   1       5.486  -0.455   0.000  0.00  0.00     0.000 C 
ENDROOT
BRANCH   1   8
ATOM      8  S   UNL d   1       2.184  -0.455   0.000  0.00  0.00     0.287 S 
ATOM      9  O   UNL d   1       2.184  -1.282   0.000  0.00  0.00    -0.198 OA
ATOM     10  O   UNL d   1       2.184   0.372   0.000  0.00  0.00    -0.198 OA
BRANCH   8  11
ATOM     11  N   UNL d   1       1.357  -0.455   0.000  0.00  0.00    -0.155 NA
BRANCH  11  12
ATOM     12  C   UNL d   1       0.944  -1.169   0.000  0.00  0.00     0.131 C 
BRANCH  12  13
ATOM     13  C   UNL d   1       0.117  -1.169   0.000  0.00  0.00     0.101 A 
ATOM     14  N   UNL d   1      -0.288  -1.883   0.000  0.00  0.00    -0.242 NA
ATOM     15  C   UNL d   1      -1.111  -1.891   0.000  0.00  0.00     0.099 A 
ATOM     16  C   UNL d   1      -1.528  -1.169   0.000  0.00  0.00     0.021 A 
ATOM     17  C   UNL d   1      -1.115  -0.455   0.000  0.00  0.00     0.003 A 
ATOM     18  C   UNL d   1      -0.296  -0.455   0.000  0.00  0.00     0.021 A 
ENDBRANCH  12  13
ENDBRANCH  11  12
ENDBRANCH   8  11
ENDBRANCH   1   8
BRANCH   4  19
ATOM     19  O   UNL d   1       3.010   0.977   0.000  0.00  0.00    -0.304 OA
BRANCH  19  20
ATOM     20  C   UNL d   1       3.424   1.691   0.000  0.00  0.00     0.123 C 
ATOM     21  C   UNL d   1       3.010   2.413   0.000  0.00  0.00     0.029 C 
ENDBRANCH  19  20
ENDBRANCH   4  19
BRANCH   3  22
ATOM     22  C   UNL d   1       4.660  -1.883   0.000  0.00  0.00     0.000 C 
ATOM     23  C   UNL d   1       4.246  -2.597   0.000  0.00  0.00     0.000 C 
ATOM     24  C   UNL d   1       5.486  -1.883   0.000  0.00  0.00     0.000 C 
ENDBRANCH   3  22
TORSDOF 7
