REMARK  5 active torsions:
REMARK  status: ('A' for Active; 'I' for Inactive)
REMARK    1  A    between atoms: N_2  and  S_1 
REMARK    2  A    between atoms: C_3  and  S_1 
REMARK    3  A    between atoms: C_14  and  C_5 
REMARK    4  A    between atoms: O_15  and  C_8 
REMARK    5  A    between atoms: C_18  and  C_14 
ROOT
ATOM      1  C   UNL d   1       2.818   0.534   0.000  0.00  0.00     0.104 A 
ATOM      2  C   UNL d   1       3.232  -0.180   0.000  0.00  0.00     0.015 A 
ATOM      3  C   UNL d   1       4.058  -0.180   0.000  0.00  0.00     0.023 A 
ATOM      4  C   UNL d   1       4.472   0.534   0.000  0.00  0.00     0.094 A 
ATOM      5  C   UNL d   1       3.232   1.248   0.000  0.00  0.00     0.015 A 
ATOM      6  C   UNL d   1       4.058   1.248   0.000  0.00  0.00     0.025 A 
ENDROOT
BRANCH   1   7
ATOM      7  S   UNL d   1       1.992   0.534   0.000  0.00  0.00     0.272 S 
ATOM      8  O   UNL d   1       1.992  -0.292   0.000  0.00  0.00    -0.200 OA
ATOM      9  O   UNL d   1       1.992   1.361   0.000  0.00  0.00    -0.200 OA
BRANCH   7  10
ATOM     10  N   UNL d   1       1.169   0.534   0.000  0.00  0.00    -0.225 N 
ATOM     11  C   UNL d   1       0.756  -0.180   0.000  0.00  0.00     0.118 A 
ATOM     12  C   UNL d   1      -0.071  -0.180   0.000  0.00  0.00     0.142 A 
ATOM     13  O   UNL d   1      -0.484   0.534   0.000  0.00  0.00    -0.300 OA
ATOM     14  C   UNL d   1      -0.071   1.248   0.000  0.00  0.00     0.142 A 
ATOM     15  C   UNL d   1       0.756   1.248   0.000  0.00  0.00     0.118 A 
ENDBRANCH   7  10
ENDBRANCH   1   7
BRANCH   3  16
ATOM     16  C   UNL d   1       4.472  -0.893   0.000  0.00  0.00     0.002 C 
ATOM     17  C   UNL d   1       4.058  -1.607   0.000  0.00  0.00     0.000 C 
BRANCH  16  18
ATOM     18  C   UNL d   1       5.298  -0.893   0.000  0.00  0.00     0.000 C 
ATOM     19  C   UNL d   1       5.712  -1.607   0.000  0.00  0.00     0.000 C 
ENDBRANCH  16  18
ENDBRANCH   3  16
BRANCH   4  20
ATOM     20  O   UNL d   1       5.298   0.534   0.000  0.00  0.00    -0.328 OA
ATOM     21  C   UNL d   1       5.712  -0.180   0.000  0.00  0.00     0.181 C 
ENDBRANCH   4  20
TORSDOF 5
