REMARK  5 active torsions:
REMARK  status: ('A' for Active; 'I' for Inactive)
REMARK    1  A    between atoms: C_7  and  C_1 
REMARK    2  A    between atoms: C_12  and  N_2 
REMARK    3  A    between atoms: C_8  and  C_7 
REMARK    4  A    between atoms: O_25  and  C_20 
REMARK    5  A    between atoms: C_26  and  O_25 
ROOT
ATOM      1  N   UNL d   1       0.192  -0.058   0.000  0.00  0.00    -0.242 N 
ATOM      2  C   UNL d   1       0.278   0.773   0.000  0.00  0.00     0.267 A 
ATOM      3  C   UNL d   1       0.950  -0.389   0.000  0.00  0.00     0.267 A 
ATOM      4  C   UNL d   1       1.497   0.226   0.000  0.00  0.00     0.062 A 
ATOM      5  C   UNL d   1       1.085   0.945   0.000  0.00  0.00     0.066 A 
ATOM      6  O   UNL d   1      -0.341   1.320   0.000  0.00  0.00    -0.267 OA
ATOM      7  O   UNL d   1       1.123  -1.195   0.000  0.00  0.00    -0.267 OA
ENDROOT
BRANCH   4   8
ATOM      8  C   UNL d   1       2.308   0.144   0.000  0.00  0.00     0.018 C 
BRANCH   8   9
ATOM      9  C   UNL d   1       2.726   0.859   0.000  0.00  0.00     0.045 A 
ATOM     10  N   UNL d   1       3.542   0.960   0.000  0.00  0.00    -0.308 N 
ATOM     11  C   UNL d   1       3.705   1.766   0.000  0.00  0.00     0.060 A 
ATOM     12  C   UNL d   1       4.093   0.355   0.000  0.00  0.00     0.099 C 
ATOM     13  C   UNL d   1       4.410   2.183   0.000  0.00  0.00     0.017 A 
ATOM     14  C   UNL d   1       2.985   2.169   0.000  0.00  0.00    -0.002 A 
ATOM     15  C   UNL d   1       4.405   3.004   0.000  0.00  0.00     0.002 A 
ATOM     16  C   UNL d   1       3.676   3.407   0.000  0.00  0.00    -0.000 A 
ATOM     17  C   UNL d   1       2.970   2.990   0.000  0.00  0.00    -0.003 A 
ATOM     18  C   UNL d   1       2.380   1.608   0.000  0.00  0.00     0.054 A 
ATOM     19  C   UNL d   1       2.164   2.414   0.000  0.00  0.00     0.010 C 
ATOM     20  C   UNL d   1       1.574   1.823   0.000  0.00  0.00     0.010 C 
ENDBRANCH   8   9
ENDBRANCH   4   8
BRANCH   1  21
ATOM     21  C   UNL d   1      -0.518  -0.466   0.000  0.00  0.00     0.070 A 
ATOM     22  C   UNL d   1      -1.233  -0.058   0.000  0.00  0.00     0.020 A 
ATOM     23  C   UNL d   1      -1.953  -0.475   0.000  0.00  0.00     0.026 A 
ATOM     24  C   UNL d   1      -1.953  -1.300   0.000  0.00  0.00     0.100 A 
ATOM     25  C   UNL d   1      -1.233  -1.713   0.000  0.00  0.00     0.026 A 
ATOM     26  C   UNL d   1      -0.518  -1.300   0.000  0.00  0.00     0.020 A 
BRANCH  24  27
ATOM     27  O   UNL d   1      -2.663  -1.718   0.000  0.00  0.00    -0.305 OA
BRANCH  27  28
ATOM     28  C   UNL d   1      -2.663  -2.539   0.000  0.00  0.00     0.123 C 
ATOM     29  C   UNL d   1      -1.953  -2.956   0.000  0.00  0.00     0.029 C 
ENDBRANCH  27  28
ENDBRANCH  24  27
ENDBRANCH   1  21
TORSDOF 5
