REMARK  7 active torsions:
REMARK  status: ('A' for Active; 'I' for Inactive)
REMARK    1  A    between atoms: C_3  and  C_1 
REMARK    2  A    between atoms: C_4  and  C_1 
REMARK    3  A    between atoms: N_2  and  C_6 
REMARK    4  A    between atoms: C_6  and  C_13 
REMARK    5  A    between atoms: O_12  and  C_14 
REMARK    6  A    between atoms: C_16  and  O_12 
REMARK    7  A    between atoms: C_13  and  C_16 
ROOT
ATOM      1  C   UNL d   1       9.083 -10.107   0.000  0.00  0.00     0.039 A 
ATOM      2  C   UNL d   1       8.363 -10.520   0.000  0.00  0.00     0.005 A 
ATOM      3  C   UNL d   1       9.083  -9.287   0.000  0.00  0.00     0.005 A 
ATOM      4  C   UNL d   1       7.663  -9.287   0.000  0.00  0.00     0.100 A 
ATOM      5  C   UNL d   1       7.663 -10.107   0.000  0.00  0.00     0.025 A 
ATOM      6  C   UNL d   1       8.363  -8.875   0.000  0.00  0.00     0.025 A 
ENDROOT
BRANCH   4   7
ATOM      7  O   UNL d   1       6.934  -8.875   0.000  0.00  0.00    -0.302 OA
BRANCH   7   8
ATOM      8  C   UNL d   1       6.909  -8.034   0.000  0.00  0.00     0.166 C 
BRANCH   8   9
ATOM      9  C   UNL d   1       6.176  -7.638   0.000  0.00  0.00     0.238 C 
ATOM     10  O   UNL d   1       6.151  -6.813   0.000  0.00  0.00    -0.283 OA
BRANCH   9  11
ATOM     11  C   UNL d   1       5.472  -8.075   0.000  0.00  0.00     0.125 C 
BRANCH  11  12
ATOM     12  N   UNL d   1       4.739  -7.684   0.000  0.00  0.00    -0.296 N 
ATOM     13  C   UNL d   1       4.040  -8.121   0.000  0.00  0.00     0.107 A 
ATOM     14  C   UNL d   1       3.315  -7.721   0.000  0.00  0.00     0.142 A 
ATOM     15  O   UNL d   1       3.290  -6.888   0.000  0.00  0.00    -0.300 OA
ATOM     16  C   UNL d   1       3.998  -6.463   0.000  0.00  0.00     0.142 A 
ATOM     17  C   UNL d   1       4.723  -6.851   0.000  0.00  0.00     0.107 A 
ENDBRANCH  11  12
ENDBRANCH   9  11
ENDBRANCH   8   9
ENDBRANCH   7   8
ENDBRANCH   4   7
BRANCH   1  18
ATOM     18  C   UNL d   1       9.795 -10.520   0.000  0.00  0.00     0.196 C 
ATOM     19  O   UNL d   1       9.795 -11.344   0.000  0.00  0.00    -0.287 OA
BRANCH  18  20
ATOM     20  C   UNL d   1      10.507 -10.107   0.000  0.00  0.00     0.039 A 
ATOM     21  C   UNL d   1      11.224 -10.520   0.000  0.00  0.00     0.004 A 
ATOM     22  C   UNL d   1      11.936 -10.112   0.000  0.00  0.00     0.011 A 
ATOM     23  C   UNL d   1      11.936  -9.283   0.000  0.00  0.00     0.058 A 
ATOM     24  C   UNL d   1      11.220  -8.871   0.000  0.00  0.00     0.011 A 
ATOM     25 CL   UNL d   1      12.648  -8.871   0.000  0.00  0.00    -0.082 Cl
ATOM     26  C   UNL d   1      10.507  -9.287   0.000  0.00  0.00     0.004 A 
ENDBRANCH  18  20
ENDBRANCH   1  18
TORSDOF 7
