REMARK  1 active torsions:
REMARK  status: ('A' for Active; 'I' for Inactive)
REMARK       I    between atoms: N_2  and  C_1 
REMARK       I    between atoms: N_3  and  C_1 
REMARK    1  A    between atoms: C_4  and  N_2 
ROOT
ATOM      1  C   UNL d   1       0.566  -0.280   0.000  0.00  0.00     0.086 A 
ATOM      2  C   UNL d   1       0.566  -1.108   0.000  0.00  0.00     0.018 A 
ATOM      3  C   UNL d   1       1.277  -1.524   0.000  0.00  0.00     0.002 A 
ATOM      4  C   UNL d   1       1.277   0.135   0.000  0.00  0.00     0.019 A 
ATOM      5  C   UNL d   1       1.988  -0.280   0.000  0.00  0.00     0.002 A 
ATOM      6  C   UNL d   1      -0.154  -1.524   0.000  0.00  0.00     0.002 A 
ATOM      7  C   UNL d   1       1.988  -1.108   0.000  0.00  0.00     0.000 A 
ATOM      8  C   UNL d   1       1.259  -2.348   0.000  0.00  0.00     0.000 A 
ATOM      9  C   UNL d   1      -0.154  -2.348   0.000  0.00  0.00     0.000 A 
ATOM     10  C   UNL d   1       0.548  -2.761   0.000  0.00  0.00     0.000 A 
ENDROOT
BRANCH   1  11
ATOM     11  N   UNL d   1      -0.145   0.148   0.000  0.00  0.00    -0.192 NA
ATOM     12  C   UNL d   1      -0.145   0.976   0.000  0.00  0.00     0.354 C 
ATOM     13  N   UNL d   1      -0.859   1.376   0.000  0.00  0.00    -0.252 N 
ATOM     14  O   UNL d   1       0.585   1.391   0.000  0.00  0.00    -0.244 OA
ATOM     15  C   UNL d   1      -0.859   2.222   0.000  0.00  0.00     0.111 A 
ATOM     16  C   UNL d   1      -1.567   0.948   0.000  0.00  0.00     0.111 A 
ATOM     17  C   UNL d   1      -1.594   2.619   0.000  0.00  0.00     0.142 A 
ATOM     18  O   UNL d   1      -2.324   2.176   0.000  0.00  0.00    -0.300 OA
ATOM     19  C   UNL d   1      -2.305   1.357   0.000  0.00  0.00     0.142 A 
ENDBRANCH   1  11
TORSDOF 1
