REMARK  6 active torsions:
REMARK  status: ('A' for Active; 'I' for Inactive)
REMARK    1  A    between atoms: C_2  and  S_1 
REMARK    2  A    between atoms: N_3  and  S_1 
REMARK    3  A    between atoms: C_11  and  N_3 
REMARK    4  A    between atoms: O_13  and  C_5 
REMARK    5  A    between atoms: C_14  and  C_11 
REMARK    6  A    between atoms: C_15  and  O_13 
ROOT
ATOM      1  S   UNL d   1       3.204  -0.329   0.000  0.00  0.00     0.285 S 
ATOM      2  O   UNL d   1       3.204   0.496   0.000  0.00  0.00    -0.198 OA
ATOM      3  O   UNL d   1       3.204  -1.154   0.000  0.00  0.00    -0.198 OA
ENDROOT
BRANCH   1   4
ATOM      4  C   UNL d   1       4.029  -0.329   0.000  0.00  0.00     0.107 A 
ATOM      5  C   UNL d   1       4.442  -1.042   0.000  0.00  0.00     0.040 A 
ATOM      6  C   UNL d   1       5.267  -1.042   0.000  0.00  0.00     0.128 A 
ATOM      7  C   UNL d   1       5.679  -0.329   0.000  0.00  0.00     0.163 A 
ATOM      8  C   UNL d   1       5.267   0.383   0.000  0.00  0.00     0.032 A 
ATOM      9  F   UNL d   1       6.504  -0.329   0.000  0.00  0.00    -0.202 F 
ATOM     10  C   UNL d   1       4.442   0.383   0.000  0.00  0.00     0.015 A 
BRANCH   6  11
ATOM     11  O   UNL d   1       5.679  -1.754   0.000  0.00  0.00    -0.303 OA
BRANCH  11  12
ATOM     12  C   UNL d   1       5.267  -2.467   0.000  0.00  0.00     0.123 C 
ATOM     13  C   UNL d   1       5.679  -3.188   0.000  0.00  0.00     0.029 C 
ENDBRANCH  11  12
ENDBRANCH   6  11
ENDBRANCH   1   4
BRANCH   1  14
ATOM     14  N   UNL d   1       2.379  -0.329   0.000  0.00  0.00    -0.157 NA
BRANCH  14  15
ATOM     15  C   UNL d   1       1.967   0.388   0.000  0.00  0.00     0.112 C 
BRANCH  15  16
ATOM     16  C   UNL d   1       1.142   0.388   0.000  0.00  0.00     0.020 A 
ATOM     17  C   UNL d   1       0.738  -0.329   0.000  0.00  0.00     0.002 A 
ATOM     18  C   UNL d   1      -0.083  -0.329   0.000  0.00  0.00     0.000 A 
ATOM     19  C   UNL d   1      -0.500   0.383   0.000  0.00  0.00     0.000 A 
ATOM     20  C   UNL d   1      -0.087   1.100   0.000  0.00  0.00     0.000 A 
ATOM     21  C   UNL d   1       0.738   1.100   0.000  0.00  0.00     0.002 A 
ENDBRANCH  15  16
ENDBRANCH  14  15
ENDBRANCH   1  14
TORSDOF 6
