REMARK  4 active torsions:
REMARK  status: ('A' for Active; 'I' for Inactive)
REMARK    1  A    between atoms: C_7  and  C_1 
REMARK    2  A    between atoms: C_13  and  N_2 
REMARK    3  A    between atoms: C_8  and  C_7 
REMARK    4  A    between atoms: N_9  and  C_14 
ROOT
ATOM      1  N   UNL d   1       2.161  -1.104   0.000  0.00  0.00    -0.242 N 
ATOM      2  C   UNL d   1       2.247  -0.276   0.000  0.00  0.00     0.267 A 
ATOM      3  C   UNL d   1       2.918  -1.433   0.000  0.00  0.00     0.267 A 
ATOM      4  C   UNL d   1       3.470  -0.819   0.000  0.00  0.00     0.062 A 
ATOM      5  C   UNL d   1       3.056  -0.105   0.000  0.00  0.00     0.066 A 
ATOM      6  O   UNL d   1       1.633   0.267   0.000  0.00  0.00    -0.267 OA
ATOM      7  O   UNL d   1       3.089  -2.242   0.000  0.00  0.00    -0.267 OA
ENDROOT
BRANCH   4   8
ATOM      8  C   UNL d   1       4.289  -0.904   0.000  0.00  0.00     0.018 C 
BRANCH   8   9
ATOM      9  C   UNL d   1       4.688  -0.190   0.000  0.00  0.00     0.045 A 
ATOM     10  N   UNL d   1       5.502  -0.090   0.000  0.00  0.00    -0.308 N 
ATOM     11  C   UNL d   1       5.669   0.709   0.000  0.00  0.00     0.060 A 
ATOM     12  C   UNL d   1       6.059  -0.700   0.000  0.00  0.00     0.099 C 
ATOM     13  C   UNL d   1       6.373   1.123   0.000  0.00  0.00     0.017 A 
ATOM     14  C   UNL d   1       4.955   1.114   0.000  0.00  0.00    -0.002 A 
ATOM     15  C   UNL d   1       6.369   1.952   0.000  0.00  0.00     0.002 A 
ATOM     16  C   UNL d   1       5.645   2.351   0.000  0.00  0.00    -0.000 A 
ATOM     17  C   UNL d   1       4.946   1.937   0.000  0.00  0.00    -0.003 A 
ATOM     18  C   UNL d   1       4.346   0.557   0.000  0.00  0.00     0.054 A 
ATOM     19  C   UNL d   1       3.546   0.771   0.000  0.00  0.00     0.010 C 
ATOM     20  C   UNL d   1       4.132   1.357   0.000  0.00  0.00     0.010 C 
ENDBRANCH   8   9
ENDBRANCH   4   8
BRANCH   1  21
ATOM     21  C   UNL d   1       1.456  -1.518   0.000  0.00  0.00     0.070 A 
ATOM     22  C   UNL d   1       1.456  -2.347   0.000  0.00  0.00     0.019 A 
ATOM     23  C   UNL d   1       0.743  -2.756   0.000  0.00  0.00     0.025 A 
ATOM     24  C   UNL d   1       0.033  -2.347   0.000  0.00  0.00     0.127 A 
ATOM     25  C   UNL d   1       0.033  -1.518   0.000  0.00  0.00     0.025 A 
ATOM     26  C   UNL d   1       0.743  -1.104   0.000  0.00  0.00     0.019 A 
BRANCH  24  27
ATOM     27  N   UNL d   1      -0.681  -2.756   0.000  0.00  0.00    -0.114 N 
ATOM     28  O   UNL d   1      -1.395  -2.347   0.000  0.00  0.00    -0.532 OA
ATOM     29  O   UNL d   1      -0.681  -3.575   0.000  0.00  0.00    -0.532 OA
ENDBRANCH  24  27
ENDBRANCH   1  21
TORSDOF 4
