REMARK  1 active torsions:
REMARK  status: ('A' for Active; 'I' for Inactive)
REMARK       I    between atoms: N_2  and  C_1 
REMARK       I    between atoms: N_4  and  C_1 
REMARK    1  A    between atoms: C_5  and  N_3 
ROOT
ATOM      1  C   UNL d   1       4.157 -10.902   0.000  0.00  0.00     0.339 C 
ATOM      2  N   UNL d   1       3.333 -10.902   0.000  0.00  0.00    -0.254 N 
ATOM      3  N   UNL d   1       1.700 -10.902   0.000  0.00  0.00    -0.301 N 
ATOM      4  N   UNL d   1       4.576 -10.192   0.000  0.00  0.00    -0.258 N 
ATOM      5  O   UNL d   1       4.564 -11.621   0.000  0.00  0.00    -0.245 OA
ATOM      6  C   UNL d   1       2.922 -11.609   0.000  0.00  0.00     0.104 A 
ATOM      7  C   UNL d   1       2.922 -10.175   0.000  0.00  0.00     0.104 A 
ATOM      8  C   UNL d   1       2.107 -10.175   0.000  0.00  0.00     0.100 A 
ATOM      9  C   UNL d   1       2.107 -11.609   0.000  0.00  0.00     0.100 A 
ATOM     10  C   UNL d   1       5.391 -10.113   0.000  0.00  0.00     0.085 A 
ATOM     11  C   UNL d   1       4.244  -9.439   0.000  0.00  0.00     0.085 A 
ATOM     12  C   UNL d   1       4.855  -8.895   0.000  0.00  0.00     0.021 A 
ATOM     13  C   UNL d   1       5.566  -9.306   0.000  0.00  0.00     0.021 A 
ENDROOT
BRANCH   3  14
ATOM     14  C   UNL d   1       0.865 -10.902   0.000  0.00  0.00     0.064 A 
ATOM     15  C   UNL d   1       0.453 -11.621   0.000  0.00  0.00     0.018 A 
ATOM     16  C   UNL d   1      -0.382 -11.626   0.000  0.00  0.00     0.001 A 
ATOM     17  C   UNL d   1      -0.794 -12.336   0.000  0.00  0.00     0.000 C 
ATOM     18  C   UNL d   1      -0.806 -10.898   0.000  0.00  0.00     0.000 A 
ATOM     19  C   UNL d   1      -0.382 -10.175   0.000  0.00  0.00     0.002 A 
ATOM     20  C   UNL d   1      -1.629 -10.898   0.000  0.00  0.00     0.000 C 
ATOM     21  C   UNL d   1       0.449 -10.175   0.000  0.00  0.00     0.018 A 
ENDBRANCH   3  14
TORSDOF 1
