REMARK  3 active torsions:
REMARK  status: ('A' for Active; 'I' for Inactive)
REMARK    1  A    between atoms: C_4  and  C_1 
REMARK       I    between atoms: N_6  and  C_4 
REMARK    2  A    between atoms: C_8  and  C_5 
REMARK    3  A    between atoms: C_7  and  N_6 
ROOT
ATOM      1  C   UNL d   1       3.077  -0.889   0.000  0.00  0.00     0.192 A 
ATOM      2  C   UNL d   1       2.355  -2.135   0.000  0.00  0.00     0.296 A 
ATOM      3  O   UNL d   1       3.077  -1.724   0.000  0.00  0.00    -0.290 OA
ATOM      4  C   UNL d   1       1.636  -1.724   0.000  0.00  0.00     0.063 A 
ATOM      5  C   UNL d   1       1.645  -0.889   0.000  0.00  0.00     0.004 A 
ATOM      6  C   UNL d   1       2.359  -0.473   0.000  0.00  0.00     0.010 A 
ATOM      7  O   UNL d   1       2.355  -2.957   0.000  0.00  0.00    -0.259 OA
ATOM      8  C   UNL d   1       3.069  -0.067   0.000  0.00  0.00     0.045 C 
ATOM      9  C   UNL d   1       0.926  -0.478   0.000  0.00  0.00    -0.000 A 
ATOM     10  C   UNL d   1       0.926  -2.130   0.000  0.00  0.00     0.005 A 
ATOM     11  C   UNL d   1       0.216  -0.897   0.000  0.00  0.00    -0.000 A 
ATOM     12  C   UNL d   1       0.216  -1.719   0.000  0.00  0.00     0.000 A 
ENDROOT
BRANCH   1  13
ATOM     13  C   UNL d   1       3.866  -1.101   0.000  0.00  0.00     0.285 C 
ATOM     14  N   UNL d   1       4.078  -1.898   0.000  0.00  0.00    -0.209 NA
ATOM     15  O   UNL d   1       4.448  -0.515   0.000  0.00  0.00    -0.267 OA
BRANCH  14  16
ATOM     16  C   UNL d   1       4.875  -2.106   0.000  0.00  0.00     0.090 A 
ATOM     17  C   UNL d   1       5.087  -2.895   0.000  0.00  0.00     0.082 A 
ATOM     18  C   UNL d   1       5.885  -3.106   0.000  0.00  0.00     0.008 A 
ATOM     19  C   UNL d   1       6.466  -2.521   0.000  0.00  0.00     0.000 A 
ATOM     20  C   UNL d   1       6.246  -1.724   0.000  0.00  0.00     0.002 A 
ATOM     21  C   UNL d   1       5.449  -1.524   0.000  0.00  0.00     0.019 A 
BRANCH  17  22
ATOM     22  C   UNL d   1       4.502  -3.480   0.000  0.00  0.00     0.212 C 
ATOM     23  O   UNL d   1       4.722  -4.277   0.000  0.00  0.00    -0.644 OA
ATOM     24  O   UNL d   1       3.713  -3.268   0.000  0.00  0.00    -0.644 OA
ENDBRANCH  17  22
ENDBRANCH  14  16
ENDBRANCH   1  13
TORSDOF 3
