REMARK  1 active torsions:
REMARK  status: ('A' for Active; 'I' for Inactive)
REMARK    1  A    between atoms: C_7  and  C_5 
ROOT
ATOM      1  C   UNL d   1       1.056  -3.549   0.000  0.00  0.00     0.110 A 
ATOM      2  C   UNL d   1       2.334  -3.950   0.000  0.00  0.00     0.332 A 
ATOM      3  C   UNL d   1       1.069  -4.372   0.000  0.00  0.00     0.060 A 
ATOM      4  S   UNL d   1       1.854  -4.622   0.000  0.00  0.00    -0.018 SA
ATOM      5  C   UNL d   1       0.342  -3.136   0.000  0.00  0.00     0.027 A 
ATOM      6  O   UNL d   1       1.841  -3.286   0.000  0.00  0.00    -0.268 OA
ATOM      7  C   UNL d   1       0.342  -4.789   0.000  0.00  0.00     0.051 A 
ATOM      8  C   UNL d   1      -0.372  -3.549   0.000  0.00  0.00     0.044 A 
ATOM      9  O   UNL d   1       3.161  -3.937   0.000  0.00  0.00    -0.251 OA
ATOM     10  C   UNL d   1      -0.372  -4.376   0.000  0.00  0.00     0.196 A 
ATOM     11  O   UNL d   1      -1.090  -4.789   0.000  0.00  0.00    -0.286 OA
ENDROOT
BRANCH   5  12
ATOM     12  C   UNL d   1       0.342  -2.309   0.000  0.00  0.00     0.004 A 
ATOM     13  C   UNL d   1       1.056  -1.896   0.000  0.00  0.00     0.030 A 
ATOM     14  C   UNL d   1       1.056  -1.069   0.000  0.00  0.00     0.140 A 
ATOM     15  F   UNL d   1       1.770  -0.651   0.000  0.00  0.00    -0.204 F 
ATOM     16  C   UNL d   1       0.342  -0.656   0.000  0.00  0.00     0.030 A 
ATOM     17  C   UNL d   1      -0.372  -1.069   0.000  0.00  0.00     0.002 A 
ATOM     18  C   UNL d   1      -0.372  -1.896   0.000  0.00  0.00     0.000 A 
ENDBRANCH   5  12
TORSDOF 1
