REMARK  6 active torsions:
REMARK  status: ('A' for Active; 'I' for Inactive)
REMARK    1  A    between atoms: C_15  and  C_2 
REMARK    2  A    between atoms: C_19  and  C_3 
REMARK    3  A    between atoms: C_4  and  C_16 
REMARK       I    between atoms: N_7  and  C_4 
REMARK    4  A    between atoms: C_14  and  N_7 
REMARK    5  A    between atoms: C_8  and  C_9 
REMARK    6  A    between atoms: C_16  and  C_15 
ROOT
ATOM      1  C   UNL d   1       5.308  -0.538   0.000  0.00  0.00     0.279 C 
ATOM      2  N   UNL d   1       5.917  -1.092   0.000  0.00  0.00    -0.208 NA
ATOM      3  O   UNL d   1       5.483   0.271   0.000  0.00  0.00    -0.265 OA
ENDROOT
BRANCH   1   4
ATOM      4  C   UNL d   1       4.520  -0.788   0.000  0.00  0.00     0.065 C 
BRANCH   4   5
ATOM      5  C   UNL d   1       3.907  -0.229   0.000  0.00  0.00     0.030 C 
BRANCH   5   6
ATOM      6  C   UNL d   1       3.119  -0.475   0.000  0.00  0.00     0.100 A 
ATOM      7  O   UNL d   1       2.464   0.021   0.000  0.00  0.00    -0.307 OA
ATOM      8  C   UNL d   1       1.793  -0.455   0.000  0.00  0.00     0.100 A 
ATOM      9  C   UNL d   1       2.043  -1.255   0.000  0.00  0.00     0.027 A 
ATOM     10  C   UNL d   1       2.864  -1.255   0.000  0.00  0.00     0.027 A 
BRANCH   8  11
ATOM     11  C   UNL d   1       1.013  -0.200   0.000  0.00  0.00     0.025 C 
ATOM     12  C   UNL d   1       0.392  -0.742   0.000  0.00  0.00     0.002 C 
ENDBRANCH   8  11
ENDBRANCH   5   6
ENDBRANCH   4   5
ENDBRANCH   1   4
BRANCH   2  13
ATOM     13  C   UNL d   1       5.733  -1.905   0.000  0.00  0.00     0.085 A 
ATOM     14  C   UNL d   1       4.945  -2.143   0.000  0.00  0.00     0.019 A 
ATOM     15  C   UNL d   1       4.766  -2.952   0.000  0.00  0.00     0.005 A 
ATOM     16  C   UNL d   1       5.370  -3.515   0.000  0.00  0.00     0.039 A 
ATOM     17  C   UNL d   1       6.167  -3.256   0.000  0.00  0.00     0.005 A 
ATOM     18  C   UNL d   1       6.342  -2.456   0.000  0.00  0.00     0.019 A 
BRANCH  16  19
ATOM     19  C   UNL d   1       5.195  -4.320   0.000  0.00  0.00     0.196 C 
ATOM     20  O   UNL d   1       5.804  -4.878   0.000  0.00  0.00    -0.287 OA
ATOM     21  C   UNL d   1       4.407  -4.570   0.000  0.00  0.00     0.045 C 
ENDBRANCH  16  19
ENDBRANCH   2  13
TORSDOF 6
