REMARK  7 active torsions:
REMARK  status: ('A' for Active; 'I' for Inactive)
REMARK       I    between atoms: C_2  and  N_1 
REMARK    1  A    between atoms: C_3  and  N_1 
REMARK    2  A    between atoms: C_4  and  C_2 
REMARK    3  A    between atoms: N_9  and  C_3 
REMARK    4  A    between atoms: O_19  and  C_6 
REMARK    5  A    between atoms: C_7  and  C_18 
REMARK    6  A    between atoms: C_18  and  N_9 
REMARK    7  A    between atoms: O_20  and  C_12 
ROOT
ATOM      1  N   UNL d   1       2.172   0.226   0.000  0.00  0.00    -0.179 NA
ATOM      2  C   UNL d   1       1.646   0.865   0.000  0.00  0.00     0.281 C 
ATOM      3  O   UNL d   1       1.934   1.642   0.000  0.00  0.00    -0.265 OA
ENDROOT
BRANCH   2   4
ATOM      4  C   UNL d   1       0.831   0.735   0.000  0.00  0.00     0.060 A 
ATOM      5  C   UNL d   1       0.305   1.374   0.000  0.00  0.00     0.031 A 
ATOM      6  C   UNL d   1      -0.510   1.241   0.000  0.00  0.00     0.116 A 
ATOM      7  C   UNL d   1      -0.798   0.464   0.000  0.00  0.00     0.116 A 
ATOM      8  C   UNL d   1      -0.272  -0.175   0.000  0.00  0.00     0.026 A 
ATOM      9  C   UNL d   1       0.543  -0.029   0.000  0.00  0.00     0.007 A 
BRANCH   6  10
ATOM     10  O   UNL d   1      -1.036   1.880   0.000  0.00  0.00    -0.326 OA
ATOM     11  C   UNL d   1      -1.850   1.750   0.000  0.00  0.00     0.181 C 
ENDBRANCH   6  10
BRANCH   7  12
ATOM     12  O   UNL d   1      -1.617   0.334   0.000  0.00  0.00    -0.326 OA
ATOM     13  C   UNL d   1      -2.139   0.973   0.000  0.00  0.00     0.181 C 
ENDBRANCH   7  12
ENDBRANCH   2   4
BRANCH   1  14
ATOM     14  C   UNL d   1       1.880  -0.543   0.000  0.00  0.00     0.224 C 
ATOM     15  S   UNL d   1       1.078  -0.769   0.000  0.00  0.00    -0.037 SA
BRANCH  14  16
ATOM     16  N   UNL d   1       2.335  -1.241   0.000  0.00  0.00    -0.214 NA
BRANCH  16  17
ATOM     17  C   UNL d   1       3.162  -1.278   0.000  0.00  0.00     0.126 C 
BRANCH  17  18
ATOM     18  C   UNL d   1       3.601  -0.581   0.000  0.00  0.00     0.119 A 
ATOM     19  O   UNL d   1       4.411  -0.439   0.000  0.00  0.00    -0.304 OA
ATOM     20  C   UNL d   1       4.524   0.376   0.000  0.00  0.00     0.123 A 
ATOM     21  C   UNL d   1       3.784   0.735   0.000  0.00  0.00     0.029 A 
ATOM     22  C   UNL d   1       3.212   0.146   0.000  0.00  0.00     0.028 A 
ENDBRANCH  17  18
ENDBRANCH  16  17
ENDBRANCH  14  16
ENDBRANCH   1  14
TORSDOF 7
