REMARK  6 active torsions:
REMARK  status: ('A' for Active; 'I' for Inactive)
REMARK    1  A    between atoms: S_11  and  C_2 
REMARK    2  A    between atoms: C_5  and  N_8 
REMARK       I    between atoms: N_8  and  C_13 
REMARK    3  A    between atoms: C_17  and  C_10 
REMARK    4  A    between atoms: C_16  and  S_11 
REMARK    5  A    between atoms: C_13  and  C_16 
REMARK    6  A    between atoms: C_18  and  C_17 
ROOT
ATOM      1  C   UNL d   1       3.073  -1.966   0.000  0.00  0.00     0.197 A 
ATOM      2  N   UNL d   1       2.653  -1.254   0.000  0.00  0.00    -0.219 NA
ATOM      3  S   UNL d   1       2.515  -2.578   0.000  0.00  0.00    -0.047 SA
ATOM      4  C   UNL d   1       1.766  -2.249   0.000  0.00  0.00     0.051 A 
ATOM      5  C   UNL d   1       1.853  -1.428   0.000  0.00  0.00     0.108 A 
ENDROOT
BRANCH   1   6
ATOM      6  N   UNL d   1       3.890  -2.053   0.000  0.00  0.00    -0.182 NA
ATOM      7  C   UNL d   1       4.377  -1.387   0.000  0.00  0.00     0.288 C 
ATOM      8  O   UNL d   1       4.040  -0.629   0.000  0.00  0.00    -0.265 OA
BRANCH   7   9
ATOM      9  C   UNL d   1       5.197  -1.466   0.000  0.00  0.00     0.101 C 
BRANCH   9  10
ATOM     10  S   UNL d   1       5.676  -0.804   0.000  0.00  0.00    -0.041 SA
BRANCH  10  11
ATOM     11  C   UNL d   1       6.501  -0.887   0.000  0.00  0.00     0.219 A 
ATOM     12  N   UNL d   1       6.913  -1.599   0.000  0.00  0.00    -0.167 N 
ATOM     13  C   UNL d   1       7.713  -1.428   0.000  0.00  0.00     0.189 A 
ATOM     14  N   UNL d   1       6.576  -2.353   0.000  0.00  0.00    -0.038 N 
ATOM     15  N   UNL d   1       7.800  -0.604   0.000  0.00  0.00    -0.126 NA
ATOM     16  C   UNL d   1       8.333  -1.978   0.000  0.00  0.00     0.044 C 
ATOM     17  N   UNL d   1       7.050  -0.275   0.000  0.00  0.00    -0.120 NA
ENDBRANCH  10  11
ENDBRANCH   9  10
ENDBRANCH   7   9
ENDBRANCH   1   6
BRANCH   4  18
ATOM     18  C   UNL d   1       1.054  -2.665   0.000  0.00  0.00     0.008 C 
BRANCH  18  19
ATOM     19  C   UNL d   1       0.342  -2.253   0.000  0.00  0.00     0.001 A 
ATOM     20  C   UNL d   1      -0.375  -2.665   0.000  0.00  0.00     0.002 A 
ATOM     21  C   UNL d   1      -1.087  -2.253   0.000  0.00  0.00     0.030 A 
ATOM     22  C   UNL d   1      -1.087  -1.424   0.000  0.00  0.00     0.140 A 
ATOM     23  C   UNL d   1      -0.375  -1.012   0.000  0.00  0.00     0.030 A 
ATOM     24  F   UNL d   1      -1.799  -1.016   0.000  0.00  0.00    -0.204 F 
ATOM     25  C   UNL d   1       0.342  -1.424   0.000  0.00  0.00     0.002 A 
ENDBRANCH  18  19
ENDBRANCH   4  18
TORSDOF 6
