REMARK  5 active torsions:
REMARK  status: ('A' for Active; 'I' for Inactive)
REMARK    1  A    between atoms: C_12  and  C_3 
REMARK    2  A    between atoms: C_13  and  N_5 
REMARK    3  A    between atoms: C_11  and  C_6 
REMARK    4  A    between atoms: O_24  and  C_12 
REMARK    5  A    between atoms: C_14  and  C_13 
ROOT
ATOM      1  C   UNL d   1       5.491  -7.232   0.000  0.00  0.00     0.080 A 
ATOM      2  C   UNL d   1       5.491  -8.067   0.000  0.00  0.00     0.267 A 
ATOM      3  C   UNL d   1       6.205  -6.000   0.000  0.00  0.00     0.106 A 
ATOM      4  C   UNL d   1       4.777  -6.827   0.000  0.00  0.00     0.108 A 
ATOM      5  N   UNL d   1       4.772  -8.484   0.000  0.00  0.00    -0.271 N 
ATOM      6  C   UNL d   1       6.205  -6.818   0.000  0.00  0.00     0.015 A 
ATOM      7  C   UNL d   1       5.486  -5.587   0.000  0.00  0.00     0.208 A 
ATOM      8  O   UNL d   1       4.772  -6.000   0.000  0.00  0.00    -0.288 OA
ATOM      9  C   UNL d   1       4.058  -7.232   0.000  0.00  0.00     0.043 A 
ATOM     10  C   UNL d   1       4.050  -8.058   0.000  0.00  0.00     0.069 A 
ATOM     11  O   UNL d   1       6.213  -8.484   0.000  0.00  0.00    -0.267 OA
ATOM     12  N   UNL d   1       5.486  -4.760   0.000  0.00  0.00    -0.121 N 
ATOM     13  C   UNL d   1       3.324  -8.472   0.000  0.00  0.00     0.019 C 
ENDROOT
BRANCH   6  14
ATOM     14  C   UNL d   1       6.918  -7.232   0.000  0.00  0.00     0.001 A 
ATOM     15  C   UNL d   1       7.633  -6.818   0.000  0.00  0.00     0.011 A 
ATOM     16  C   UNL d   1       8.347  -7.227   0.000  0.00  0.00     0.058 A 
ATOM     17 CL   UNL d   1       9.060  -6.806   0.000  0.00  0.00    -0.082 Cl
ATOM     18  C   UNL d   1       8.347  -8.058   0.000  0.00  0.00     0.011 A 
ATOM     19  C   UNL d   1       7.633  -8.472   0.000  0.00  0.00     0.001 A 
ATOM     20  C   UNL d   1       6.918  -8.058   0.000  0.00  0.00     0.000 A 
ENDBRANCH   6  14
BRANCH   3  21
ATOM     21  C   UNL d   1       6.918  -5.587   0.000  0.00  0.00     0.299 C 
ATOM     22  O   UNL d   1       7.633  -5.992   0.000  0.00  0.00    -0.259 OA
BRANCH  21  23
ATOM     23  O   UNL d   1       6.918  -4.760   0.000  0.00  0.00    -0.296 OA
ATOM     24  C   UNL d   1       7.633  -4.338   0.000  0.00  0.00     0.185 C 
ENDBRANCH  21  23
ENDBRANCH   3  21
BRANCH   5  25
ATOM     25  C   UNL d   1       4.772  -9.311   0.000  0.00  0.00     0.108 C 
BRANCH  25  26
ATOM     26  C   UNL d   1       5.486  -9.724   0.000  0.00  0.00     0.118 A 
ATOM     27  O   UNL d   1       5.574 -10.547   0.000  0.00  0.00    -0.304 OA
ATOM     28  C   UNL d   1       6.380 -10.722   0.000  0.00  0.00     0.123 A 
ATOM     29  C   UNL d   1       6.793 -10.008   0.000  0.00  0.00     0.029 A 
ATOM     30  C   UNL d   1       6.242  -9.386   0.000  0.00  0.00     0.028 A 
ENDBRANCH  25  26
ENDBRANCH   5  25
TORSDOF 5
