REMARK  7 active torsions:
REMARK  status: ('A' for Active; 'I' for Inactive)
REMARK    1  A    between atoms: N_3  and  C_2 
REMARK       I    between atoms: C_6  and  N_3 
REMARK    2  A    between atoms: C_11  and  C_4 
REMARK    3  A    between atoms: C_5  and  C_6 
REMARK    4  A    between atoms: C_15  and  C_11 
REMARK    5  A    between atoms: C_18  and  C_12 
REMARK    6  A    between atoms: O_17  and  C_18 
REMARK    7  A    between atoms: C_19  and  O_17 
ROOT
ATOM      1  C   UNL d   1       5.162  -0.992   0.000  0.00  0.00     0.158 A 
ATOM      2  O   UNL d   1       4.612  -1.604   0.000  0.00  0.00    -0.300 OA
ATOM      3  C   UNL d   1       4.750  -0.279   0.000  0.00  0.00     0.032 A 
ATOM      4  C   UNL d   1       3.854  -1.275   0.000  0.00  0.00     0.125 A 
ATOM      5  C   UNL d   1       3.942  -0.454   0.000  0.00  0.00     0.029 A 
ENDROOT
BRANCH   1   6
ATOM      6  C   UNL d   1       5.987  -1.075   0.000  0.00  0.00     0.304 C 
ATOM      7  N   UNL d   1       6.325  -1.829   0.000  0.00  0.00    -0.180 NA
ATOM      8  O   UNL d   1       6.467  -0.404   0.000  0.00  0.00    -0.263 OA
BRANCH   7   9
ATOM      9  C   UNL d   1       7.142  -1.913   0.000  0.00  0.00     0.216 A 
ATOM     10  N   UNL d   1       7.567  -2.638   0.000  0.00  0.00    -0.200 NA
ATOM     11  C   UNL d   1       8.354  -2.462   0.000  0.00  0.00     0.175 A 
ATOM     12  N   UNL d   1       8.442  -1.642   0.000  0.00  0.00    -0.187 NA
ATOM     13  S   UNL d   1       7.692  -1.304   0.000  0.00  0.00     0.054 SA
BRANCH  11  14
ATOM     14  C   UNL d   1       8.975  -3.004   0.000  0.00  0.00     0.082 C 
BRANCH  14  15
ATOM     15  C   UNL d   1       8.804  -3.817   0.000  0.00  0.00     0.199 C 
ATOM     16  O   UNL d   1       8.025  -4.079   0.000  0.00  0.00    -0.286 OA
ATOM     17  C   UNL d   1       9.425  -4.367   0.000  0.00  0.00     0.045 C 
ENDBRANCH  14  15
ENDBRANCH  11  14
ENDBRANCH   7   9
ENDBRANCH   1   6
BRANCH   4  18
ATOM     18  C   UNL d   1       3.150  -1.692   0.000  0.00  0.00     0.147 C 
BRANCH  18  19
ATOM     19  O   UNL d   1       2.429  -1.279   0.000  0.00  0.00    -0.303 OA
BRANCH  19  20
ATOM     20  C   UNL d   1       1.717  -1.692   0.000  0.00  0.00     0.100 A 
ATOM     21  C   UNL d   1       1.725  -2.517   0.000  0.00  0.00     0.025 A 
ATOM     22  C   UNL d   1       1.017  -2.929   0.000  0.00  0.00     0.002 A 
ATOM     23  C   UNL d   1       0.292  -2.517   0.000  0.00  0.00     0.000 A 
ATOM     24  C   UNL d   1       0.292  -1.692   0.000  0.00  0.00     0.002 A 
ATOM     25  C   UNL d   1      -0.421  -2.938   0.000  0.00  0.00     0.000 C 
ATOM     26  C   UNL d   1       1.004  -1.279   0.000  0.00  0.00     0.025 A 
ENDBRANCH  19  20
ENDBRANCH  18  19
ENDBRANCH   4  18
TORSDOF 7
