REMARK  5 active torsions:
REMARK  status: ('A' for Active; 'I' for Inactive)
REMARK    1  A    between atoms: C_11  and  C_3 
REMARK    2  A    between atoms: C_13  and  N_5 
REMARK    3  A    between atoms: C_12  and  C_7 
REMARK    4  A    between atoms: O_21  and  C_11 
REMARK    5  A    between atoms: C_20  and  C_13 
ROOT
ATOM      1  C   UNL d   1       5.067  -6.175   0.000  0.00  0.00     0.080 A 
ATOM      2  C   UNL d   1       5.067  -7.004   0.000  0.00  0.00     0.267 A 
ATOM      3  C   UNL d   1       5.775  -4.942   0.000  0.00  0.00     0.106 A 
ATOM      4  C   UNL d   1       4.350  -5.767   0.000  0.00  0.00     0.108 A 
ATOM      5  N   UNL d   1       4.342  -7.417   0.000  0.00  0.00    -0.271 N 
ATOM      6  C   UNL d   1       5.054  -4.529   0.000  0.00  0.00     0.208 A 
ATOM      7  C   UNL d   1       5.775  -5.763   0.000  0.00  0.00     0.015 A 
ATOM      8  O   UNL d   1       4.342  -4.942   0.000  0.00  0.00    -0.288 OA
ATOM      9  C   UNL d   1       3.629  -6.167   0.000  0.00  0.00     0.043 A 
ATOM     10  C   UNL d   1       3.629  -6.992   0.000  0.00  0.00     0.069 A 
ATOM     11  O   UNL d   1       5.779  -7.425   0.000  0.00  0.00    -0.267 OA
ATOM     12  N   UNL d   1       5.054  -3.704   0.000  0.00  0.00    -0.121 N 
ATOM     13  C   UNL d   1       2.900  -7.412   0.000  0.00  0.00     0.019 C 
ENDROOT
BRANCH   7  14
ATOM     14  C   UNL d   1       6.487  -6.175   0.000  0.00  0.00     0.001 A 
ATOM     15  C   UNL d   1       7.200  -5.754   0.000  0.00  0.00     0.001 A 
ATOM     16  C   UNL d   1       7.912  -6.167   0.000  0.00  0.00     0.011 A 
ATOM     17  C   UNL d   1       7.917  -6.992   0.000  0.00  0.00     0.058 A 
ATOM     18  C   UNL d   1       7.200  -7.412   0.000  0.00  0.00     0.011 A 
ATOM     19 CL   UNL d   1       8.629  -7.404   0.000  0.00  0.00    -0.082 Cl
ATOM     20  C   UNL d   1       6.487  -7.000   0.000  0.00  0.00     0.001 A 
ENDBRANCH   7  14
BRANCH   3  21
ATOM     21  C   UNL d   1       6.487  -4.529   0.000  0.00  0.00     0.299 C 
ATOM     22  O   UNL d   1       7.204  -4.938   0.000  0.00  0.00    -0.259 OA
BRANCH  21  23
ATOM     23  O   UNL d   1       6.487  -3.704   0.000  0.00  0.00    -0.296 OA
ATOM     24  C   UNL d   1       7.200  -3.288   0.000  0.00  0.00     0.185 C 
ENDBRANCH  21  23
ENDBRANCH   3  21
BRANCH   5  25
ATOM     25  C   UNL d   1       4.342  -8.242   0.000  0.00  0.00     0.108 C 
BRANCH  25  26
ATOM     26  C   UNL d   1       5.054  -8.654   0.000  0.00  0.00     0.118 A 
ATOM     27  O   UNL d   1       5.142  -9.479   0.000  0.00  0.00    -0.304 OA
ATOM     28  C   UNL d   1       5.950  -9.654   0.000  0.00  0.00     0.123 A 
ATOM     29  C   UNL d   1       6.367  -8.942   0.000  0.00  0.00     0.029 A 
ATOM     30  C   UNL d   1       5.817  -8.325   0.000  0.00  0.00     0.028 A 
ENDBRANCH  25  26
ENDBRANCH   5  25
TORSDOF 5
