REMARK  5 active torsions:
REMARK  status: ('A' for Active; 'I' for Inactive)
REMARK    1  A    between atoms: C_4  and  C_1 
REMARK    2  A    between atoms: C_3  and  N_8 
REMARK       I    between atoms: N_8  and  C_4 
REMARK    3  A    between atoms: C_13  and  C_6 
REMARK    4  A    between atoms: C_14  and  C_10 
REMARK    5  A    between atoms: C_20  and  C_14 
ROOT
ATOM      1  C   UNL d   1       1.244  -1.757   0.000  0.00  0.00     0.083 A 
ATOM      2  C   UNL d   1       0.432  -1.938   0.000  0.00  0.00     0.032 A 
ATOM      3  C   UNL d   1       0.356  -2.754   0.000  0.00  0.00     0.100 A 
ATOM      4  C   UNL d   1       1.657  -2.479   0.000  0.00  0.00     0.105 A 
ATOM      5  O   UNL d   1       1.102  -3.091   0.000  0.00  0.00    -0.307 OA
ATOM      6  C   UNL d   1       2.479  -2.555   0.000  0.00  0.00     0.027 C 
ENDROOT
BRANCH   1   7
ATOM      7  C   UNL d   1       1.581  -1.002   0.000  0.00  0.00     0.283 C 
ATOM      8  N   UNL d   1       2.393  -0.916   0.000  0.00  0.00    -0.181 NA
ATOM      9  O   UNL d   1       1.087  -0.342   0.000  0.00  0.00    -0.265 OA
BRANCH   8  10
ATOM     10  C   UNL d   1       2.726  -0.162   0.000  0.00  0.00     0.216 A 
ATOM     11  N   UNL d   1       2.313   0.541   0.000  0.00  0.00    -0.200 NA
ATOM     12  C   UNL d   1       2.854   1.154   0.000  0.00  0.00     0.175 A 
ATOM     13  N   UNL d   1       3.609   0.822   0.000  0.00  0.00    -0.187 NA
ATOM     14  S   UNL d   1       3.524   0.009   0.000  0.00  0.00     0.054 SA
BRANCH  12  15
ATOM     15  C   UNL d   1       2.683   1.952   0.000  0.00  0.00     0.082 C 
BRANCH  15  16
ATOM     16  C   UNL d   1       3.296   2.502   0.000  0.00  0.00     0.199 C 
ATOM     17  O   UNL d   1       4.079   2.251   0.000  0.00  0.00    -0.286 OA
ATOM     18  C   UNL d   1       3.125   3.305   0.000  0.00  0.00     0.045 C 
ENDBRANCH  15  16
ENDBRANCH  12  15
ENDBRANCH   8  10
ENDBRANCH   1   7
BRANCH   3  19
ATOM     19  C   UNL d   1      -0.351  -3.167   0.000  0.00  0.00     0.024 A 
ATOM     20  C   UNL d   1      -1.069  -2.754   0.000  0.00  0.00     0.014 A 
ATOM     21  C   UNL d   1      -1.781  -3.177   0.000  0.00  0.00     0.068 A 
ATOM     22 CL   UNL d   1      -2.493  -2.764   0.000  0.00  0.00    -0.082 Cl
ATOM     23  C   UNL d   1      -1.781  -4.003   0.000  0.00  0.00     0.068 A 
ATOM     24  C   UNL d   1      -1.069  -4.416   0.000  0.00  0.00     0.012 A 
ATOM     25 CL   UNL d   1      -2.502  -4.416   0.000  0.00  0.00    -0.082 Cl
ATOM     26  C   UNL d   1      -0.351  -4.003   0.000  0.00  0.00     0.003 A 
ENDBRANCH   3  19
TORSDOF 5
