REMARK  6 active torsions:
REMARK  status: ('A' for Active; 'I' for Inactive)
REMARK    1  A    between atoms: C_3  and  N_1 
REMARK       I    between atoms: C_2  and  N_5 
REMARK       I    between atoms: N_10  and  C_2 
REMARK    2  A    between atoms: N_5  and  C_8 
REMARK    3  A    between atoms: C_17  and  N_10 
REMARK    4  A    between atoms: O_18  and  C_11 
REMARK    5  A    between atoms: C_12  and  C_22 
REMARK    6  A    between atoms: C_22  and  C_17 
ROOT
ATOM      1  C   UNL d   1       2.122  -2.757   0.000  0.00  0.00     0.369 C 
ATOM      2  N   UNL d   1       2.708  -2.172   0.000  0.00  0.00    -0.191 NA
ATOM      3  O   UNL d   1       2.342  -3.555   0.000  0.00  0.00    -0.242 OA
ATOM      4  N   UNL d   1       1.337  -2.546   0.000  0.00  0.00    -0.189 NA
ENDROOT
BRANCH   2   5
ATOM      5  C   UNL d   1       3.505  -2.384   0.000  0.00  0.00     0.088 A 
ATOM      6  C   UNL d   1       4.086  -1.806   0.000  0.00  0.00     0.043 A 
ATOM      7  C   UNL d   1       4.875  -2.010   0.000  0.00  0.00     0.128 A 
ATOM      8  C   UNL d   1       5.096  -2.807   0.000  0.00  0.00     0.024 A 
ATOM      9  C   UNL d   1       4.514  -3.393   0.000  0.00  0.00     0.003 A 
ATOM     10  C   UNL d   1       3.717  -3.181   0.000  0.00  0.00     0.019 A 
BRANCH   7  11
ATOM     11  N   UNL d   1       5.461  -1.425   0.000  0.00  0.00    -0.114 N 
ATOM     12  O   UNL d   1       6.254  -1.636   0.000  0.00  0.00    -0.532 OA
ATOM     13  O   UNL d   1       5.245  -0.635   0.000  0.00  0.00    -0.532 OA
ENDBRANCH   7  11
ENDBRANCH   2   5
BRANCH   4  14
ATOM     14  C   UNL d   1       0.752  -3.131   0.000  0.00  0.00     0.104 C 
BRANCH  14  15
ATOM     15  C   UNL d   1      -0.046  -2.920   0.000  0.00  0.00     0.021 C 
BRANCH  15  16
ATOM     16  C   UNL d   1      -0.623  -3.501   0.000  0.00  0.00     0.002 A 
ATOM     17  C   UNL d   1      -1.416  -3.289   0.000  0.00  0.00     0.002 A 
ATOM     18  C   UNL d   1      -2.002  -3.875   0.000  0.00  0.00     0.024 A 
ATOM     19  C   UNL d   1      -1.782  -4.664   0.000  0.00  0.00     0.094 A 
ATOM     20  C   UNL d   1      -0.993  -4.875   0.000  0.00  0.00     0.024 A 
ATOM     21  C   UNL d   1      -0.407  -4.290   0.000  0.00  0.00     0.002 A 
BRANCH  19  22
ATOM     22  O   UNL d   1      -2.363  -5.249   0.000  0.00  0.00    -0.328 OA
ATOM     23  C   UNL d   1      -3.160  -5.037   0.000  0.00  0.00     0.181 C 
ENDBRANCH  19  22
ENDBRANCH  15  16
ENDBRANCH  14  15
ENDBRANCH   4  14
TORSDOF 6
