REMARK  2 active torsions:
REMARK  status: ('A' for Active; 'I' for Inactive)
REMARK    1  A    between atoms: C_9  and  N_2 
REMARK    2  A    between atoms: C_7  and  C_4 
ROOT
ATOM      1  C   UNL d   1       3.013  -0.779   0.000  0.00  0.00     0.136 A 
ATOM      2  N   UNL d   1       3.729  -1.192   0.000  0.00  0.00    -0.281 N 
ATOM      3  C   UNL d   1       2.300  -1.200   0.000  0.00  0.00     0.152 A 
ATOM      4  C   UNL d   1       3.729  -2.025   0.000  0.00  0.00     0.175 A 
ATOM      5  N   UNL d   1       3.013  -2.438   0.000  0.00  0.00    -0.188 NA
ATOM      6  C   UNL d   1       2.300  -2.025   0.000  0.00  0.00     0.292 A 
ATOM      7  C   UNL d   1       1.587  -0.787   0.000  0.00  0.00     0.108 C 
ATOM      8  N   UNL d   1       0.867  -0.375   0.000  0.00  0.00    -0.191 NA
ATOM      9  S   UNL d   1       3.004   0.046   0.000  0.00  0.00    -0.058 SA
ATOM     10  O   UNL d   1       1.579  -2.438   0.000  0.00  0.00    -0.264 OA
ENDROOT
BRANCH   2  11
ATOM     11  C   UNL d   1       4.438  -0.779   0.000  0.00  0.00     0.066 A 
ATOM     12  C   UNL d   1       4.429   0.046   0.000  0.00  0.00     0.020 A 
ATOM     13  C   UNL d   1       5.142   0.458   0.000  0.00  0.00     0.031 A 
ATOM     14  C   UNL d   1       5.862   0.050   0.000  0.00  0.00     0.140 A 
ATOM     15  C   UNL d   1       5.867  -0.779   0.000  0.00  0.00     0.031 A 
ATOM     16  F   UNL d   1       6.575   0.471   0.000  0.00  0.00    -0.204 F 
ATOM     17  C   UNL d   1       5.154  -1.192   0.000  0.00  0.00     0.020 A 
ENDBRANCH   2  11
BRANCH   4  18
ATOM     18  C   UNL d   1       4.442  -2.438   0.000  0.00  0.00     0.135 A 
ATOM     19  O   UNL d   1       5.192  -2.104   0.000  0.00  0.00    -0.302 OA
ATOM     20  C   UNL d   1       5.737  -2.717   0.000  0.00  0.00     0.123 A 
ATOM     21  C   UNL d   1       5.325  -3.429   0.000  0.00  0.00     0.029 A 
ATOM     22  C   UNL d   1       4.529  -3.267   0.000  0.00  0.00     0.030 A 
ENDBRANCH   4  18
TORSDOF 2
