REMARK  5 active torsions:
REMARK  status: ('A' for Active; 'I' for Inactive)
REMARK    1  A    between atoms: C_11  and  N_2 
REMARK    2  A    between atoms: C_6  and  O_13 
REMARK    3  A    between atoms: C_12  and  C_7 
REMARK    4  A    between atoms: C_16  and  C_11 
REMARK    5  A    between atoms: O_13  and  C_16 
ROOT
ATOM      1  C   UNL d   1       5.847  -4.152   0.000  0.00  0.00     0.142 C 
ENDROOT
BRANCH   1   2
ATOM      2  O   UNL d   1       6.251  -3.436   0.000  0.00  0.00    -0.304 OA
BRANCH   2   3
ATOM      3  C   UNL d   1       7.076  -3.436   0.000  0.00  0.00     0.100 A 
ATOM      4  C   UNL d   1       7.488  -2.724   0.000  0.00  0.00     0.023 A 
ATOM      5  C   UNL d   1       8.308  -2.715   0.000  0.00  0.00     0.002 A 
ATOM      6  C   UNL d   1       8.725  -3.436   0.000  0.00  0.00     0.000 A 
ATOM      7  C   UNL d   1       8.313  -4.152   0.000  0.00  0.00     0.002 A 
ATOM      8  C   UNL d   1       7.488  -4.152   0.000  0.00  0.00     0.025 A 
ATOM      9  C   UNL d   1       8.725  -4.864   0.000  0.00  0.00     0.000 C 
BRANCH   4  10
ATOM     10  C   UNL d   1       7.072  -2.011   0.000  0.00  0.00     0.002 C 
ATOM     11  C   UNL d   1       7.476  -1.291   0.000  0.00  0.00     0.000 C 
ATOM     12  C   UNL d   1       6.247  -2.011   0.000  0.00  0.00     0.000 C 
ENDBRANCH   4  10
ENDBRANCH   2   3
ENDBRANCH   1   2
BRANCH   1  13
ATOM     13  C   UNL d   1       5.022  -4.152   0.000  0.00  0.00     0.112 C 
BRANCH  13  14
ATOM     14  N   UNL d   1       4.614  -4.864   0.000  0.00  0.00    -0.249 N 
ATOM     15  C   UNL d   1       5.102  -5.539   0.000  0.00  0.00     0.378 A 
ATOM     16  O   UNL d   1       4.623  -6.214   0.000  0.00  0.00    -0.258 OA
ATOM     17  O   UNL d   1       5.926  -5.527   0.000  0.00  0.00    -0.237 OA
ATOM     18  C   UNL d   1       3.827  -5.960   0.000  0.00  0.00     0.121 A 
ATOM     19  C   UNL d   1       3.111  -6.372   0.000  0.00  0.00     0.026 A 
ATOM     20  C   UNL d   1       3.827  -5.127   0.000  0.00  0.00     0.092 A 
ATOM     21  C   UNL d   1       2.399  -5.960   0.000  0.00  0.00     0.002 A 
ATOM     22  C   UNL d   1       2.399  -5.135   0.000  0.00  0.00     0.002 A 
ATOM     23  C   UNL d   1       3.111  -4.714   0.000  0.00  0.00     0.020 A 
ENDBRANCH  13  14
ENDBRANCH   1  13
TORSDOF 5
