REMARK  9 active torsions:
REMARK  status: ('A' for Active; 'I' for Inactive)
REMARK    1  A    between atoms: C_11  and  C_3 
REMARK    2  A    between atoms: C_12  and  N_6 
REMARK    3  A    between atoms: C_15  and  C_7 
REMARK    4  A    between atoms: O_24  and  C_11 
REMARK    5  A    between atoms: C_23  and  C_12 
REMARK    6  A    between atoms: O_26  and  C_14 
REMARK    7  A    between atoms: O_28  and  C_17 
REMARK    8  A    between atoms: C_22  and  C_23 
REMARK    9  A    between atoms: C_32  and  O_24 
ROOT
ATOM      1  C   UNL d   1       5.087  -4.776   0.000  0.00  0.00     0.080 A 
ATOM      2  C   UNL d   1       5.070  -5.605   0.000  0.00  0.00     0.267 A 
ATOM      3  C   UNL d   1       5.845  -3.571   0.000  0.00  0.00     0.107 A 
ATOM      4  C   UNL d   1       4.391  -4.341   0.000  0.00  0.00     0.108 A 
ATOM      5  C   UNL d   1       5.149  -3.136   0.000  0.00  0.00     0.208 A 
ATOM      6  N   UNL d   1       4.341  -5.994   0.000  0.00  0.00    -0.273 N 
ATOM      7  C   UNL d   1       5.816  -4.399   0.000  0.00  0.00     0.017 A 
ATOM      8  O   UNL d   1       4.416  -3.521   0.000  0.00  0.00    -0.288 OA
ATOM      9  C   UNL d   1       3.658  -4.739   0.000  0.00  0.00     0.043 A 
ATOM     10  C   UNL d   1       3.641  -5.567   0.000  0.00  0.00     0.069 A 
ATOM     11  O   UNL d   1       5.771  -6.040   0.000  0.00  0.00    -0.267 OA
ATOM     12  N   UNL d   1       5.174  -2.312   0.000  0.00  0.00    -0.121 N 
ATOM     13  C   UNL d   1       2.912  -5.957   0.000  0.00  0.00     0.019 C 
ENDROOT
BRANCH   6  14
ATOM     14  C   UNL d   1       4.325  -6.823   0.000  0.00  0.00     0.083 C 
BRANCH  14  15
ATOM     15  C   UNL d   1       3.596  -7.212   0.000  0.00  0.00     0.019 C 
BRANCH  15  16
ATOM     16  C   UNL d   1       3.596  -8.041   0.000  0.00  0.00     0.004 A 
ATOM     17  C   UNL d   1       4.300  -8.443   0.000  0.00  0.00     0.026 A 
ATOM     18  C   UNL d   1       4.300  -9.263   0.000  0.00  0.00     0.116 A 
ATOM     19  C   UNL d   1       3.579  -9.681   0.000  0.00  0.00     0.116 A 
ATOM     20  C   UNL d   1       2.871  -9.263   0.000  0.00  0.00     0.026 A 
ATOM     21  C   UNL d   1       2.875  -8.443   0.000  0.00  0.00     0.002 A 
BRANCH  18  22
ATOM     22  O   UNL d   1       5.013  -9.685   0.000  0.00  0.00    -0.326 OA
ATOM     23  C   UNL d   1       5.721  -9.275   0.000  0.00  0.00     0.181 C 
ENDBRANCH  18  22
BRANCH  19  24
ATOM     24  O   UNL d   1       3.571 -10.505   0.000  0.00  0.00    -0.326 OA
ATOM     25  C   UNL d   1       2.858 -10.911   0.000  0.00  0.00     0.181 C 
ENDBRANCH  19  24
ENDBRANCH  15  16
ENDBRANCH  14  15
ENDBRANCH   6  14
BRANCH   7  26
ATOM     26  C   UNL d   1       6.516  -4.834   0.000  0.00  0.00     0.020 A 
ATOM     27  C   UNL d   1       7.237  -4.449   0.000  0.00  0.00     0.099 A 
ATOM     28  N   UNL d   1       7.933  -4.876   0.000  0.00  0.00    -0.242 NA
ATOM     29  C   UNL d   1       7.908  -5.708   0.000  0.00  0.00     0.099 A 
ATOM     30  C   UNL d   1       7.175  -6.094   0.000  0.00  0.00     0.021 A 
ATOM     31  C   UNL d   1       6.479  -5.659   0.000  0.00  0.00     0.003 A 
ENDBRANCH   7  26
BRANCH   3  32
ATOM     32  C   UNL d   1       6.578  -3.186   0.000  0.00  0.00     0.304 C 
ATOM     33  O   UNL d   1       7.274  -3.621   0.000  0.00  0.00    -0.259 OA
BRANCH  32  34
ATOM     34  O   UNL d   1       6.603  -2.365   0.000  0.00  0.00    -0.271 OA
BRANCH  34  35
ATOM     35  C   UNL d   1       7.320  -1.951   0.000  0.00  0.00     0.126 C 
ATOM     36  C   UNL d   1       7.312  -1.131   0.000  0.00  0.00     0.029 C 
ENDBRANCH  34  35
ENDBRANCH  32  34
ENDBRANCH   3  32
TORSDOF 9
