REMARK  6 active torsions:
REMARK  status: ('A' for Active; 'I' for Inactive)
REMARK       I    between atoms: N_2  and  C_1 
REMARK       I    between atoms: N_7  and  C_1 
REMARK    1  A    between atoms: C_4  and  N_2 
REMARK       I    between atoms: C_3  and  N_8 
REMARK    2  A    between atoms: C_6  and  C_3 
REMARK    3  A    between atoms: N_5  and  C_12 
REMARK    4  A    between atoms: C_12  and  C_6 
REMARK    5  A    between atoms: N_8  and  N_7 
REMARK    6  A    between atoms: O_14  and  C_10 
ROOT
ATOM      1  C   UNL d   1       2.122  -2.757   0.000  0.00  0.00     0.387 C 
ATOM      2  N   UNL d   1       2.708  -2.172   0.000  0.00  0.00    -0.188 NA
ATOM      3  N   UNL d   1       1.337  -2.546   0.000  0.00  0.00    -0.085 NA
ATOM      4  O   UNL d   1       2.342  -3.555   0.000  0.00  0.00    -0.241 OA
ENDROOT
BRANCH   3   5
ATOM      5  N   UNL d   1       0.752  -3.131   0.000  0.00  0.00    -0.101 NA
ATOM      6  C   UNL d   1      -0.046  -2.920   0.000  0.00  0.00     0.298 C 
ATOM      7  O   UNL d   1      -0.257  -2.122   0.000  0.00  0.00    -0.264 OA
BRANCH   6   8
ATOM      8  C   UNL d   1      -0.623  -3.505   0.000  0.00  0.00     0.083 C 
BRANCH   8   9
ATOM      9  C   UNL d   1      -1.416  -3.293   0.000  0.00  0.00     0.085 C 
BRANCH   9  10
ATOM     10  N   UNL d   1      -2.002  -3.875   0.000  0.00  0.00    -0.299 N 
ATOM     11  C   UNL d   1      -1.790  -4.664   0.000  0.00  0.00     0.107 A 
ATOM     12  C   UNL d   1      -2.375  -5.245   0.000  0.00  0.00     0.142 A 
ATOM     13  O   UNL d   1      -3.173  -5.025   0.000  0.00  0.00    -0.300 OA
ATOM     14  C   UNL d   1      -3.385  -4.228   0.000  0.00  0.00     0.142 A 
ATOM     15  C   UNL d   1      -2.799  -3.655   0.000  0.00  0.00     0.107 A 
ENDBRANCH   9  10
ENDBRANCH   8   9
ENDBRANCH   6   8
ENDBRANCH   3   5
BRANCH   2  16
ATOM     16  C   UNL d   1       3.505  -2.384   0.000  0.00  0.00     0.108 A 
ATOM     17  C   UNL d   1       4.086  -1.806   0.000  0.00  0.00     0.112 A 
ATOM     18  C   UNL d   1       4.875  -2.010   0.000  0.00  0.00     0.026 A 
ATOM     19  C   UNL d   1       5.096  -2.807   0.000  0.00  0.00     0.002 A 
ATOM     20  C   UNL d   1       4.514  -3.393   0.000  0.00  0.00     0.002 A 
ATOM     21  C   UNL d   1       3.717  -3.181   0.000  0.00  0.00     0.021 A 
BRANCH  17  22
ATOM     22  O   UNL d   1       3.866  -1.013   0.000  0.00  0.00    -0.327 OA
ATOM     23  C   UNL d   1       4.452  -0.428   0.000  0.00  0.00     0.181 C 
ENDBRANCH  17  22
ENDBRANCH   2  16
TORSDOF 6
