REMARK  6 active torsions:
REMARK  status: ('A' for Active; 'I' for Inactive)
REMARK    1  A    between atoms: C_5  and  C_1 
REMARK    2  A    between atoms: O_8  and  C_5 
REMARK    3  A    between atoms: C_9  and  O_8 
REMARK    4  A    between atoms: C_14  and  C_10 
REMARK    5  A    between atoms: O_20  and  C_11 
REMARK    6  A    between atoms: O_21  and  C_16 
ROOT
ATOM      1  C   UNL d   1       2.284   0.722   0.000  0.00  0.00     0.305 C 
ATOM      2  O   UNL d   1       2.284   1.549   0.000  0.00  0.00    -0.259 OA
ENDROOT
BRANCH   1   3
ATOM      3  C   UNL d   1       3.006   0.309   0.000  0.00  0.00     0.127 A 
ATOM      4  C   UNL d   1       2.998  -0.526   0.000  0.00  0.00     0.305 A 
ATOM      5  O   UNL d   1       3.712  -0.939   0.000  0.00  0.00    -0.271 OA
ATOM      6  O   UNL d   1       2.284  -0.931   0.000  0.00  0.00    -0.259 OA
ATOM      7  C   UNL d   1       4.426  -0.526   0.000  0.00  0.00     0.125 A 
ATOM      8  C   UNL d   1       4.434   0.301   0.000  0.00  0.00     0.025 A 
ATOM      9  C   UNL d   1       5.140  -0.939   0.000  0.00  0.00     0.117 A 
ATOM     10  C   UNL d   1       3.712   0.722   0.000  0.00  0.00     0.013 A 
ATOM     11  C   UNL d   1       5.148   0.710   0.000  0.00  0.00     0.002 A 
ATOM     12  C   UNL d   1       5.854   0.296   0.000  0.00  0.00     0.002 A 
ATOM     13  C   UNL d   1       5.854  -0.530   0.000  0.00  0.00     0.026 A 
BRANCH   9  14
ATOM     14  O   UNL d   1       5.136  -1.758   0.000  0.00  0.00    -0.326 OA
ATOM     15  C   UNL d   1       5.850  -2.179   0.000  0.00  0.00     0.181 C 
ENDBRANCH   9  14
ENDBRANCH   1   3
BRANCH   1  16
ATOM     16  O   UNL d   1       1.570   0.309   0.000  0.00  0.00    -0.271 OA
BRANCH  16  17
ATOM     17  C   UNL d   1       0.856   0.722   0.000  0.00  0.00     0.126 A 
ATOM     18  C   UNL d   1       0.142   0.309   0.000  0.00  0.00     0.117 A 
ATOM     19  C   UNL d   1      -0.572   0.714   0.000  0.00  0.00     0.029 A 
ATOM     20  C   UNL d   1      -0.572   1.549   0.000  0.00  0.00     0.041 A 
ATOM     21  C   UNL d   1       0.142   1.962   0.000  0.00  0.00     0.005 A 
ATOM     22  C   UNL d   1       0.856   1.549   0.000  0.00  0.00     0.027 A 
BRANCH  18  23
ATOM     23  O   UNL d   1       0.150  -0.518   0.000  0.00  0.00    -0.326 OA
ATOM     24  C   UNL d   1       0.869  -0.927   0.000  0.00  0.00     0.181 C 
ENDBRANCH  18  23
BRANCH  20  25
ATOM     25  C   UNL d   1      -1.298   1.962   0.000  0.00  0.00     0.196 C 
ATOM     26  O   UNL d   1      -1.298   2.789   0.000  0.00  0.00    -0.287 OA
ATOM     27  C   UNL d   1      -2.013   1.541   0.000  0.00  0.00     0.045 C 
ENDBRANCH  20  25
ENDBRANCH  16  17
ENDBRANCH   1  16
TORSDOF 6
