REMARK  7 active torsions:
REMARK  status: ('A' for Active; 'I' for Inactive)
REMARK    1  A    between atoms: N_4  and  C_2 
REMARK    2  A    between atoms: S_9  and  C_3 
REMARK    3  A    between atoms: C_8  and  C_13 
REMARK    4  A    between atoms: O_11  and  C_8 
REMARK    5  A    between atoms: C_13  and  S_9 
REMARK    6  A    between atoms: C_14  and  O_11 
REMARK    7  A    between atoms: C_17  and  C_14 
ROOT
ATOM      1  N   UNL d   1       0.642   0.375   0.000  0.00  0.00    -0.203 NA
ATOM      2  C   UNL d   1      -0.071   0.787   0.000  0.00  0.00     0.152 A 
ATOM      3  C   UNL d   1       0.642  -0.454   0.000  0.00  0.00     0.196 A 
ATOM      4  C   UNL d   1      -0.783   0.375   0.000  0.00  0.00     0.057 A 
ATOM      5  N   UNL d   1      -0.071  -0.867   0.000  0.00  0.00    -0.221 NA
ATOM      6  C   UNL d   1      -0.783  -0.454   0.000  0.00  0.00     0.087 A 
ATOM      7  C   UNL d   1      -1.500  -0.867   0.000  0.00  0.00     0.021 C 
ENDROOT
BRANCH   3   8
ATOM      8  S   UNL d   1       1.363  -0.867   0.000  0.00  0.00    -0.043 SA
BRANCH   8   9
ATOM      9  C   UNL d   1       1.363  -1.692   0.000  0.00  0.00     0.107 C 
BRANCH   9  10
ATOM     10  C   UNL d   1       2.079  -2.100   0.000  0.00  0.00     0.307 C 
ATOM     11  O   UNL d   1       2.792  -1.692   0.000  0.00  0.00    -0.258 OA
BRANCH  10  12
ATOM     12  O   UNL d   1       2.079  -2.929   0.000  0.00  0.00    -0.271 OA
BRANCH  12  13
ATOM     13  C   UNL d   1       2.792  -3.342   0.000  0.00  0.00     0.126 C 
BRANCH  13  14
ATOM     14  C   UNL d   1       2.792  -4.167   0.000  0.00  0.00     0.025 A 
ATOM     15  C   UNL d   1       2.067  -4.575   0.000  0.00  0.00     0.002 A 
ATOM     16  C   UNL d   1       2.067  -5.400   0.000  0.00  0.00     0.000 A 
ATOM     17  C   UNL d   1       2.792  -5.812   0.000  0.00  0.00     0.000 A 
ATOM     18  C   UNL d   1       3.504  -5.392   0.000  0.00  0.00     0.000 A 
ATOM     19  C   UNL d   1       3.504  -4.575   0.000  0.00  0.00     0.002 A 
ENDBRANCH  13  14
ENDBRANCH  12  13
ENDBRANCH  10  12
ENDBRANCH   9  10
ENDBRANCH   8   9
ENDBRANCH   3   8
BRANCH   2  20
ATOM     20  N   UNL d   1      -0.075   1.613   0.000  0.00  0.00    -0.285 N 
ATOM     21  C   UNL d   1       0.642   2.025   0.000  0.00  0.00     0.108 A 
ATOM     22  C   UNL d   1       0.642   2.846   0.000  0.00  0.00     0.142 A 
ATOM     23  O   UNL d   1      -0.071   3.258   0.000  0.00  0.00    -0.300 OA
ATOM     24  C   UNL d   1      -0.787   2.846   0.000  0.00  0.00     0.142 A 
ATOM     25  C   UNL d   1      -0.787   2.021   0.000  0.00  0.00     0.108 A 
ENDBRANCH   2  20
TORSDOF 7
