REMARK  5 active torsions:
REMARK  status: ('A' for Active; 'I' for Inactive)
REMARK    1  A    between atoms: C_2  and  S_1 
REMARK    2  A    between atoms: N_3  and  S_1 
REMARK    3  A    between atoms: C_18  and  N_7 
REMARK    4  A    between atoms: O_27  and  C_9 
REMARK    5  A    between atoms: C_17  and  C_18 
ROOT
ATOM      1  N   UNL d   1       3.937  -0.521   0.000  0.00  0.00    -0.226 N 
ATOM      2  N   UNL d   1       2.506  -1.352   0.000  0.00  0.00    -0.300 N 
ATOM      3  C   UNL d   1       3.937  -1.352   0.000  0.00  0.00     0.111 A 
ATOM      4  C   UNL d   1       3.217  -0.112   0.000  0.00  0.00     0.111 A 
ATOM      5  C   UNL d   1       3.217  -1.762   0.000  0.00  0.00     0.100 A 
ATOM      6  C   UNL d   1       2.506  -0.521   0.000  0.00  0.00     0.100 A 
ENDROOT
BRANCH   1   7
ATOM      7  S   UNL d   1       4.652  -0.112   0.000  0.00  0.00     0.273 S 
ATOM      8  O   UNL d   1       4.234   0.608   0.000  0.00  0.00    -0.200 OA
ATOM      9  O   UNL d   1       5.066  -0.823   0.000  0.00  0.00    -0.200 OA
BRANCH   7  10
ATOM     10  C   UNL d   1       5.363   0.298   0.000  0.00  0.00     0.128 A 
ATOM     11  C   UNL d   1       6.083  -0.112   0.000  0.00  0.00     0.044 A 
ATOM     12  C   UNL d   1       6.798   0.298   0.000  0.00  0.00     0.141 A 
ATOM     13  F   UNL d   1       7.505  -0.112   0.000  0.00  0.00    -0.204 F 
ATOM     14  C   UNL d   1       6.798   1.129   0.000  0.00  0.00     0.032 A 
ATOM     15  C   UNL d   1       6.083   1.538   0.000  0.00  0.00     0.027 A 
ATOM     16  C   UNL d   1       5.363   1.129   0.000  0.00  0.00     0.106 A 
BRANCH  16  17
ATOM     17  O   UNL d   1       4.652   1.546   0.000  0.00  0.00    -0.327 OA
ATOM     18  C   UNL d   1       4.656   2.365   0.000  0.00  0.00     0.181 C 
ENDBRANCH  16  17
ENDBRANCH   7  10
ENDBRANCH   1   7
BRANCH   2  19
ATOM     19  C   UNL d   1       1.790  -1.762   0.000  0.00  0.00     0.080 C 
BRANCH  19  20
ATOM     20  C   UNL d   1       1.071  -1.352   0.000  0.00  0.00     0.020 A 
ATOM     21  C   UNL d   1       0.360  -1.762   0.000  0.00  0.00     0.028 A 
ATOM     22  C   UNL d   1      -0.356  -1.352   0.000  0.00  0.00     0.119 A 
ATOM     23  O   UNL d   1      -1.141  -1.604   0.000  0.00  0.00    -0.300 OA
ATOM     24  C   UNL d   1      -0.356  -0.521   0.000  0.00  0.00     0.119 A 
ATOM     25  C   UNL d   1      -1.625  -0.935   0.000  0.00  0.00     0.304 A 
ATOM     26  O   UNL d   1      -1.141  -0.273   0.000  0.00  0.00    -0.300 OA
ATOM     27  C   UNL d   1       0.360  -0.112   0.000  0.00  0.00     0.026 A 
ATOM     28  C   UNL d   1       1.071  -0.521   0.000  0.00  0.00     0.004 A 
ENDBRANCH  19  20
ENDBRANCH   2  19
TORSDOF 5
