REMARK  6 active torsions:
REMARK  status: ('A' for Active; 'I' for Inactive)
REMARK    1  A    between atoms: S_2  and  C_1 
REMARK    2  A    between atoms: N_3  and  C_1 
REMARK    3  A    between atoms: C_4  and  C_1 
REMARK    4  A    between atoms: C_6  and  S_2 
REMARK       I    between atoms: C_5  and  N_3 
REMARK    5  A    between atoms: C_9  and  C_5 
REMARK    6  A    between atoms: O_23  and  C_17 
ROOT
ATOM      1  C   UNL d   1       2.709  -1.861   0.000  0.00  0.00     0.193 C 
ENDROOT
BRANCH   1   2
ATOM      2  S   UNL d   1       3.415  -1.448   0.000  0.00  0.00     0.228 S 
ATOM      3  O   UNL d   1       3.836  -2.163   0.000  0.00  0.00    -0.216 OA
ATOM      4  O   UNL d   1       3.002  -0.729   0.000  0.00  0.00    -0.216 OA
BRANCH   2   5
ATOM      5  C   UNL d   1       4.139  -1.031   0.000  0.00  0.00     0.089 A 
ATOM      6  C   UNL d   1       4.845  -1.444   0.000  0.00  0.00     0.011 A 
ATOM      7  C   UNL d   1       5.560  -1.031   0.000  0.00  0.00     0.001 A 
ATOM      8  C   UNL d   1       5.560  -0.206   0.000  0.00  0.00     0.000 A 
ATOM      9  C   UNL d   1       4.845   0.206   0.000  0.00  0.00     0.001 A 
ATOM     10  C   UNL d   1       6.284   0.215   0.000  0.00  0.00     0.000 C 
ATOM     11  C   UNL d   1       4.139  -0.206   0.000  0.00  0.00     0.011 A 
ENDBRANCH   2   5
ENDBRANCH   1   2
BRANCH   1  12
ATOM     12  N   UNL d   1       1.994  -1.448   0.000  0.00  0.00    -0.195 NA
ATOM     13  C   UNL d   1       1.283  -1.861   0.000  0.00  0.00     0.280 C 
ATOM     14  O   UNL d   1       1.283  -2.686   0.000  0.00  0.00    -0.265 OA
BRANCH  13  15
ATOM     15  C   UNL d   1       0.564  -1.444   0.000  0.00  0.00     0.058 A 
ATOM     16  C   UNL d   1       0.564  -0.619   0.000  0.00  0.00     0.007 A 
ATOM     17  C   UNL d   1      -0.151  -0.206   0.000  0.00  0.00     0.024 A 
ATOM     18  C   UNL d   1      -0.862  -0.619   0.000  0.00  0.00     0.094 A 
ATOM     19  C   UNL d   1      -0.862  -1.444   0.000  0.00  0.00     0.024 A 
ATOM     20  C   UNL d   1      -0.151  -1.856   0.000  0.00  0.00     0.007 A 
BRANCH  18  21
ATOM     21  O   UNL d   1      -1.581  -0.197   0.000  0.00  0.00    -0.328 OA
ATOM     22  C   UNL d   1      -2.305  -0.605   0.000  0.00  0.00     0.181 C 
ENDBRANCH  18  21
ENDBRANCH  13  15
ENDBRANCH   1  12
BRANCH   1  23
ATOM     23  C   UNL d   1       2.709  -2.686   0.000  0.00  0.00     0.144 C 
ATOM     24 CL   UNL d   1       3.424  -3.098   0.000  0.00  0.00    -0.068 Cl
ATOM     25 CL   UNL d   1       1.998  -3.098   0.000  0.00  0.00    -0.068 Cl
ENDBRANCH   1  23
TORSDOF 6
