REMARK  4 active torsions:
REMARK  status: ('A' for Active; 'I' for Inactive)
REMARK    1  A    between atoms: C_2  and  S_1 
REMARK    2  A    between atoms: N_5  and  S_1 
REMARK    3  A    between atoms: C_10  and  N_5 
REMARK    4  A    between atoms: C_11  and  C_10 
ROOT
ATOM      1  S   UNL d   1       4.475  -2.079   0.000  0.00  0.00     0.291 S 
ATOM      2  O   UNL d   1       4.467  -2.904   0.000  0.00  0.00    -0.198 OA
ATOM      3  O   UNL d   1       4.479  -1.254   0.000  0.00  0.00    -0.198 OA
ENDROOT
BRANCH   1   4
ATOM      4  C   UNL d   1       3.650  -2.067   0.000  0.00  0.00     0.135 A 
ATOM      5  S   UNL d   1       3.154  -2.717   0.000  0.00  0.00    -0.074 SA
ATOM      6  C   UNL d   1       2.375  -2.450   0.000  0.00  0.00     0.030 A 
ATOM      7  C   UNL d   1       1.692  -2.917   0.000  0.00  0.00     0.007 C 
ATOM      8  C   UNL d   1       2.392  -1.625   0.000  0.00  0.00     0.008 A 
ATOM      9  C   UNL d   1       3.179  -1.387   0.000  0.00  0.00     0.020 A 
ENDBRANCH   1   4
BRANCH   1  10
ATOM     10  N   UNL d   1       5.292  -2.079   0.000  0.00  0.00    -0.156 NA
BRANCH  10  11
ATOM     11  C   UNL d   1       5.704  -2.792   0.000  0.00  0.00     0.112 C 
BRANCH  11  12
ATOM     12  C   UNL d   1       6.529  -2.792   0.000  0.00  0.00     0.020 A 
ATOM     13  C   UNL d   1       6.942  -3.513   0.000  0.00  0.00     0.002 A 
ATOM     14  C   UNL d   1       7.767  -3.513   0.000  0.00  0.00     0.000 A 
ATOM     15  C   UNL d   1       8.179  -2.792   0.000  0.00  0.00     0.000 A 
ATOM     16  C   UNL d   1       7.763  -2.079   0.000  0.00  0.00     0.000 A 
ATOM     17  C   UNL d   1       9.004  -2.792   0.000  0.00  0.00     0.000 C 
ATOM     18  C   UNL d   1       6.938  -2.079   0.000  0.00  0.00     0.002 A 
ENDBRANCH  11  12
ENDBRANCH  10  11
ENDBRANCH   1  10
TORSDOF 4
