REMARK  4 active torsions:
REMARK  status: ('A' for Active; 'I' for Inactive)
REMARK    1  A    between atoms: S_3  and  N_1 
REMARK    2  A    between atoms: C_7  and  C_4 
REMARK    3  A    between atoms: C_10  and  C_5 
REMARK    4  A    between atoms: C_21  and  C_20 
ROOT
ATOM      1  N   UNL d   1       2.721   1.596   0.000  0.00  0.00    -0.155 N 
ATOM      2  N   UNL d   1       1.925   1.846   0.000  0.00  0.00    -0.153 NA
ATOM      3  C   UNL d   1       1.925   2.667   0.000  0.00  0.00     0.126 A 
ATOM      4  C   UNL d   1       3.189   2.259   0.000  0.00  0.00     0.096 A 
ATOM      5  C   UNL d   1       2.721   2.912   0.000  0.00  0.00     0.043 A 
ENDROOT
BRANCH   4   6
ATOM      6  C   UNL d   1       4.014   2.259   0.000  0.00  0.00     0.018 A 
ATOM      7  C   UNL d   1       4.452   1.544   0.000  0.00  0.00     0.002 A 
ATOM      8  C   UNL d   1       5.277   1.544   0.000  0.00  0.00     0.000 A 
ATOM      9  C   UNL d   1       5.665   2.259   0.000  0.00  0.00     0.000 A 
ATOM     10  C   UNL d   1       5.277   2.964   0.000  0.00  0.00     0.000 A 
ATOM     11  C   UNL d   1       4.452   2.964   0.000  0.00  0.00     0.002 A 
BRANCH   9  12
ATOM     12  C   UNL d   1       6.489   2.259   0.000  0.00  0.00     0.000 C 
ATOM     13  C   UNL d   1       6.902   1.544   0.000  0.00  0.00     0.000 C 
ENDBRANCH   9  12
ENDBRANCH   4   6
BRANCH   1  14
ATOM     14  S   UNL d   1       2.942   0.800   0.000  0.00  0.00     0.266 S 
ATOM     15  O   UNL d   1       2.143   0.579   0.000  0.00  0.00    -0.203 OA
ATOM     16  O   UNL d   1       3.737   0.992   0.000  0.00  0.00    -0.203 OA
ATOM     17  C   UNL d   1       3.133   0.000   0.000  0.00  0.00     0.165 C 
ENDBRANCH   1  14
BRANCH   3  18
ATOM     18  C   UNL d   1       1.262   3.163   0.000  0.00  0.00     0.119 A 
ATOM     19  O   UNL d   1       0.493   2.888   0.000  0.00  0.00    -0.304 OA
ATOM     20  C   UNL d   1       0.000   3.575   0.000  0.00  0.00     0.123 A 
ATOM     21  C   UNL d   1       0.493   4.231   0.000  0.00  0.00     0.029 A 
ATOM     22  C   UNL d   1       1.262   3.987   0.000  0.00  0.00     0.028 A 
ENDBRANCH   3  18
TORSDOF 4
