REMARK  1 active torsions:
REMARK  status: ('A' for Active; 'I' for Inactive)
REMARK    1  A    between atoms: C_6  and  C_1 
REMARK       I    between atoms: N_9  and  C_6 
ROOT
ATOM      1  C   UNL d   1       5.854  -2.483   0.000  0.00  0.00     0.107 A 
ATOM      2  C   UNL d   1       4.584  -2.080   0.000  0.00  0.00     0.044 A 
ATOM      3  S   UNL d   1       5.373  -3.151   0.000  0.00  0.00    -0.061 SA
ATOM      4  C   UNL d   1       4.588  -2.902   0.000  0.00  0.00     0.112 A 
ATOM      5  C   UNL d   1       5.360  -1.819   0.000  0.00  0.00     0.116 A 
ATOM      6  N   UNL d   1       3.866  -3.318   0.000  0.00  0.00    -0.239 NA
ATOM      7  C   UNL d   1       3.866  -1.669   0.000  0.00  0.00     0.005 A 
ATOM      8  C   UNL d   1       3.156  -2.906   0.000  0.00  0.00     0.082 A 
ATOM      9  C   UNL d   1       3.164  -2.080   0.000  0.00  0.00     0.018 A 
ATOM     10  N   UNL d   1       5.610  -1.050   0.000  0.00  0.00    -0.147 N 
ATOM     11  C   UNL d   1       2.570  -3.488   0.000  0.00  0.00     0.019 A 
ATOM     12  C   UNL d   1       2.583  -1.486   0.000  0.00  0.00     0.002 A 
ATOM     13  C   UNL d   1       1.744  -3.479   0.000  0.00  0.00     0.002 A 
ATOM     14  C   UNL d   1       1.748  -1.486   0.000  0.00  0.00     0.000 A 
ATOM     15  C   UNL d   1       1.163  -2.068   0.000  0.00  0.00     0.000 A 
ATOM     16  C   UNL d   1       1.163  -2.894   0.000  0.00  0.00     0.000 A 
ENDROOT
BRANCH   1  17
ATOM     17  C   UNL d   1       6.656  -2.479   0.000  0.00  0.00     0.272 C 
ATOM     18  N   UNL d   1       7.054  -3.168   0.000  0.00  0.00    -0.272 N 
ATOM     19  C   UNL d   1       6.743  -3.903   0.000  0.00  0.00     0.083 A 
ATOM     20  C   UNL d   1       7.860  -3.243   0.000  0.00  0.00     0.083 A 
ATOM     21  C   UNL d   1       7.341  -4.426   0.000  0.00  0.00     0.021 A 
ATOM     22  C   UNL d   1       8.026  -4.028   0.000  0.00  0.00     0.021 A 
ATOM     23  O   UNL d   1       7.050  -1.781   0.000  0.00  0.00    -0.266 OA
ENDBRANCH   1  17
TORSDOF 1
