REMARK  3 active torsions:
REMARK  status: ('A' for Active; 'I' for Inactive)
REMARK    1  A    between atoms: C_7  and  N_1 
REMARK    2  A    between atoms: C_6  and  C_3 
REMARK    3  A    between atoms: O_16  and  C_13 
ROOT
ATOM      1  N   UNL d   1       5.835  -7.265   0.000  0.00  0.00    -0.273 N 
ATOM      2  C   UNL d   1       5.120  -6.852   0.000  0.00  0.00     0.265 A 
ATOM      3  C   UNL d   1       6.550  -6.027   0.000  0.00  0.00     0.087 A 
ATOM      4  C   UNL d   1       6.550  -6.852   0.000  0.00  0.00     0.089 A 
ATOM      5  C   UNL d   1       5.120  -6.027   0.000  0.00  0.00     0.069 A 
ATOM      6  O   UNL d   1       4.405  -7.265   0.000  0.00  0.00    -0.267 OA
ENDROOT
BRANCH   1   7
ATOM      7  C   UNL d   1       5.835  -8.090   0.000  0.00  0.00     0.067 A 
ATOM      8  C   UNL d   1       5.120  -8.498   0.000  0.00  0.00     0.020 A 
ATOM      9  C   UNL d   1       5.120  -9.313   0.000  0.00  0.00     0.026 A 
ATOM     10  C   UNL d   1       5.835  -9.735   0.000  0.00  0.00     0.094 A 
ATOM     11  C   UNL d   1       6.550  -9.322   0.000  0.00  0.00     0.026 A 
ATOM     12  C   UNL d   1       6.550  -8.498   0.000  0.00  0.00     0.020 A 
BRANCH  10  13
ATOM     13  O   UNL d   1       5.830 -10.560   0.000  0.00  0.00    -0.328 OA
ATOM     14  C   UNL d   1       5.115 -10.973   0.000  0.00  0.00     0.181 C 
ENDBRANCH  10  13
ENDBRANCH   1   7
BRANCH   3  15
ATOM     15  C   UNL d   1       7.191  -5.390   0.000  0.00  0.00     0.212 C 
ATOM     16  O   UNL d   1       6.957  -4.510   0.000  0.00  0.00    -0.644 OA
ATOM     17  O   UNL d   1       8.071  -5.624   0.000  0.00  0.00    -0.644 OA
ENDBRANCH   3  15
TORSDOF 3
