REMARK  4 active torsions:
REMARK  status: ('A' for Active; 'I' for Inactive)
REMARK    1  A    between atoms: S_2  and  N_1 
REMARK    2  A    between atoms: C_10  and  S_2 
REMARK    3  A    between atoms: C_7  and  C_4 
REMARK    4  A    between atoms: C_11  and  C_5 
ROOT
ATOM      1  N   UNL d   1       3.409   3.218   0.000  0.00  0.00    -0.152 N 
ATOM      2  N   UNL d   1       2.613   3.491   0.000  0.00  0.00    -0.155 NA
ATOM      3  C   UNL d   1       3.909   3.881   0.000  0.00  0.00     0.099 A 
ATOM      4  C   UNL d   1       2.613   4.322   0.000  0.00  0.00     0.104 A 
ATOM      5  C   UNL d   1       3.409   4.567   0.000  0.00  0.00     0.041 A 
ENDROOT
BRANCH   1   6
ATOM      6  S   UNL d   1       3.660   2.448   0.000  0.00  0.00     0.286 S 
ATOM      7  O   UNL d   1       4.543   2.694   0.000  0.00  0.00    -0.198 OA
ATOM      8  O   UNL d   1       2.861   2.203   0.000  0.00  0.00    -0.198 OA
BRANCH   6   9
ATOM      9  C   UNL d   1       3.660   1.627   0.000  0.00  0.00     0.105 A 
ATOM     10  C   UNL d   1       2.945   1.214   0.000  0.00  0.00     0.013 A 
ATOM     11  C   UNL d   1       2.945   0.388   0.000  0.00  0.00     0.001 A 
ATOM     12  C   UNL d   1       3.660   0.000   0.000  0.00  0.00     0.000 A 
ATOM     13  C   UNL d   1       4.376   0.388   0.000  0.00  0.00     0.001 A 
ATOM     14  C   UNL d   1       4.376   1.214   0.000  0.00  0.00     0.013 A 
ENDBRANCH   6   9
ENDBRANCH   1   6
BRANCH   3  15
ATOM     15  C   UNL d   1       4.734   3.881   0.000  0.00  0.00     0.058 A 
ATOM     16  C   UNL d   1       5.120   4.597   0.000  0.00  0.00     0.197 A 
ATOM     17  O   UNL d   1       4.734   5.312   0.000  0.00  0.00    -0.286 OA
ATOM     18  C   UNL d   1       5.973   4.597   0.000  0.00  0.00     0.042 A 
ATOM     19  C   UNL d   1       6.386   3.881   0.000  0.00  0.00     0.003 A 
ATOM     20  C   UNL d   1       5.946   3.188   0.000  0.00  0.00     0.000 A 
ATOM     21  C   UNL d   1       5.147   3.188   0.000  0.00  0.00     0.005 A 
ENDBRANCH   3  15
BRANCH   4  22
ATOM     22  C   UNL d   1       1.954   4.789   0.000  0.00  0.00     0.019 A 
ATOM     23  C   UNL d   1       2.035   5.614   0.000  0.00  0.00     0.002 A 
ATOM     24  C   UNL d   1       1.374   6.084   0.000  0.00  0.00     0.000 A 
ATOM     25  C   UNL d   1       0.659   5.752   0.000  0.00  0.00     0.000 A 
ATOM     26  C   UNL d   1       0.548   4.956   0.000  0.00  0.00     0.000 A 
ATOM     27  C   UNL d   1       0.000   6.249   0.000  0.00  0.00     0.000 C 
ATOM     28  C   UNL d   1       1.209   4.457   0.000  0.00  0.00     0.002 A 
ENDBRANCH   4  22
TORSDOF 4
