REMARK  4 active torsions:
REMARK  status: ('A' for Active; 'I' for Inactive)
REMARK    1  A    between atoms: S_4  and  C_1 
REMARK    2  A    between atoms: N_7  and  C_3 
REMARK    3  A    between atoms: C_11  and  S_4 
REMARK    4  A    between atoms: C_8  and  C_6 
ROOT
ATOM      1  C   UNL d   1       4.828  -4.372   0.000  0.00  0.00     0.210 A 
ATOM      2  N   UNL d   1       5.649  -4.372   0.000  0.00  0.00    -0.205 NA
ATOM      3  C   UNL d   1       4.571  -5.156   0.000  0.00  0.00     0.199 A 
ATOM      4  O   UNL d   1       5.239  -5.637   0.000  0.00  0.00    -0.268 OA
ATOM      5  C   UNL d   1       5.902  -5.156   0.000  0.00  0.00     0.208 A 
ENDROOT
BRANCH   1   6
ATOM      6  S   UNL d   1       4.409  -3.662   0.000  0.00  0.00     0.230 S 
ATOM      7  O   UNL d   1       3.588  -3.662   0.000  0.00  0.00    -0.215 OA
ATOM      8  O   UNL d   1       4.820  -2.941   0.000  0.00  0.00    -0.215 OA
BRANCH   6   9
ATOM      9  C   UNL d   1       3.998  -2.949   0.000  0.00  0.00     0.090 A 
ATOM     10  C   UNL d   1       3.177  -2.953   0.000  0.00  0.00     0.011 A 
ATOM     11  C   UNL d   1       2.754  -2.240   0.000  0.00  0.00     0.001 A 
ATOM     12  C   UNL d   1       3.165  -1.522   0.000  0.00  0.00     0.000 A 
ATOM     13  C   UNL d   1       3.994  -1.518   0.000  0.00  0.00     0.001 A 
ATOM     14  C   UNL d   1       4.409  -2.232   0.000  0.00  0.00     0.011 A 
ENDBRANCH   6   9
ENDBRANCH   1   6
BRANCH   3  15
ATOM     15  N   UNL d   1       3.787  -5.413   0.000  0.00  0.00    -0.283 N 
ATOM     16  C   UNL d   1       3.675  -6.122   0.000  0.00  0.00     0.082 A 
ATOM     17  C   UNL d   1       2.978  -6.624   0.000  0.00  0.00     0.019 A 
ATOM     18  C   UNL d   1       2.256  -6.487   0.000  0.00  0.00     0.002 A 
ATOM     19  C   UNL d   1       1.895  -5.728   0.000  0.00  0.00     0.002 A 
ATOM     20  C   UNL d   1       2.331  -4.957   0.000  0.00  0.00     0.019 A 
ATOM     21  C   UNL d   1       3.198  -4.820   0.000  0.00  0.00     0.082 A 
ENDBRANCH   3  15
BRANCH   5  22
ATOM     22  C   UNL d   1       6.719  -5.156   0.000  0.00  0.00     0.141 A 
ATOM     23  O   UNL d   1       7.383  -5.637   0.000  0.00  0.00    -0.302 OA
ATOM     24  C   UNL d   1       8.051  -5.156   0.000  0.00  0.00     0.123 A 
ATOM     25  C   UNL d   1       7.793  -4.372   0.000  0.00  0.00     0.029 A 
ATOM     26  C   UNL d   1       6.972  -4.372   0.000  0.00  0.00     0.030 A 
ENDBRANCH   5  22
TORSDOF 4
