REMARK  6 active torsions:
REMARK  status: ('A' for Active; 'I' for Inactive)
REMARK    1  A    between atoms: C_6  and  N_2 
REMARK    2  A    between atoms: C_7  and  C_3 
REMARK    3  A    between atoms: C_14  and  C_6 
REMARK    4  A    between atoms: C_8  and  O_16 
REMARK    5  A    between atoms: C_19  and  C_14 
REMARK    6  A    between atoms: O_16  and  C_19 
ROOT
ATOM      1  N   UNL d   1       3.270   4.928   0.000  0.00  0.00    -0.224 NA
ATOM      2  N   UNL d   1       3.280   3.580   0.000  0.00  0.00    -0.286 N 
ATOM      3  C   UNL d   1       3.766   4.253   0.000  0.00  0.00     0.191 A 
ATOM      4  C   UNL d   1       2.485   3.830   0.000  0.00  0.00     0.083 A 
ATOM      5  C   UNL d   1       2.477   4.658   0.000  0.00  0.00     0.099 A 
ATOM      6  C   UNL d   1       1.768   3.420   0.000  0.00  0.00     0.019 A 
ATOM      7  C   UNL d   1       1.763   5.070   0.000  0.00  0.00     0.021 A 
ATOM      8  C   UNL d   1       1.053   3.833   0.000  0.00  0.00     0.002 A 
ATOM      9  C   UNL d   1       1.053   4.658   0.000  0.00  0.00     0.002 A 
ENDROOT
BRANCH   2  10
ATOM     10  C   UNL d   1       3.693   2.868   0.000  0.00  0.00     0.084 C 
BRANCH  10  11
ATOM     11  C   UNL d   1       3.280   2.163   0.000  0.00  0.00     0.046 C 
BRANCH  11  12
ATOM     12  C   UNL d   1       3.700   1.456   0.000  0.00  0.00     0.124 C 
BRANCH  12  13
ATOM     13  O   UNL d   1       3.295   0.737   0.000  0.00  0.00    -0.305 OA
BRANCH  13  14
ATOM     14  C   UNL d   1       2.470   0.729   0.000  0.00  0.00     0.100 A 
ATOM     15  C   UNL d   1       2.050   1.441   0.000  0.00  0.00     0.025 A 
ATOM     16  C   UNL d   1       1.230   1.434   0.000  0.00  0.00     0.002 A 
ATOM     17  C   UNL d   1       0.820   0.715   0.000  0.00  0.00     0.000 A 
ATOM     18  C   UNL d   1       1.247   0.000   0.000  0.00  0.00     0.002 A 
ATOM     19  C   UNL d   1       0.000   0.705   0.000  0.00  0.00     0.000 C 
ATOM     20  C   UNL d   1       2.070   0.012   0.000  0.00  0.00     0.025 A 
ENDBRANCH  13  14
ENDBRANCH  12  13
ENDBRANCH  11  12
ENDBRANCH  10  11
ENDBRANCH   2  10
BRANCH   3  21
ATOM     21  C   UNL d   1       4.591   4.260   0.000  0.00  0.00     0.271 C 
ATOM     22  O   UNL d   1       5.009   3.550   0.000  0.00  0.00    -0.280 OA
ENDBRANCH   3  21
TORSDOF 6
