REMARK  5 active torsions:
REMARK  status: ('A' for Active; 'I' for Inactive)
REMARK    1  A    between atoms: N_2  and  S_1 
REMARK    2  A    between atoms: C_8  and  S_1 
REMARK    3  A    between atoms: S_7  and  C_3 
REMARK    4  A    between atoms: C_11  and  S_7 
REMARK    5  A    between atoms: C_12  and  C_11 
ROOT
ATOM      1  N   UNL d   1      -3.268   2.761   0.000  0.00  0.00    -0.208 N 
ATOM      2  C   UNL d   1      -3.528   1.969   0.000  0.00  0.00     0.189 A 
ATOM      3  N   UNL d   1      -4.358   1.969   0.000  0.00  0.00    -0.219 NA
ATOM      4  C   UNL d   1      -3.943   3.252   0.000  0.00  0.00     0.114 A 
ATOM      5  C   UNL d   1      -4.609   2.761   0.000  0.00  0.00     0.121 A 
ENDROOT
BRANCH   1   6
ATOM      6  S   UNL d   1      -2.476   3.013   0.000  0.00  0.00     0.273 S 
ATOM      7  O   UNL d   1      -2.263   2.221   0.000  0.00  0.00    -0.200 OA
ATOM      8  O   UNL d   1      -1.647   3.013   0.000  0.00  0.00    -0.200 OA
BRANCH   6   9
ATOM      9  C   UNL d   1      -2.673   3.817   0.000  0.00  0.00     0.104 A 
ATOM     10  C   UNL d   1      -2.074   4.379   0.000  0.00  0.00     0.013 A 
ATOM     11  C   UNL d   1      -2.271   5.179   0.000  0.00  0.00     0.001 A 
ATOM     12  C   UNL d   1      -3.063   5.410   0.000  0.00  0.00     0.000 A 
ATOM     13  C   UNL d   1      -3.658   4.844   0.000  0.00  0.00     0.001 A 
ATOM     14  C   UNL d   1      -3.457   4.039   0.000  0.00  0.00     0.013 A 
ENDBRANCH   6   9
ENDBRANCH   1   6
BRANCH   2  15
ATOM     15  S   UNL d   1      -3.038   1.295   0.000  0.00  0.00    -0.049 SA
BRANCH  15  16
ATOM     16  C   UNL d   1      -3.377   0.540   0.000  0.00  0.00     0.038 C 
BRANCH  16  17
ATOM     17  C   UNL d   1      -4.199   0.461   0.000  0.00  0.00     0.007 A 
ATOM     18  C   UNL d   1      -4.685   1.127   0.000  0.00  0.00     0.001 A 
ATOM     19  C   UNL d   1      -5.514   1.031   0.000  0.00  0.00     0.000 A 
ATOM     20  C   UNL d   1      -5.845   0.272   0.000  0.00  0.00     0.000 A 
ATOM     21  C   UNL d   1      -5.364  -0.394   0.000  0.00  0.00     0.000 A 
ATOM     22  C   UNL d   1      -4.546  -0.306   0.000  0.00  0.00     0.001 A 
ENDBRANCH  16  17
ENDBRANCH  15  16
ENDBRANCH   2  15
TORSDOF 5
