REMARK  5 active torsions:
REMARK  status: ('A' for Active; 'I' for Inactive)
REMARK    1  A    between atoms: N_2  and  S_1 
REMARK    2  A    between atoms: C_8  and  S_1 
REMARK    3  A    between atoms: S_5  and  C_3 
REMARK    4  A    between atoms: C_13  and  S_5 
REMARK    5  A    between atoms: C_12  and  C_13 
ROOT
ATOM      1  N   UNL d   1      -3.267   2.760   0.000  0.00  0.00    -0.208 N 
ATOM      2  C   UNL d   1      -3.527   1.969   0.000  0.00  0.00     0.189 A 
ATOM      3  N   UNL d   1      -4.356   1.969   0.000  0.00  0.00    -0.219 NA
ATOM      4  C   UNL d   1      -3.942   3.251   0.000  0.00  0.00     0.114 A 
ATOM      5  C   UNL d   1      -4.608   2.760   0.000  0.00  0.00     0.121 A 
ENDROOT
BRANCH   1   6
ATOM      6  S   UNL d   1      -2.476   3.012   0.000  0.00  0.00     0.273 S 
ATOM      7  O   UNL d   1      -2.262   2.220   0.000  0.00  0.00    -0.200 OA
ATOM      8  O   UNL d   1      -1.646   3.012   0.000  0.00  0.00    -0.200 OA
BRANCH   6   9
ATOM      9  C   UNL d   1      -2.672   3.816   0.000  0.00  0.00     0.104 A 
ATOM     10  C   UNL d   1      -2.074   4.377   0.000  0.00  0.00     0.013 A 
ATOM     11  C   UNL d   1      -2.270   5.177   0.000  0.00  0.00     0.001 A 
ATOM     12  C   UNL d   1      -3.062   5.408   0.000  0.00  0.00     0.000 A 
ATOM     13  C   UNL d   1      -3.657   4.842   0.000  0.00  0.00     0.001 A 
ATOM     14  C   UNL d   1      -3.456   4.038   0.000  0.00  0.00     0.013 A 
ENDBRANCH   6   9
ENDBRANCH   1   6
BRANCH   2  15
ATOM     15  S   UNL d   1      -3.037   1.294   0.000  0.00  0.00    -0.049 SA
BRANCH  15  16
ATOM     16  C   UNL d   1      -3.376   0.540   0.000  0.00  0.00     0.040 C 
BRANCH  16  17
ATOM     17  C   UNL d   1      -4.197   0.461   0.000  0.00  0.00     0.026 A 
ATOM     18  C   UNL d   1      -4.545  -0.306   0.000  0.00  0.00     0.099 A 
ATOM     19  N   UNL d   1      -5.362  -0.402   0.000  0.00  0.00    -0.242 NA
ATOM     20  C   UNL d   1      -5.839   0.272   0.000  0.00  0.00     0.099 A 
ATOM     21  C   UNL d   1      -5.504   1.026   0.000  0.00  0.00     0.021 A 
ATOM     22  C   UNL d   1      -4.683   1.118   0.000  0.00  0.00     0.004 A 
ENDBRANCH  16  17
ENDBRANCH  15  16
ENDBRANCH   2  15
TORSDOF 5
