REMARK  4 active torsions:
REMARK  status: ('A' for Active; 'I' for Inactive)
REMARK    1  A    between atoms: N_7  and  C_4 
REMARK    2  A    between atoms: N_9  and  N_7 
REMARK       I    between atoms: C_8  and  N_9 
REMARK    3  A    between atoms: C_11  and  C_8 
REMARK    4  A    between atoms: C_13  and  C_14 
ROOT
ATOM      1  C   UNL d   1      -0.283   1.321   0.000  0.00  0.00     0.297 C 
ATOM      2  N   UNL d   1      -0.996   1.733   0.000  0.00  0.00    -0.104 NA
ATOM      3  O   UNL d   1      -0.283   0.496   0.000  0.00  0.00    -0.264 OA
ENDROOT
BRANCH   1   4
ATOM      4  C   UNL d   1       0.429   1.733   0.000  0.00  0.00     0.059 A 
ATOM      5  C   UNL d   1       0.429   2.558   0.000  0.00  0.00     0.004 A 
ATOM      6  C   UNL d   1       1.142   2.971   0.000  0.00  0.00    -0.004 A 
ATOM      7  C   UNL d   1       1.854   2.558   0.000  0.00  0.00    -0.023 A 
ATOM      8  C   UNL d   1       1.863   1.725   0.000  0.00  0.00    -0.004 A 
ATOM      9  C   UNL d   1       1.150   1.321   0.000  0.00  0.00     0.004 A 
BRANCH   7  10
ATOM     10  C   UNL d   1       2.567   2.983   0.000  0.00  0.00     0.019 C 
ATOM     11  C   UNL d   1       2.362   3.771   0.000  0.00  0.00     0.004 C 
ATOM     12  C   UNL d   1       3.154   2.383   0.000  0.00  0.00     0.004 C 
ATOM     13  C   UNL d   1       3.267   3.408   0.000  0.00  0.00     0.004 C 
ENDBRANCH   7  10
ENDBRANCH   1   4
BRANCH   2  14
ATOM     14  N   UNL d   1      -1.708   1.321   0.000  0.00  0.00    -0.127 NA
BRANCH  14  15
ATOM     15  C   UNL d   1      -2.425   1.733   0.000  0.00  0.00     0.178 A 
ATOM     16  N   UNL d   1      -3.138   1.325   0.000  0.00  0.00    -0.240 N 
ATOM     17  C   UNL d   1      -3.846   1.733   0.000  0.00  0.00     0.343 A 
ATOM     18  C   UNL d   1      -3.138   0.500   0.000  0.00  0.00     0.105 C 
ATOM     19  N   UNL d   1      -3.846   2.558   0.000  0.00  0.00    -0.224 N 
ATOM     20  O   UNL d   1      -4.562   1.321   0.000  0.00  0.00    -0.245 OA
ATOM     21  C   UNL d   1      -3.138   2.983   0.000  0.00  0.00     0.271 A 
ATOM     22  C   UNL d   1      -4.562   2.971   0.000  0.00  0.00     0.107 C 
ATOM     23  C   UNL d   1      -2.425   2.558   0.000  0.00  0.00     0.101 A 
ATOM     24  O   UNL d   1      -3.138   3.800   0.000  0.00  0.00    -0.266 OA
ENDBRANCH  14  15
ENDBRANCH   2  14
TORSDOF 4
