REMARK  4 active torsions:
REMARK  status: ('A' for Active; 'I' for Inactive)
REMARK    1  A    between atoms: N_7  and  C_3 
REMARK       I    between atoms: C_8  and  N_7 
REMARK    2  A    between atoms: C_10  and  C_8 
REMARK    3  A    between atoms: C_12  and  C_10 
REMARK    4  A    between atoms: C_16  and  C_12 
ROOT
ATOM      1  N   UNL d   1      -1.708   1.321   0.000  0.00  0.00    -0.190 NA
ATOM      2  C   UNL d   1      -0.996   1.733   0.000  0.00  0.00     0.281 C 
ATOM      3  O   UNL d   1      -0.996   2.558   0.000  0.00  0.00    -0.265 OA
ENDROOT
BRANCH   1   4
ATOM      4  C   UNL d   1      -2.425   1.733   0.000  0.00  0.00     0.159 A 
ATOM      5  N   UNL d   1      -3.138   1.325   0.000  0.00  0.00    -0.241 N 
ATOM      6  C   UNL d   1      -3.846   1.733   0.000  0.00  0.00     0.343 A 
ATOM      7  C   UNL d   1      -3.138   0.500   0.000  0.00  0.00     0.105 C 
ATOM      8  N   UNL d   1      -3.846   2.558   0.000  0.00  0.00    -0.224 N 
ATOM      9  O   UNL d   1      -4.562   1.321   0.000  0.00  0.00    -0.245 OA
ATOM     10  C   UNL d   1      -3.138   2.983   0.000  0.00  0.00     0.271 A 
ATOM     11  C   UNL d   1      -4.562   2.971   0.000  0.00  0.00     0.107 C 
ATOM     12  C   UNL d   1      -2.425   2.558   0.000  0.00  0.00     0.099 A 
ATOM     13  O   UNL d   1      -3.138   3.800   0.000  0.00  0.00    -0.266 OA
ENDBRANCH   1   4
BRANCH   2  14
ATOM     14  C   UNL d   1      -0.283   1.321   0.000  0.00  0.00     0.063 C 
BRANCH  14  15
ATOM     15  C   UNL d   1       0.425   1.733   0.000  0.00  0.00     0.005 C 
BRANCH  15  16
ATOM     16  C   UNL d   1       0.429   2.546   0.000  0.00  0.00     0.000 A 
ATOM     17  C   UNL d   1       1.154   2.946   0.000  0.00  0.00     0.000 A 
ATOM     18  C   UNL d   1       1.167   3.783   0.000  0.00  0.00     0.000 A 
ATOM     19  C   UNL d   1       0.467   4.192   0.000  0.00  0.00     0.000 A 
ATOM     20  C   UNL d   1      -0.258   3.796   0.000  0.00  0.00     0.000 A 
ATOM     21  C   UNL d   1      -0.271   2.962   0.000  0.00  0.00     0.000 A 
ENDBRANCH  15  16
ENDBRANCH  14  15
ENDBRANCH   2  14
TORSDOF 4
