REMARK  5 active torsions:
REMARK  status: ('A' for Active; 'I' for Inactive)
REMARK    1  A    between atoms: N_2  and  S_1 
REMARK    2  A    between atoms: C_5  and  S_1 
REMARK    3  A    between atoms: S_8  and  C_3 
REMARK    4  A    between atoms: C_18  and  S_8 
REMARK    5  A    between atoms: C_17  and  C_18 
ROOT
ATOM      1  N   UNL d   1      -3.269   2.762   0.000  0.00  0.00    -0.208 N 
ATOM      2  C   UNL d   1      -3.529   1.970   0.000  0.00  0.00     0.189 A 
ATOM      3  N   UNL d   1      -4.359   1.970   0.000  0.00  0.00    -0.219 NA
ATOM      4  C   UNL d   1      -3.944   3.252   0.000  0.00  0.00     0.114 A 
ATOM      5  C   UNL d   1      -4.610   2.762   0.000  0.00  0.00     0.121 A 
ENDROOT
BRANCH   1   6
ATOM      6  S   UNL d   1      -2.477   3.013   0.000  0.00  0.00     0.273 S 
ATOM      7  O   UNL d   1      -1.647   3.013   0.000  0.00  0.00    -0.200 OA
ATOM      8  O   UNL d   1      -2.263   2.221   0.000  0.00  0.00    -0.200 OA
BRANCH   6   9
ATOM      9  C   UNL d   1      -2.674   3.818   0.000  0.00  0.00     0.104 A 
ATOM     10  C   UNL d   1      -2.070   4.380   0.000  0.00  0.00     0.014 A 
ATOM     11  C   UNL d   1      -2.276   5.180   0.000  0.00  0.00     0.012 A 
ATOM     12  C   UNL d   1      -3.068   5.411   0.000  0.00  0.00     0.058 A 
ATOM     13  C   UNL d   1      -3.667   4.845   0.000  0.00  0.00     0.012 A 
ATOM     14 CL   UNL d   1      -3.265   6.215   0.000  0.00  0.00    -0.082 Cl
ATOM     15  C   UNL d   1      -3.458   4.040   0.000  0.00  0.00     0.014 A 
ENDBRANCH   6   9
ENDBRANCH   1   6
BRANCH   2  16
ATOM     16  S   UNL d   1      -3.039   1.295   0.000  0.00  0.00    -0.049 SA
BRANCH  16  17
ATOM     17  C   UNL d   1      -3.378   0.541   0.000  0.00  0.00     0.038 C 
BRANCH  17  18
ATOM     18  C   UNL d   1      -4.195   0.461   0.000  0.00  0.00     0.007 A 
ATOM     19  C   UNL d   1      -4.686   1.127   0.000  0.00  0.00     0.013 A 
ATOM     20  C   UNL d   1      -5.503   1.044   0.000  0.00  0.00     0.068 A 
ATOM     21 CL   UNL d   1      -5.972   1.718   0.000  0.00  0.00    -0.082 Cl
ATOM     22  C   UNL d   1      -5.834   0.289   0.000  0.00  0.00     0.068 A 
ATOM     23  C   UNL d   1      -5.365  -0.377   0.000  0.00  0.00     0.012 A 
ATOM     24 CL   UNL d   1      -6.656   0.214   0.000  0.00  0.00    -0.082 Cl
ATOM     25  C   UNL d   1      -4.535  -0.293   0.000  0.00  0.00     0.001 A 
ENDBRANCH  17  18
ENDBRANCH  16  17
ENDBRANCH   2  16
TORSDOF 5
