REMARK  3 active torsions:
REMARK  status: ('A' for Active; 'I' for Inactive)
REMARK    1  A    between atoms: N_9  and  C_4 
REMARK       I    between atoms: C_7  and  N_10 
REMARK    2  A    between atoms: C_8  and  C_7 
REMARK    3  A    between atoms: N_10  and  N_9 
ROOT
ATOM      1  C   UNL d   1      -0.283   1.321   0.000  0.00  0.00     0.297 C 
ATOM      2  N   UNL d   1      -0.996   1.733   0.000  0.00  0.00    -0.104 NA
ATOM      3  O   UNL d   1      -0.283   0.496   0.000  0.00  0.00    -0.264 OA
ENDROOT
BRANCH   1   4
ATOM      4  C   UNL d   1       0.429   1.733   0.000  0.00  0.00     0.059 A 
ATOM      5  C   UNL d   1       1.142   1.308   0.000  0.00  0.00     0.005 A 
ATOM      6  C   UNL d   1       1.854   1.733   0.000  0.00  0.00     0.000 A 
ATOM      7  C   UNL d   1       1.142   0.496   0.000  0.00  0.00     0.000 A 
ATOM      8  C   UNL d   1       2.562   1.321   0.000  0.00  0.00     0.000 A 
ATOM      9  C   UNL d   1       1.854   2.558   0.000  0.00  0.00     0.000 A 
ATOM     10  C   UNL d   1       2.567   0.508   0.000  0.00  0.00     0.000 A 
ATOM     11  C   UNL d   1       1.850   0.087   0.000  0.00  0.00     0.000 A 
ATOM     12  C   UNL d   1       1.142   2.971   0.000  0.00  0.00     0.000 A 
ATOM     13  C   UNL d   1       0.425   2.558   0.000  0.00  0.00     0.005 A 
ENDBRANCH   1   4
BRANCH   2  14
ATOM     14  N   UNL d   1      -1.708   1.321   0.000  0.00  0.00    -0.127 NA
BRANCH  14  15
ATOM     15  C   UNL d   1      -2.425   1.733   0.000  0.00  0.00     0.178 A 
ATOM     16  N   UNL d   1      -3.138   1.325   0.000  0.00  0.00    -0.240 N 
ATOM     17  C   UNL d   1      -3.846   1.733   0.000  0.00  0.00     0.343 A 
ATOM     18  C   UNL d   1      -3.138   0.500   0.000  0.00  0.00     0.105 C 
ATOM     19  N   UNL d   1      -3.846   2.558   0.000  0.00  0.00    -0.224 N 
ATOM     20  O   UNL d   1      -4.562   1.321   0.000  0.00  0.00    -0.245 OA
ATOM     21  C   UNL d   1      -3.138   2.983   0.000  0.00  0.00     0.271 A 
ATOM     22  C   UNL d   1      -4.562   2.971   0.000  0.00  0.00     0.107 C 
ATOM     23  C   UNL d   1      -2.425   2.558   0.000  0.00  0.00     0.101 A 
ATOM     24  O   UNL d   1      -3.138   3.800   0.000  0.00  0.00    -0.266 OA
ENDBRANCH  14  15
ENDBRANCH   2  14
TORSDOF 3
