REMARK  3 active torsions:
REMARK  status: ('A' for Active; 'I' for Inactive)
REMARK    1  A    between atoms: C_9  and  N_1 
REMARK    2  A    between atoms: C_5  and  C_9 
REMARK       I    between atoms: N_8  and  C_5 
REMARK    3  A    between atoms: O_14  and  C_12 
ROOT
ATOM      1  N   UNL d   1      -1.591   1.209   0.000  0.00  0.00    -0.268 N 
ATOM      2  C   UNL d   1      -2.301   0.798   0.000  0.00  0.00     0.265 A 
ATOM      3  C   UNL d   1      -3.016   1.217   0.000  0.00  0.00     0.059 A 
ATOM      4  C   UNL d   1      -3.012   2.040   0.000  0.00  0.00     0.028 A 
ATOM      5  C   UNL d   1      -2.301   2.451   0.000  0.00  0.00     0.021 A 
ATOM      6  C   UNL d   1      -1.591   2.040   0.000  0.00  0.00     0.083 A 
ATOM      7  O   UNL d   1      -2.306  -0.025   0.000  0.00  0.00    -0.267 OA
ATOM      8  C   UNL d   1      -3.726   2.451   0.000  0.00  0.00     0.094 A 
ATOM      9  C   UNL d   1      -3.726   0.798   0.000  0.00  0.00     0.005 A 
ATOM     10  C   UNL d   1      -4.445   1.209   0.000  0.00  0.00     0.002 A 
ATOM     11  C   UNL d   1      -4.445   2.031   0.000  0.00  0.00     0.024 A 
ENDROOT
BRANCH   1  12
ATOM     12  C   UNL d   1      -0.881   0.798   0.000  0.00  0.00     0.144 C 
BRANCH  12  13
ATOM     13  C   UNL d   1      -0.158   1.209   0.000  0.00  0.00     0.283 C 
ATOM     14  N   UNL d   1      -0.162   2.031   0.000  0.00  0.00    -0.271 N 
ATOM     15  C   UNL d   1       0.623   2.376   0.000  0.00  0.00     0.083 A 
ATOM     16  C   UNL d   1      -0.843   2.330   0.000  0.00  0.00     0.083 A 
ATOM     17  C   UNL d   1       0.877   3.049   0.000  0.00  0.00     0.019 A 
ATOM     18  C   UNL d   1       0.436   3.760   0.000  0.00  0.00     0.002 A 
ATOM     19  C   UNL d   1      -0.445   3.822   0.000  0.00  0.00     0.002 A 
ATOM     20  C   UNL d   1      -1.043   3.161   0.000  0.00  0.00     0.019 A 
ATOM     21  O   UNL d   1       0.548   0.806   0.000  0.00  0.00    -0.265 OA
ENDBRANCH  12  13
ENDBRANCH   1  12
BRANCH   8  22
ATOM     22  O   UNL d   1      -3.735   3.273   0.000  0.00  0.00    -0.328 OA
ATOM     23  C   UNL d   1      -4.445   3.676   0.000  0.00  0.00     0.181 C 
ENDBRANCH   8  22
TORSDOF 3
