REMARK  6 active torsions:
REMARK  status: ('A' for Active; 'I' for Inactive)
REMARK    1  A    between atoms: N_2  and  S_1 
REMARK    2  A    between atoms: C_6  and  S_1 
REMARK    3  A    between atoms: S_7  and  C_3 
REMARK    4  A    between atoms: N_4  and  C_10 
REMARK    5  A    between atoms: C_21  and  S_7 
REMARK    6  A    between atoms: C_20  and  C_21 
ROOT
ATOM      1  N   UNL d   1      -3.263   2.756   0.000  0.00  0.00    -0.208 N 
ATOM      2  C   UNL d   1      -3.522   1.966   0.000  0.00  0.00     0.189 A 
ATOM      3  N   UNL d   1      -4.350   1.966   0.000  0.00  0.00    -0.219 NA
ATOM      4  C   UNL d   1      -3.936   3.246   0.000  0.00  0.00     0.114 A 
ATOM      5  C   UNL d   1      -4.601   2.756   0.000  0.00  0.00     0.121 A 
ENDROOT
BRANCH   1   6
ATOM      6  S   UNL d   1      -2.472   3.007   0.000  0.00  0.00     0.273 S 
ATOM      7  O   UNL d   1      -2.259   2.217   0.000  0.00  0.00    -0.200 OA
ATOM      8  O   UNL d   1      -1.644   3.007   0.000  0.00  0.00    -0.200 OA
BRANCH   6   9
ATOM      9  C   UNL d   1      -2.668   3.810   0.000  0.00  0.00     0.104 A 
ATOM     10  C   UNL d   1      -3.459   4.032   0.000  0.00  0.00     0.015 A 
ATOM     11  C   UNL d   1      -3.660   4.835   0.000  0.00  0.00     0.024 A 
ATOM     12  C   UNL d   1      -3.058   5.400   0.000  0.00  0.00     0.127 A 
ATOM     13  C   UNL d   1      -2.267   5.170   0.000  0.00  0.00     0.024 A 
ATOM     14  C   UNL d   1      -2.066   4.371   0.000  0.00  0.00     0.015 A 
BRANCH  12  15
ATOM     15  N   UNL d   1      -3.258   6.211   0.000  0.00  0.00    -0.114 N 
ATOM     16  O   UNL d   1      -2.656   6.780   0.000  0.00  0.00    -0.532 OA
ATOM     17  O   UNL d   1      -4.049   6.441   0.000  0.00  0.00    -0.532 OA
ENDBRANCH  12  15
ENDBRANCH   6   9
ENDBRANCH   1   6
BRANCH   2  18
ATOM     18  S   UNL d   1      -3.032   1.292   0.000  0.00  0.00    -0.049 SA
BRANCH  18  19
ATOM     19  C   UNL d   1      -3.371   0.540   0.000  0.00  0.00     0.040 C 
BRANCH  19  20
ATOM     20  C   UNL d   1      -4.191   0.460   0.000  0.00  0.00     0.026 A 
ATOM     21  C   UNL d   1      -4.538  -0.305   0.000  0.00  0.00     0.099 A 
ATOM     22  N   UNL d   1      -5.354  -0.402   0.000  0.00  0.00    -0.242 NA
ATOM     23  C   UNL d   1      -5.831   0.272   0.000  0.00  0.00     0.099 A 
ATOM     24  C   UNL d   1      -5.496   1.025   0.000  0.00  0.00     0.021 A 
ATOM     25  C   UNL d   1      -4.676   1.117   0.000  0.00  0.00     0.004 A 
ENDBRANCH  19  20
ENDBRANCH  18  19
ENDBRANCH   2  18
TORSDOF 6
