REMARK  3 active torsions:
REMARK  status: ('A' for Active; 'I' for Inactive)
REMARK    1  A    between atoms: N_7  and  C_3 
REMARK       I    between atoms: C_8  and  N_7 
REMARK    2  A    between atoms: C_14  and  C_8 
REMARK    3  A    between atoms: C_15  and  C_14 
ROOT
ATOM      1  C   UNL d   1      -3.846   1.733   0.000  0.00  0.00     0.343 A 
ATOM      2  N   UNL d   1      -3.138   1.325   0.000  0.00  0.00    -0.241 N 
ATOM      3  C   UNL d   1      -2.425   1.733   0.000  0.00  0.00     0.159 A 
ATOM      4  N   UNL d   1      -3.846   2.558   0.000  0.00  0.00    -0.224 N 
ATOM      5  C   UNL d   1      -2.425   2.558   0.000  0.00  0.00     0.099 A 
ATOM      6  C   UNL d   1      -3.138   2.983   0.000  0.00  0.00     0.271 A 
ATOM      7  O   UNL d   1      -4.562   1.321   0.000  0.00  0.00    -0.245 OA
ATOM      8  O   UNL d   1      -3.138   3.800   0.000  0.00  0.00    -0.266 OA
ATOM      9  C   UNL d   1      -3.138   0.500   0.000  0.00  0.00     0.105 C 
ATOM     10  C   UNL d   1      -4.562   2.971   0.000  0.00  0.00     0.107 C 
ENDROOT
BRANCH   3  11
ATOM     11  N   UNL d   1      -1.708   1.321   0.000  0.00  0.00    -0.190 NA
ATOM     12  C   UNL d   1      -0.996   1.733   0.000  0.00  0.00     0.281 C 
ATOM     13  O   UNL d   1      -0.996   2.558   0.000  0.00  0.00    -0.265 OA
BRANCH  12  14
ATOM     14  C   UNL d   1      -0.283   1.321   0.000  0.00  0.00     0.063 C 
BRANCH  14  15
ATOM     15  C   UNL d   1       0.429   1.738   0.000  0.00  0.00     0.005 C 
ATOM     16  C   UNL d   1       0.442   2.546   0.000  0.00  0.00     0.000 C 
ENDBRANCH  14  15
ENDBRANCH  12  14
ENDBRANCH   3  11
TORSDOF 3
