REMARK  5 active torsions:
REMARK  status: ('A' for Active; 'I' for Inactive)
REMARK    1  A    between atoms: C_8  and  C_1 
REMARK    2  A    between atoms: N_9  and  C_8 
REMARK    3  A    between atoms: C_15  and  C_8 
REMARK    4  A    between atoms: C_16  and  N_11 
REMARK    5  A    between atoms: C_19  and  C_16 
ROOT
ATOM      1  C   UNL d   1      -1.224   2.328   0.000  0.00  0.00     0.075 C 
ENDROOT
BRANCH   1   2
ATOM      2  C   UNL d   1      -2.052   2.345   0.000  0.00  0.00     0.106 A 
ATOM      3  C   UNL d   1      -2.528   3.030   0.000  0.00  0.00     0.290 A 
ATOM      4  N   UNL d   1      -3.318   2.792   0.000  0.00  0.00    -0.169 N 
ATOM      5  O   UNL d   1      -2.253   3.812   0.000  0.00  0.00    -0.265 OA
ATOM      6  N   UNL d   1      -4.096   3.059   0.000  0.00  0.00    -0.138 NA
ATOM      7  C   UNL d   1      -3.335   1.964   0.000  0.00  0.00     0.200 A 
ATOM      8  C   UNL d   1      -4.597   2.403   0.000  0.00  0.00     0.222 A 
ATOM      9  N   UNL d   1      -4.125   1.726   0.000  0.00  0.00    -0.197 NA
ATOM     10  S   UNL d   1      -2.558   1.688   0.000  0.00  0.00    -0.042 SA
ENDBRANCH   1   2
BRANCH   1  11
ATOM     11  N   UNL d   1      -0.836   1.601   0.000  0.00  0.00    -0.301 N 
ATOM     12  C   UNL d   1      -0.008   1.580   0.000  0.00  0.00     0.100 A 
ATOM     13  C   UNL d   1       0.389   0.853   0.000  0.00  0.00     0.100 A 
ATOM     14  N   UNL d   1      -0.046   0.138   0.000  0.00  0.00    -0.300 N 
ATOM     15  C   UNL d   1      -0.873   0.171   0.000  0.00  0.00     0.100 A 
ATOM     16  C   UNL d   1      -1.262   0.898   0.000  0.00  0.00     0.100 A 
BRANCH  14  17
ATOM     17  C   UNL d   1       0.343  -0.581   0.000  0.00  0.00     0.080 C 
BRANCH  17  18
ATOM     18  C   UNL d   1      -0.088  -1.283   0.000  0.00  0.00     0.018 A 
ATOM     19  C   UNL d   1      -0.911  -1.266   0.000  0.00  0.00     0.002 A 
ATOM     20  C   UNL d   1      -1.341  -1.960   0.000  0.00  0.00     0.000 A 
ATOM     21  C   UNL d   1      -0.949  -2.687   0.000  0.00  0.00     0.000 A 
ATOM     22  C   UNL d   1      -0.121  -2.712   0.000  0.00  0.00     0.000 A 
ATOM     23  C   UNL d   1       0.305  -2.006   0.000  0.00  0.00     0.002 A 
ENDBRANCH  17  18
ENDBRANCH  14  17
ENDBRANCH   1  11
BRANCH   1  24
ATOM     24  C   UNL d   1      -0.798   3.030   0.000  0.00  0.00     0.017 A 
ATOM     25  C   UNL d   1       0.029   2.997   0.000  0.00  0.00     0.002 A 
ATOM     26  C   UNL d   1       0.456   3.707   0.000  0.00  0.00     0.000 A 
ATOM     27  C   UNL d   1       0.075   4.418   0.000  0.00  0.00     0.000 A 
ATOM     28  C   UNL d   1      -0.765   4.430   0.000  0.00  0.00     0.000 A 
ATOM     29  C   UNL d   1      -1.191   3.745   0.000  0.00  0.00     0.002 A 
ENDBRANCH   1  24
TORSDOF 5
