REMARK  2 active torsions:
REMARK  status: ('A' for Active; 'I' for Inactive)
REMARK    1  A    between atoms: N_7  and  C_3 
REMARK       I    between atoms: C_8  and  N_7 
REMARK    2  A    between atoms: C_9  and  C_8 
ROOT
ATOM      1  N   UNL d   1      -1.710   1.322   0.000  0.00  0.00    -0.190 NA
ATOM      2  C   UNL d   1      -0.997   1.735   0.000  0.00  0.00     0.281 C 
ATOM      3  O   UNL d   1      -0.997   2.560   0.000  0.00  0.00    -0.265 OA
ENDROOT
BRANCH   1   4
ATOM      4  C   UNL d   1      -2.427   1.735   0.000  0.00  0.00     0.159 A 
ATOM      5  N   UNL d   1      -3.140   1.326   0.000  0.00  0.00    -0.241 N 
ATOM      6  C   UNL d   1      -3.849   1.735   0.000  0.00  0.00     0.343 A 
ATOM      7  C   UNL d   1      -3.140   0.500   0.000  0.00  0.00     0.105 C 
ATOM      8  N   UNL d   1      -3.849   2.560   0.000  0.00  0.00    -0.224 N 
ATOM      9  O   UNL d   1      -4.566   1.322   0.000  0.00  0.00    -0.245 OA
ATOM     10  C   UNL d   1      -3.140   2.986   0.000  0.00  0.00     0.271 A 
ATOM     11  C   UNL d   1      -4.566   2.973   0.000  0.00  0.00     0.107 C 
ATOM     12  C   UNL d   1      -2.427   2.560   0.000  0.00  0.00     0.099 A 
ATOM     13  O   UNL d   1      -3.140   3.803   0.000  0.00  0.00    -0.266 OA
ENDBRANCH   1   4
BRANCH   2  14
ATOM     14  C   UNL d   1      -0.283   1.322   0.000  0.00  0.00     0.069 A 
ATOM     15  C   UNL d   1      -0.296   0.521   0.000  0.00  0.00     0.062 A 
ATOM     16  C   UNL d   1       0.405   0.096   0.000  0.00  0.00     0.012 A 
ATOM     17 CL   UNL d   1      -1.022   0.113   0.000  0.00  0.00    -0.082 Cl
ATOM     18  C   UNL d   1       1.126   0.496   0.000  0.00  0.00     0.008 A 
ATOM     19  C   UNL d   1       1.130   1.309   0.000  0.00  0.00     0.035 A 
ATOM     20  C   UNL d   1       0.429   1.739   0.000  0.00  0.00     0.012 A 
ATOM     21 BR   UNL d   1       1.868   1.710   0.000  0.00  0.00    -0.049 Br
ENDBRANCH   2  14
TORSDOF 2
