REMARK  3 active torsions:
REMARK  status: ('A' for Active; 'I' for Inactive)
REMARK    1  A    between atoms: C_8  and  C_1 
REMARK    2  A    between atoms: N_7  and  C_8 
REMARK    3  A    between atoms: C_13  and  C_8 
ROOT
ATOM      1  C   UNL d   1      -1.220   2.320   0.000  0.00  0.00     0.075 C 
ENDROOT
BRANCH   1   2
ATOM      2  N   UNL d   1      -0.833   1.595   0.000  0.00  0.00    -0.303 N 
ATOM      3  C   UNL d   1      -1.258   0.896   0.000  0.00  0.00     0.080 A 
ATOM      4  C   UNL d   1      -0.862   0.171   0.000  0.00  0.00     0.018 A 
ATOM      5  C   UNL d   1      -1.287  -0.529   0.000  0.00  0.00     0.002 C 
ATOM      6  C   UNL d   1      -0.037   0.146   0.000  0.00  0.00     0.003 A 
ATOM      7  C   UNL d   1       0.379   0.858   0.000  0.00  0.00     0.019 A 
ATOM      8  C   UNL d   1      -0.013   1.583   0.000  0.00  0.00     0.080 A 
ENDBRANCH   1   2
BRANCH   1   9
ATOM      9  C   UNL d   1      -2.045   2.337   0.000  0.00  0.00     0.106 A 
ATOM     10  C   UNL d   1      -2.520   3.020   0.000  0.00  0.00     0.290 A 
ATOM     11  N   UNL d   1      -3.308   2.783   0.000  0.00  0.00    -0.169 N 
ATOM     12  O   UNL d   1      -2.245   3.799   0.000  0.00  0.00    -0.265 OA
ATOM     13  N   UNL d   1      -4.082   3.049   0.000  0.00  0.00    -0.138 NA
ATOM     14  C   UNL d   1      -3.324   1.958   0.000  0.00  0.00     0.200 A 
ATOM     15  C   UNL d   1      -4.582   2.395   0.000  0.00  0.00     0.222 A 
ATOM     16  N   UNL d   1      -4.112   1.720   0.000  0.00  0.00    -0.197 NA
ATOM     17  S   UNL d   1      -2.550   1.683   0.000  0.00  0.00    -0.042 SA
ENDBRANCH   1   9
BRANCH   1  18
ATOM     18  C   UNL d   1      -0.796   3.020   0.000  0.00  0.00     0.017 A 
ATOM     19  C   UNL d   1      -1.187   3.732   0.000  0.00  0.00     0.002 A 
ATOM     20  C   UNL d   1      -0.762   4.416   0.000  0.00  0.00     0.000 A 
ATOM     21  C   UNL d   1       0.075   4.403   0.000  0.00  0.00     0.000 A 
ATOM     22  C   UNL d   1       0.454   3.695   0.000  0.00  0.00     0.000 A 
ATOM     23  C   UNL d   1       0.029   2.987   0.000  0.00  0.00     0.002 A 
ENDBRANCH   1  18
TORSDOF 3
