REMARK  5 active torsions:
REMARK  status: ('A' for Active; 'I' for Inactive)
REMARK    1  A    between atoms: N_7  and  C_4 
REMARK    2  A    between atoms: N_9  and  N_7 
REMARK       I    between atoms: C_8  and  N_9 
REMARK    3  A    between atoms: C_11  and  C_8 
REMARK    4  A    between atoms: C_14  and  C_11 
REMARK    5  A    between atoms: C_15  and  C_11 
ROOT
ATOM      1  C   UNL d   1      -0.284   1.323   0.000  0.00  0.00     0.297 C 
ATOM      2  N   UNL d   1      -0.998   1.737   0.000  0.00  0.00    -0.104 NA
ATOM      3  O   UNL d   1      -0.284   0.497   0.000  0.00  0.00    -0.264 OA
ENDROOT
BRANCH   1   4
ATOM      4  C   UNL d   1       0.430   1.737   0.000  0.00  0.00     0.059 C 
BRANCH   4   5
ATOM      5  C   UNL d   1       0.430   2.564   0.000  0.00  0.00     0.005 A 
ATOM      6  C   UNL d   1       1.144   2.964   0.000  0.00  0.00     0.000 A 
ATOM      7  C   UNL d   1       1.152   3.783   0.000  0.00  0.00     0.000 A 
ATOM      8  C   UNL d   1       0.426   4.188   0.000  0.00  0.00     0.000 A 
ATOM      9  C   UNL d   1      -0.284   3.783   0.000  0.00  0.00     0.000 A 
ATOM     10  C   UNL d   1      -0.276   2.977   0.000  0.00  0.00     0.000 A 
ENDBRANCH   4   5
BRANCH   4  11
ATOM     11  C   UNL d   1       1.144   1.323   0.000  0.00  0.00     0.005 A 
ATOM     12  C   UNL d   1       1.131   0.509   0.000  0.00  0.00     0.000 A 
ATOM     13  C   UNL d   1       1.841   0.088   0.000  0.00  0.00     0.000 A 
ATOM     14  C   UNL d   1       2.559   0.497   0.000  0.00  0.00     0.000 A 
ATOM     15  C   UNL d   1       2.559   1.336   0.000  0.00  0.00     0.000 A 
ATOM     16  C   UNL d   1       1.845   1.737   0.000  0.00  0.00     0.000 A 
ENDBRANCH   4  11
ENDBRANCH   1   4
BRANCH   2  17
ATOM     17  N   UNL d   1      -1.712   1.323   0.000  0.00  0.00    -0.127 NA
BRANCH  17  18
ATOM     18  C   UNL d   1      -2.430   1.737   0.000  0.00  0.00     0.178 A 
ATOM     19  N   UNL d   1      -3.144   1.328   0.000  0.00  0.00    -0.240 N 
ATOM     20  C   UNL d   1      -3.854   1.737   0.000  0.00  0.00     0.343 A 
ATOM     21  C   UNL d   1      -3.144   0.501   0.000  0.00  0.00     0.105 C 
ATOM     22  N   UNL d   1      -3.854   2.564   0.000  0.00  0.00    -0.224 N 
ATOM     23  O   UNL d   1      -4.572   1.323   0.000  0.00  0.00    -0.245 OA
ATOM     24  C   UNL d   1      -3.144   2.990   0.000  0.00  0.00     0.271 A 
ATOM     25  C   UNL d   1      -4.572   2.977   0.000  0.00  0.00     0.107 C 
ATOM     26  C   UNL d   1      -2.430   2.564   0.000  0.00  0.00     0.101 A 
ATOM     27  O   UNL d   1      -3.144   3.808   0.000  0.00  0.00    -0.266 OA
ENDBRANCH  17  18
ENDBRANCH   2  17
TORSDOF 5
