REMARK  5 active torsions:
REMARK  status: ('A' for Active; 'I' for Inactive)
REMARK    1  A    between atoms: N_2  and  S_1 
REMARK    2  A    between atoms: C_4  and  S_1 
REMARK    3  A    between atoms: S_8  and  C_3 
REMARK    4  A    between atoms: C_18  and  S_8 
REMARK    5  A    between atoms: C_17  and  C_18 
ROOT
ATOM      1  N   UNL d   1      -3.260   2.754   0.000  0.00  0.00    -0.208 N 
ATOM      2  C   UNL d   1      -3.519   1.964   0.000  0.00  0.00     0.189 A 
ATOM      3  N   UNL d   1      -4.347   1.964   0.000  0.00  0.00    -0.219 NA
ATOM      4  C   UNL d   1      -3.933   3.243   0.000  0.00  0.00     0.114 A 
ATOM      5  C   UNL d   1      -4.598   2.754   0.000  0.00  0.00     0.121 A 
ENDROOT
BRANCH   1   6
ATOM      6  S   UNL d   1      -2.470   3.005   0.000  0.00  0.00     0.273 S 
ATOM      7  O   UNL d   1      -1.643   3.005   0.000  0.00  0.00    -0.200 OA
ATOM      8  O   UNL d   1      -2.257   2.215   0.000  0.00  0.00    -0.200 OA
BRANCH   6   9
ATOM      9  C   UNL d   1      -2.667   3.808   0.000  0.00  0.00     0.104 A 
ATOM     10  C   UNL d   1      -2.065   4.368   0.000  0.00  0.00     0.013 A 
ATOM     11  C   UNL d   1      -2.265   5.170   0.000  0.00  0.00     0.001 A 
ATOM     12  C   UNL d   1      -1.663   5.734   0.000  0.00  0.00     0.000 A 
ATOM     13  C   UNL d   1      -3.055   5.404   0.000  0.00  0.00     0.000 A 
ATOM     14  C   UNL d   1      -1.851   6.537   0.000  0.00  0.00     0.000 A 
ATOM     15  C   UNL d   1      -2.646   6.775   0.000  0.00  0.00     0.000 A 
ATOM     16  C   UNL d   1      -3.243   6.211   0.000  0.00  0.00     0.000 A 
ATOM     17  C   UNL d   1      -3.657   4.840   0.000  0.00  0.00     0.001 A 
ATOM     18  C   UNL d   1      -3.457   4.029   0.000  0.00  0.00     0.013 A 
ENDBRANCH   6   9
ENDBRANCH   1   6
BRANCH   2  19
ATOM     19  S   UNL d   1      -3.030   1.292   0.000  0.00  0.00    -0.049 SA
BRANCH  19  20
ATOM     20  C   UNL d   1      -3.369   0.539   0.000  0.00  0.00     0.040 C 
BRANCH  20  21
ATOM     21  C   UNL d   1      -4.188   0.460   0.000  0.00  0.00     0.026 A 
ATOM     22  C   UNL d   1      -4.535  -0.305   0.000  0.00  0.00     0.099 A 
ATOM     23  N   UNL d   1      -5.350  -0.401   0.000  0.00  0.00    -0.242 NA
ATOM     24  C   UNL d   1      -5.826   0.272   0.000  0.00  0.00     0.099 A 
ATOM     25  C   UNL d   1      -5.492   1.024   0.000  0.00  0.00     0.021 A 
ATOM     26  C   UNL d   1      -4.673   1.116   0.000  0.00  0.00     0.004 A 
ENDBRANCH  20  21
ENDBRANCH  19  20
ENDBRANCH   2  19
TORSDOF 5
