REMARK  6 active torsions:
REMARK  status: ('A' for Active; 'I' for Inactive)
REMARK    1  A    between atoms: C_5  and  N_1 
REMARK    2  A    between atoms: C_4  and  C_5 
REMARK       I    between atoms: N_8  and  C_4 
REMARK    3  A    between atoms: C_6  and  C_9 
REMARK    4  A    between atoms: O_19  and  C_6 
REMARK    5  A    between atoms: C_16  and  N_8 
REMARK    6  A    between atoms: C_22  and  O_19 
ROOT
ATOM      1  C   UNL d   1      -4.996   1.671   0.000  0.00  0.00     0.297 C 
ATOM      2  N   UNL d   1      -4.596   0.946   0.000  0.00  0.00    -0.207 NA
ATOM      3  O   UNL d   1      -5.821   1.683   0.000  0.00  0.00    -0.264 OA
ENDROOT
BRANCH   2   4
ATOM      4  C   UNL d   1      -5.021   0.237   0.000  0.00  0.00     0.085 A 
ATOM      5  C   UNL d   1      -5.846   0.250   0.000  0.00  0.00     0.019 A 
ATOM      6  C   UNL d   1      -6.254  -0.463   0.000  0.00  0.00     0.007 A 
ATOM      7  C   UNL d   1      -5.858  -1.179   0.000  0.00  0.00     0.064 A 
ATOM      8  C   UNL d   1      -5.033  -1.188   0.000  0.00  0.00     0.007 A 
ATOM      9  C   UNL d   1      -4.608  -0.479   0.000  0.00  0.00     0.019 A 
BRANCH   7  10
ATOM     10  C   UNL d   1      -6.279  -1.892   0.000  0.00  0.00     0.300 C 
ATOM     11  O   UNL d   1      -7.104  -1.879   0.000  0.00  0.00    -0.259 OA
BRANCH  10  12
ATOM     12  O   UNL d   1      -5.883  -2.604   0.000  0.00  0.00    -0.271 OA
BRANCH  12  13
ATOM     13  C   UNL d   1      -6.292  -3.317   0.000  0.00  0.00     0.126 C 
ATOM     14  C   UNL d   1      -5.896  -4.029   0.000  0.00  0.00     0.029 C 
ENDBRANCH  12  13
ENDBRANCH  10  12
ENDBRANCH   7  10
ENDBRANCH   2   4
BRANCH   1  15
ATOM     15  C   UNL d   1      -4.583   2.375   0.000  0.00  0.00     0.148 C 
BRANCH  15  16
ATOM     16  N   UNL d   1      -3.758   2.371   0.000  0.00  0.00    -0.235 N 
ATOM     17  C   UNL d   1      -3.350   1.650   0.000  0.00  0.00     0.274 A 
ATOM     18  O   UNL d   1      -3.771   0.938   0.000  0.00  0.00    -0.266 OA
ATOM     19  C   UNL d   1      -2.533   1.646   0.000  0.00  0.00     0.097 A 
ATOM     20  S   UNL d   1      -2.108   2.346   0.000  0.00  0.00    -0.076 SA
ATOM     21  C   UNL d   1      -2.508   3.062   0.000  0.00  0.00     0.097 A 
ATOM     22  C   UNL d   1      -3.333   3.083   0.000  0.00  0.00     0.274 A 
ATOM     23  O   UNL d   1      -3.737   3.800   0.000  0.00  0.00    -0.266 OA
ENDBRANCH  15  16
ENDBRANCH   1  15
TORSDOF 6
