REMARK  3 active torsions:
REMARK  status: ('A' for Active; 'I' for Inactive)
REMARK    1  A    between atoms: C_5  and  N_1 
REMARK    2  A    between atoms: C_4  and  C_5 
REMARK       I    between atoms: N_8  and  C_4 
REMARK    3  A    between atoms: C_13  and  N_8 
ROOT
ATOM      1  C   UNL d   1      -5.006   1.666   0.000  0.00  0.00     0.297 C 
ATOM      2  N   UNL d   1      -4.593   0.960   0.000  0.00  0.00    -0.207 NA
ATOM      3  O   UNL d   1      -5.833   1.674   0.000  0.00  0.00    -0.264 OA
ENDROOT
BRANCH   1   4
ATOM      4  C   UNL d   1      -4.593   2.380   0.000  0.00  0.00     0.148 C 
BRANCH   4   5
ATOM      5  N   UNL d   1      -3.766   2.376   0.000  0.00  0.00    -0.235 N 
ATOM      6  C   UNL d   1      -3.357   1.653   0.000  0.00  0.00     0.274 A 
ATOM      7  O   UNL d   1      -3.779   0.939   0.000  0.00  0.00    -0.266 OA
ATOM      8  C   UNL d   1      -2.539   1.649   0.000  0.00  0.00     0.097 A 
ATOM      9  S   UNL d   1      -2.113   2.351   0.000  0.00  0.00    -0.076 SA
ATOM     10  C   UNL d   1      -2.514   3.069   0.000  0.00  0.00     0.097 A 
ATOM     11  C   UNL d   1      -3.340   3.090   0.000  0.00  0.00     0.274 A 
ATOM     12  O   UNL d   1      -3.745   3.808   0.000  0.00  0.00    -0.266 OA
ENDBRANCH   4   5
ENDBRANCH   1   4
BRANCH   2  13
ATOM     13  C   UNL d   1      -5.006   0.246   0.000  0.00  0.00     0.087 A 
ATOM     14  C   UNL d   1      -4.593  -0.468   0.000  0.00  0.00     0.045 A 
ATOM     15  C   UNL d   1      -4.994  -1.182   0.000  0.00  0.00     0.121 A 
ATOM     16  O   UNL d   1      -4.735  -1.971   0.000  0.00  0.00    -0.299 OA
ATOM     17  C   UNL d   1      -5.820  -1.190   0.000  0.00  0.00     0.119 A 
ATOM     18  C   UNL d   1      -5.407  -2.459   0.000  0.00  0.00     0.304 A 
ATOM     19  O   UNL d   1      -6.067  -1.971   0.000  0.00  0.00    -0.300 OA
ATOM     20  C   UNL d   1      -6.230  -0.468   0.000  0.00  0.00     0.028 A 
ATOM     21  C   UNL d   1      -5.824   0.246   0.000  0.00  0.00     0.021 A 
ENDBRANCH   2  13
TORSDOF 3
