REMARK  5 active torsions:
REMARK  status: ('A' for Active; 'I' for Inactive)
REMARK    1  A    between atoms: N_2  and  S_1 
REMARK    2  A    between atoms: C_8  and  S_1 
REMARK    3  A    between atoms: S_7  and  C_3 
REMARK    4  A    between atoms: C_11  and  S_7 
REMARK    5  A    between atoms: C_12  and  C_11 
ROOT
ATOM      1  N   UNL d   1      -3.268   2.761   0.000  0.00  0.00    -0.208 N 
ATOM      2  C   UNL d   1      -3.527   1.969   0.000  0.00  0.00     0.189 A 
ATOM      3  N   UNL d   1      -4.357   1.969   0.000  0.00  0.00    -0.219 NA
ATOM      4  C   UNL d   1      -3.942   3.251   0.000  0.00  0.00     0.114 A 
ATOM      5  C   UNL d   1      -4.608   2.761   0.000  0.00  0.00     0.121 A 
ENDROOT
BRANCH   1   6
ATOM      6  S   UNL d   1      -2.476   3.012   0.000  0.00  0.00     0.273 S 
ATOM      7  O   UNL d   1      -2.262   2.220   0.000  0.00  0.00    -0.200 OA
ATOM      8  O   UNL d   1      -1.646   3.012   0.000  0.00  0.00    -0.200 OA
BRANCH   6   9
ATOM      9  C   UNL d   1      -2.673   3.817   0.000  0.00  0.00     0.104 A 
ATOM     10  C   UNL d   1      -2.074   4.378   0.000  0.00  0.00     0.013 A 
ATOM     11  C   UNL d   1      -2.271   5.178   0.000  0.00  0.00     0.001 A 
ATOM     12  C   UNL d   1      -3.062   5.409   0.000  0.00  0.00     0.000 A 
ATOM     13  C   UNL d   1      -3.657   4.843   0.000  0.00  0.00     0.001 A 
ATOM     14  C   UNL d   1      -3.456   4.039   0.000  0.00  0.00     0.013 A 
ENDBRANCH   6   9
ENDBRANCH   1   6
BRANCH   2  15
ATOM     15  S   UNL d   1      -3.037   1.294   0.000  0.00  0.00    -0.049 SA
BRANCH  15  16
ATOM     16  C   UNL d   1      -3.377   0.540   0.000  0.00  0.00     0.038 C 
BRANCH  16  17
ATOM     17  C   UNL d   1      -4.206   0.461   0.000  0.00  0.00     0.007 A 
ATOM     18  C   UNL d   1      -4.558  -0.293   0.000  0.00  0.00     0.001 A 
ATOM     19  C   UNL d   1      -5.375  -0.377   0.000  0.00  0.00     0.000 A 
ATOM     20  C   UNL d   1      -5.853   0.297   0.000  0.00  0.00     0.000 A 
ATOM     21  C   UNL d   1      -5.505   1.052   0.000  0.00  0.00     0.000 A 
ATOM     22  C   UNL d   1      -6.674   0.222   0.000  0.00  0.00     0.000 C 
ATOM     23  C   UNL d   1      -4.684   1.131   0.000  0.00  0.00     0.001 A 
ENDBRANCH  16  17
ENDBRANCH  15  16
ENDBRANCH   2  15
TORSDOF 5
