REMARK  4 active torsions:
REMARK  status: ('A' for Active; 'I' for Inactive)
REMARK    1  A    between atoms: N_2  and  S_1 
REMARK    2  A    between atoms: C_7  and  S_1 
REMARK    3  A    between atoms: S_9  and  C_3 
REMARK    4  A    between atoms: C_13  and  S_9 
ROOT
ATOM      1  S   UNL d   1      -2.476   3.013   0.000  0.00  0.00     0.273 S 
ATOM      2  O   UNL d   1      -2.263   2.221   0.000  0.00  0.00    -0.200 OA
ATOM      3  O   UNL d   1      -1.647   3.013   0.000  0.00  0.00    -0.200 OA
ENDROOT
BRANCH   1   4
ATOM      4  N   UNL d   1      -3.268   2.761   0.000  0.00  0.00    -0.208 N 
ATOM      5  C   UNL d   1      -3.528   1.969   0.000  0.00  0.00     0.189 A 
ATOM      6  N   UNL d   1      -4.358   1.969   0.000  0.00  0.00    -0.219 NA
ATOM      7  C   UNL d   1      -4.609   2.761   0.000  0.00  0.00     0.121 A 
ATOM      8  C   UNL d   1      -3.943   3.252   0.000  0.00  0.00     0.114 A 
BRANCH   5   9
ATOM      9  S   UNL d   1      -3.038   1.295   0.000  0.00  0.00    -0.049 SA
BRANCH   9  10
ATOM     10  C   UNL d   1      -3.377   0.540   0.000  0.00  0.00     0.038 C 
ATOM     11  C   UNL d   1      -4.199   0.461   0.000  0.00  0.00     0.008 C 
ENDBRANCH   9  10
ENDBRANCH   5   9
ENDBRANCH   1   4
BRANCH   1  12
ATOM     12  C   UNL d   1      -2.673   3.817   0.000  0.00  0.00     0.104 A 
ATOM     13  C   UNL d   1      -2.074   4.379   0.000  0.00  0.00     0.013 A 
ATOM     14  C   UNL d   1      -2.271   5.179   0.000  0.00  0.00     0.001 A 
ATOM     15  C   UNL d   1      -3.063   5.410   0.000  0.00  0.00     0.000 A 
ATOM     16  C   UNL d   1      -3.658   4.844   0.000  0.00  0.00     0.001 A 
ATOM     17  C   UNL d   1      -3.457   4.039   0.000  0.00  0.00     0.013 A 
ENDBRANCH   1  12
TORSDOF 4
