REMARK  5 active torsions:
REMARK  status: ('A' for Active; 'I' for Inactive)
REMARK    1  A    between atoms: N_2  and  S_1 
REMARK    2  A    between atoms: C_5  and  S_1 
REMARK    3  A    between atoms: S_6  and  C_3 
REMARK    4  A    between atoms: C_15  and  S_6 
REMARK    5  A    between atoms: C_14  and  C_15 
ROOT
ATOM      1  N   UNL d   1      -3.258   2.752   0.000  0.00  0.00    -0.208 N 
ATOM      2  C   UNL d   1      -3.517   1.963   0.000  0.00  0.00     0.189 A 
ATOM      3  N   UNL d   1      -4.343   1.963   0.000  0.00  0.00    -0.219 NA
ATOM      4  C   UNL d   1      -3.930   3.241   0.000  0.00  0.00     0.114 A 
ATOM      5  C   UNL d   1      -4.594   2.752   0.000  0.00  0.00     0.121 A 
ENDROOT
BRANCH   1   6
ATOM      6  S   UNL d   1      -2.468   3.003   0.000  0.00  0.00     0.273 S 
ATOM      7  O   UNL d   1      -1.641   3.003   0.000  0.00  0.00    -0.200 OA
ATOM      8  O   UNL d   1      -2.255   2.213   0.000  0.00  0.00    -0.200 OA
BRANCH   6   9
ATOM      9  C   UNL d   1      -2.664   3.805   0.000  0.00  0.00     0.104 A 
ATOM     10  C   UNL d   1      -2.063   4.364   0.000  0.00  0.00     0.013 A 
ATOM     11  C   UNL d   1      -2.264   5.166   0.000  0.00  0.00     0.001 A 
ATOM     12  C   UNL d   1      -3.057   5.400   0.000  0.00  0.00     0.000 A 
ATOM     13  C   UNL d   1      -3.654   4.828   0.000  0.00  0.00     0.001 A 
ATOM     14  C   UNL d   1      -3.253   6.202   0.000  0.00  0.00     0.000 C 
ATOM     15  C   UNL d   1      -3.454   4.026   0.000  0.00  0.00     0.013 A 
ENDBRANCH   6   9
ENDBRANCH   1   6
BRANCH   2  16
ATOM     16  S   UNL d   1      -3.028   1.290   0.000  0.00  0.00    -0.049 SA
BRANCH  16  17
ATOM     17  C   UNL d   1      -3.366   0.539   0.000  0.00  0.00     0.040 C 
BRANCH  17  18
ATOM     18  C   UNL d   1      -4.185   0.459   0.000  0.00  0.00     0.026 A 
ATOM     19  C   UNL d   1      -4.531  -0.305   0.000  0.00  0.00     0.099 A 
ATOM     20  N   UNL d   1      -5.346  -0.401   0.000  0.00  0.00    -0.242 NA
ATOM     21  C   UNL d   1      -5.822   0.271   0.000  0.00  0.00     0.099 A 
ATOM     22  C   UNL d   1      -5.488   1.023   0.000  0.00  0.00     0.021 A 
ATOM     23  C   UNL d   1      -4.669   1.115   0.000  0.00  0.00     0.004 A 
ENDBRANCH  17  18
ENDBRANCH  16  17
ENDBRANCH   2  16
TORSDOF 5
