REMARK  5 active torsions:
REMARK  status: ('A' for Active; 'I' for Inactive)
REMARK    1  A    between atoms: C_7  and  N_1 
REMARK    2  A    between atoms: C_15  and  C_5 
REMARK    3  A    between atoms: C_14  and  C_6 
REMARK    4  A    between atoms: C_8  and  C_7 
REMARK       I    between atoms: N_11  and  C_8 
REMARK    5  A    between atoms: C_13  and  N_11 
ROOT
ATOM      1  N   UNL d   1      -3.766   2.376   0.000  0.00  0.00    -0.235 N 
ATOM      2  C   UNL d   1      -3.357   1.653   0.000  0.00  0.00     0.273 A 
ATOM      3  C   UNL d   1      -3.340   3.090   0.000  0.00  0.00     0.273 A 
ATOM      4  S   UNL d   1      -2.113   2.351   0.000  0.00  0.00    -0.077 SA
ATOM      5  C   UNL d   1      -2.514   3.069   0.000  0.00  0.00     0.086 A 
ATOM      6  C   UNL d   1      -2.539   1.649   0.000  0.00  0.00     0.086 A 
ATOM      7  O   UNL d   1      -3.745   3.808   0.000  0.00  0.00    -0.266 OA
ATOM      8  O   UNL d   1      -3.779   0.939   0.000  0.00  0.00    -0.266 OA
ENDROOT
BRANCH   1   9
ATOM      9  C   UNL d   1      -4.593   2.380   0.000  0.00  0.00     0.148 C 
BRANCH   9  10
ATOM     10  C   UNL d   1      -5.006   1.666   0.000  0.00  0.00     0.297 C 
ATOM     11  N   UNL d   1      -4.593   0.952   0.000  0.00  0.00    -0.207 NA
ATOM     12  O   UNL d   1      -5.833   1.674   0.000  0.00  0.00    -0.264 OA
BRANCH  11  13
ATOM     13  C   UNL d   1      -5.006   0.238   0.000  0.00  0.00     0.085 A 
ATOM     14  C   UNL d   1      -5.824   0.238   0.000  0.00  0.00     0.019 A 
ATOM     15  C   UNL d   1      -6.230  -0.476   0.000  0.00  0.00     0.002 A 
ATOM     16  C   UNL d   1      -5.824  -1.194   0.000  0.00  0.00     0.000 A 
ATOM     17  C   UNL d   1      -4.994  -1.190   0.000  0.00  0.00     0.002 A 
ATOM     18  C   UNL d   1      -4.593  -0.476   0.000  0.00  0.00     0.019 A 
ENDBRANCH  11  13
ENDBRANCH   9  10
ENDBRANCH   1   9
BRANCH   6  19
ATOM     19  C   UNL d   1      -2.129   0.923   0.000  0.00  0.00     0.011 C 
ATOM     20  C   UNL d   1      -1.303   0.914   0.000  0.00  0.00     0.001 C 
ENDBRANCH   6  19
BRANCH   5  21
ATOM     21  C   UNL d   1      -2.092   3.779   0.000  0.00  0.00     0.011 C 
ATOM     22  C   UNL d   1      -1.265   3.766   0.000  0.00  0.00     0.001 C 
ENDBRANCH   5  21
TORSDOF 5
