REMARK  3 active torsions:
REMARK  status: ('A' for Active; 'I' for Inactive)
REMARK    1  A    between atoms: N_7  and  C_4 
REMARK    2  A    between atoms: N_9  and  N_7 
REMARK       I    between atoms: C_8  and  N_9 
REMARK    3  A    between atoms: C_10  and  C_8 
ROOT
ATOM      1  N   UNL d   1      -1.712   1.323   0.000  0.00  0.00    -0.127 NA
ENDROOT
BRANCH   1   2
ATOM      2  C   UNL d   1      -2.430   1.737   0.000  0.00  0.00     0.178 A 
ATOM      3  N   UNL d   1      -3.144   1.328   0.000  0.00  0.00    -0.240 N 
ATOM      4  C   UNL d   1      -3.854   1.737   0.000  0.00  0.00     0.343 A 
ATOM      5  C   UNL d   1      -3.144   0.501   0.000  0.00  0.00     0.105 C 
ATOM      6  N   UNL d   1      -3.854   2.564   0.000  0.00  0.00    -0.224 N 
ATOM      7  O   UNL d   1      -4.572   1.323   0.000  0.00  0.00    -0.245 OA
ATOM      8  C   UNL d   1      -3.144   2.990   0.000  0.00  0.00     0.271 A 
ATOM      9  C   UNL d   1      -4.572   2.977   0.000  0.00  0.00     0.107 C 
ATOM     10  C   UNL d   1      -2.430   2.564   0.000  0.00  0.00     0.101 A 
ATOM     11  O   UNL d   1      -3.144   3.808   0.000  0.00  0.00    -0.266 OA
ENDBRANCH   1   2
BRANCH   1  12
ATOM     12  N   UNL d   1      -0.998   1.737   0.000  0.00  0.00    -0.104 NA
ATOM     13  C   UNL d   1      -0.284   1.323   0.000  0.00  0.00     0.297 C 
ATOM     14  O   UNL d   1      -0.284   0.497   0.000  0.00  0.00    -0.264 OA
BRANCH  13  15
ATOM     15  C   UNL d   1       0.430   1.737   0.000  0.00  0.00     0.059 A 
ATOM     16  C   UNL d   1       1.140   1.323   0.000  0.00  0.00     0.005 A 
ATOM     17  C   UNL d   1       1.854   1.729   0.000  0.00  0.00     0.000 A 
ATOM     18  C   UNL d   1       2.568   1.311   0.000  0.00  0.00     0.000 C 
ATOM     19  C   UNL d   1       1.858   2.564   0.000  0.00  0.00     0.000 A 
ATOM     20  C   UNL d   1       1.144   2.977   0.000  0.00  0.00     0.000 A 
ATOM     21  C   UNL d   1       2.572   2.964   0.000  0.00  0.00     0.000 C 
ATOM     22  C   UNL d   1       0.430   2.555   0.000  0.00  0.00     0.005 A 
ENDBRANCH  13  15
ENDBRANCH   1  12
TORSDOF 3
