REMARK  5 active torsions:
REMARK  status: ('A' for Active; 'I' for Inactive)
REMARK    1  A    between atoms: C_6  and  N_1 
REMARK    2  A    between atoms: C_5  and  C_6 
REMARK       I    between atoms: N_7  and  C_5 
REMARK    3  A    between atoms: C_8  and  N_7 
REMARK    4  A    between atoms: O_19  and  C_9 
REMARK    5  A    between atoms: O_20  and  C_17 
ROOT
ATOM      1  C   UNL d   1      -5.335   3.240   0.000  0.00  0.00     0.297 C 
ATOM      2  N   UNL d   1      -6.160   3.240   0.000  0.00  0.00    -0.205 NA
ATOM      3  O   UNL d   1      -4.923   3.955   0.000  0.00  0.00    -0.264 OA
ENDROOT
BRANCH   1   4
ATOM      4  C   UNL d   1      -4.923   2.530   0.000  0.00  0.00     0.148 C 
BRANCH   4   5
ATOM      5  N   UNL d   1      -4.098   2.530   0.000  0.00  0.00    -0.235 N 
ATOM      6  C   UNL d   1      -3.685   3.254   0.000  0.00  0.00     0.273 A 
ATOM      7  C   UNL d   1      -2.860   3.254   0.000  0.00  0.00     0.086 A 
ATOM      8  O   UNL d   1      -4.107   3.969   0.000  0.00  0.00    -0.266 OA
ATOM      9  C   UNL d   1      -2.443   3.969   0.000  0.00  0.00     0.012 C 
ATOM     10  S   UNL d   1      -2.447   2.530   0.000  0.00  0.00    -0.077 SA
ATOM     11  C   UNL d   1      -2.860   1.824   0.000  0.00  0.00     0.097 A 
ATOM     12  C   UNL d   1      -3.685   1.824   0.000  0.00  0.00     0.274 A 
ATOM     13  O   UNL d   1      -4.107   1.100   0.000  0.00  0.00    -0.266 OA
ENDBRANCH   4   5
ENDBRANCH   1   4
BRANCH   2  14
ATOM     14  C   UNL d   1      -6.572   3.955   0.000  0.00  0.00     0.107 A 
ATOM     15  C   UNL d   1      -7.388   3.955   0.000  0.00  0.00     0.114 A 
ATOM     16  C   UNL d   1      -7.801   4.652   0.000  0.00  0.00     0.050 A 
ATOM     17  C   UNL d   1      -7.388   5.376   0.000  0.00  0.00     0.096 A 
ATOM     18  C   UNL d   1      -6.572   5.376   0.000  0.00  0.00     0.026 A 
ATOM     19  C   UNL d   1      -6.160   4.652   0.000  0.00  0.00     0.023 A 
BRANCH  15  20
ATOM     20  O   UNL d   1      -7.815   3.231   0.000  0.00  0.00    -0.327 OA
ATOM     21  C   UNL d   1      -7.402   2.512   0.000  0.00  0.00     0.181 C 
ENDBRANCH  15  20
BRANCH  17  22
ATOM     22  O   UNL d   1      -7.815   6.096   0.000  0.00  0.00    -0.328 OA
ATOM     23  C   UNL d   1      -8.640   6.096   0.000  0.00  0.00     0.181 C 
ENDBRANCH  17  22
ENDBRANCH   2  14
TORSDOF 5
