REMARK  5 active torsions:
REMARK  status: ('A' for Active; 'I' for Inactive)
REMARK    1  A    between atoms: N_2  and  S_1 
REMARK    2  A    between atoms: C_5  and  S_1 
REMARK    3  A    between atoms: S_8  and  C_3 
REMARK    4  A    between atoms: C_13  and  S_8 
REMARK    5  A    between atoms: C_15  and  C_13 
ROOT
ATOM      1  N   UNL d   1      -3.262   2.756   0.000  0.00  0.00    -0.208 N 
ATOM      2  C   UNL d   1      -3.521   1.966   0.000  0.00  0.00     0.189 A 
ATOM      3  N   UNL d   1      -4.349   1.966   0.000  0.00  0.00    -0.219 NA
ATOM      4  C   UNL d   1      -3.935   3.245   0.000  0.00  0.00     0.114 A 
ATOM      5  C   UNL d   1      -4.600   2.756   0.000  0.00  0.00     0.121 A 
ENDROOT
BRANCH   1   6
ATOM      6  S   UNL d   1      -2.472   3.007   0.000  0.00  0.00     0.273 S 
ATOM      7  O   UNL d   1      -1.644   3.007   0.000  0.00  0.00    -0.200 OA
ATOM      8  O   UNL d   1      -2.258   2.216   0.000  0.00  0.00    -0.200 OA
BRANCH   6   9
ATOM      9  C   UNL d   1      -2.668   3.810   0.000  0.00  0.00     0.104 A 
ATOM     10  C   UNL d   1      -2.070   4.370   0.000  0.00  0.00     0.015 A 
ATOM     11  C   UNL d   1      -2.267   5.169   0.000  0.00  0.00     0.030 A 
ATOM     12  C   UNL d   1      -3.061   5.399   0.000  0.00  0.00     0.140 A 
ATOM     13  C   UNL d   1      -3.659   4.835   0.000  0.00  0.00     0.030 A 
ATOM     14  F   UNL d   1      -3.258   6.202   0.000  0.00  0.00    -0.204 F 
ATOM     15  C   UNL d   1      -3.459   4.032   0.000  0.00  0.00     0.015 A 
ENDBRANCH   6   9
ENDBRANCH   1   6
BRANCH   2  16
ATOM     16  S   UNL d   1      -3.032   1.292   0.000  0.00  0.00    -0.049 SA
BRANCH  16  17
ATOM     17  C   UNL d   1      -3.371   0.539   0.000  0.00  0.00     0.038 C 
BRANCH  17  18
ATOM     18  C   UNL d   1      -4.199   0.460   0.000  0.00  0.00     0.007 A 
ATOM     19  C   UNL d   1      -4.550  -0.293   0.000  0.00  0.00     0.001 A 
ATOM     20  C   UNL d   1      -5.366  -0.376   0.000  0.00  0.00     0.000 A 
ATOM     21  C   UNL d   1      -5.842   0.297   0.000  0.00  0.00     0.000 A 
ATOM     22  C   UNL d   1      -5.495   1.050   0.000  0.00  0.00     0.000 A 
ATOM     23  C   UNL d   1      -6.662   0.222   0.000  0.00  0.00     0.000 C 
ATOM     24  C   UNL d   1      -4.676   1.129   0.000  0.00  0.00     0.001 A 
ENDBRANCH  17  18
ENDBRANCH  16  17
ENDBRANCH   2  16
TORSDOF 5
