REMARK  5 active torsions:
REMARK  status: ('A' for Active; 'I' for Inactive)
REMARK    1  A    between atoms: C_7  and  N_1 
REMARK    2  A    between atoms: C_23  and  C_5 
REMARK    3  A    between atoms: C_22  and  C_6 
REMARK    4  A    between atoms: C_8  and  C_7 
REMARK       I    between atoms: N_11  and  C_8 
REMARK    5  A    between atoms: C_17  and  N_11 
ROOT
ATOM      1  C   UNL d   1      -4.590   2.378   0.000  0.00  0.00     0.148 C 
ENDROOT
BRANCH   1   2
ATOM      2  N   UNL d   1      -3.764   2.374   0.000  0.00  0.00    -0.235 N 
ATOM      3  C   UNL d   1      -3.355   1.652   0.000  0.00  0.00     0.273 A 
ATOM      4  C   UNL d   1      -2.537   1.648   0.000  0.00  0.00     0.086 A 
ATOM      5  O   UNL d   1      -3.776   0.939   0.000  0.00  0.00    -0.266 OA
ATOM      6  S   UNL d   1      -2.111   2.349   0.000  0.00  0.00    -0.077 SA
ATOM      7  C   UNL d   1      -2.512   3.067   0.000  0.00  0.00     0.086 A 
ATOM      8  C   UNL d   1      -3.338   3.087   0.000  0.00  0.00     0.273 A 
ATOM      9  O   UNL d   1      -3.743   3.805   0.000  0.00  0.00    -0.266 OA
BRANCH   4  10
ATOM     10  C   UNL d   1      -2.128   0.922   0.000  0.00  0.00     0.011 C 
ATOM     11  C   UNL d   1      -1.302   0.914   0.000  0.00  0.00     0.001 C 
ENDBRANCH   4  10
BRANCH   7  12
ATOM     12  C   UNL d   1      -2.090   3.776   0.000  0.00  0.00     0.011 C 
ATOM     13  C   UNL d   1      -1.264   3.764   0.000  0.00  0.00     0.001 C 
ENDBRANCH   7  12
ENDBRANCH   1   2
BRANCH   1  14
ATOM     14  C   UNL d   1      -5.003   1.665   0.000  0.00  0.00     0.297 C 
ATOM     15  N   UNL d   1      -4.590   0.960   0.000  0.00  0.00    -0.207 NA
ATOM     16  O   UNL d   1      -5.829   1.673   0.000  0.00  0.00    -0.264 OA
BRANCH  15  17
ATOM     17  C   UNL d   1      -5.003   0.246   0.000  0.00  0.00     0.087 A 
ATOM     18  C   UNL d   1      -4.590  -0.467   0.000  0.00  0.00     0.045 A 
ATOM     19  C   UNL d   1      -4.990  -1.181   0.000  0.00  0.00     0.121 A 
ATOM     20  O   UNL d   1      -4.731  -1.969   0.000  0.00  0.00    -0.299 OA
ATOM     21  C   UNL d   1      -5.816  -1.189   0.000  0.00  0.00     0.119 A 
ATOM     22  C   UNL d   1      -5.403  -2.458   0.000  0.00  0.00     0.304 A 
ATOM     23  O   UNL d   1      -6.062  -1.969   0.000  0.00  0.00    -0.300 OA
ATOM     24  C   UNL d   1      -6.225  -0.467   0.000  0.00  0.00     0.028 A 
ATOM     25  C   UNL d   1      -5.821   0.246   0.000  0.00  0.00     0.021 A 
ENDBRANCH  15  17
ENDBRANCH   1  14
TORSDOF 5
