REMARK  4 active torsions:
REMARK  status: ('A' for Active; 'I' for Inactive)
REMARK    1  A    between atoms: C_7  and  N_1 
REMARK    2  A    between atoms: C_8  and  C_7 
REMARK       I    between atoms: N_9  and  C_8 
REMARK    3  A    between atoms: C_13  and  N_9 
REMARK    4  A    between atoms: O_19  and  C_14 
ROOT
ATOM      1  C   UNL d   1      -4.593   2.380   0.000  0.00  0.00     0.148 C 
ENDROOT
BRANCH   1   2
ATOM      2  N   UNL d   1      -3.766   2.376   0.000  0.00  0.00    -0.235 N 
ATOM      3  C   UNL d   1      -3.357   1.653   0.000  0.00  0.00     0.273 A 
ATOM      4  C   UNL d   1      -2.539   1.649   0.000  0.00  0.00     0.086 A 
ATOM      5  O   UNL d   1      -3.779   0.939   0.000  0.00  0.00    -0.266 OA
ATOM      6  C   UNL d   1      -2.129   0.923   0.000  0.00  0.00     0.012 C 
ATOM      7  S   UNL d   1      -2.113   2.351   0.000  0.00  0.00    -0.077 SA
ATOM      8  C   UNL d   1      -2.514   3.069   0.000  0.00  0.00     0.086 A 
ATOM      9  C   UNL d   1      -3.340   3.090   0.000  0.00  0.00     0.273 A 
ATOM     10  C   UNL d   1      -2.092   3.779   0.000  0.00  0.00     0.012 C 
ATOM     11  O   UNL d   1      -3.745   3.808   0.000  0.00  0.00    -0.266 OA
ENDBRANCH   1   2
BRANCH   1  12
ATOM     12  C   UNL d   1      -5.006   1.666   0.000  0.00  0.00     0.297 C 
ATOM     13  N   UNL d   1      -4.593   0.939   0.000  0.00  0.00    -0.207 NA
ATOM     14  O   UNL d   1      -5.833   1.674   0.000  0.00  0.00    -0.264 OA
BRANCH  13  15
ATOM     15  C   UNL d   1      -5.019   0.234   0.000  0.00  0.00     0.085 A 
ATOM     16  C   UNL d   1      -4.605  -0.480   0.000  0.00  0.00     0.021 A 
ATOM     17  C   UNL d   1      -5.010  -1.194   0.000  0.00  0.00     0.026 A 
ATOM     18  C   UNL d   1      -5.845  -1.190   0.000  0.00  0.00     0.094 A 
ATOM     19  C   UNL d   1      -6.242  -0.468   0.000  0.00  0.00     0.026 A 
ATOM     20  C   UNL d   1      -5.833   0.234   0.000  0.00  0.00     0.021 A 
BRANCH  18  21
ATOM     21  O   UNL d   1      -6.255  -1.904   0.000  0.00  0.00    -0.328 OA
ATOM     22  C   UNL d   1      -7.077  -1.896   0.000  0.00  0.00     0.181 C 
ENDBRANCH  18  21
ENDBRANCH  13  15
ENDBRANCH   1  12
TORSDOF 4
