REMARK  4 active torsions:
REMARK  status: ('A' for Active; 'I' for Inactive)
REMARK    1  A    between atoms: N_7  and  C_3 
REMARK       I    between atoms: C_8  and  N_7 
REMARK    2  A    between atoms: C_14  and  C_8 
REMARK    3  A    between atoms: C_15  and  C_14 
REMARK    4  A    between atoms: C_16  and  C_14 
ROOT
ATOM      1  C   UNL d   1      -3.841   1.731   0.000  0.00  0.00     0.343 A 
ATOM      2  N   UNL d   1      -3.134   1.323   0.000  0.00  0.00    -0.241 N 
ATOM      3  C   UNL d   1      -2.422   1.731   0.000  0.00  0.00     0.159 A 
ATOM      4  N   UNL d   1      -3.841   2.555   0.000  0.00  0.00    -0.224 N 
ATOM      5  C   UNL d   1      -2.422   2.555   0.000  0.00  0.00     0.099 A 
ATOM      6  C   UNL d   1      -3.134   2.980   0.000  0.00  0.00     0.271 A 
ATOM      7  O   UNL d   1      -4.557   1.319   0.000  0.00  0.00    -0.245 OA
ATOM      8  O   UNL d   1      -3.134   3.795   0.000  0.00  0.00    -0.266 OA
ATOM      9  C   UNL d   1      -3.134   0.499   0.000  0.00  0.00     0.105 C 
ATOM     10  C   UNL d   1      -4.557   2.967   0.000  0.00  0.00     0.107 C 
ENDROOT
BRANCH   3  11
ATOM     11  N   UNL d   1      -1.706   1.319   0.000  0.00  0.00    -0.190 NA
ATOM     12  C   UNL d   1      -0.995   1.731   0.000  0.00  0.00     0.280 C 
ATOM     13  O   UNL d   1      -0.995   2.555   0.000  0.00  0.00    -0.265 OA
BRANCH  12  14
ATOM     14  C   UNL d   1      -0.283   1.319   0.000  0.00  0.00     0.058 C 
BRANCH  14  15
ATOM     15  C   UNL d   1       0.441   1.731   0.000  0.00  0.00     0.005 C 
ATOM     16  C   UNL d   1       1.153   1.307   0.000  0.00  0.00     0.000 C 
ENDBRANCH  14  15
BRANCH  14  17
ATOM     17  C   UNL d   1      -0.275   0.520   0.000  0.00  0.00     0.005 C 
ATOM     18  C   UNL d   1       0.437   0.096   0.000  0.00  0.00     0.000 C 
ENDBRANCH  14  17
ENDBRANCH  12  14
ENDBRANCH   3  11
TORSDOF 4
