REMARK  2 active torsions:
REMARK  status: ('A' for Active; 'I' for Inactive)
REMARK    1  A    between atoms: N_7  and  C_3 
REMARK       I    between atoms: C_8  and  N_7 
REMARK    2  A    between atoms: C_10  and  C_8 
ROOT
ATOM      1  C   UNL d   1      -3.850   1.735   0.000  0.00  0.00     0.343 A 
ATOM      2  N   UNL d   1      -3.141   1.326   0.000  0.00  0.00    -0.241 N 
ATOM      3  C   UNL d   1      -2.428   1.735   0.000  0.00  0.00     0.159 A 
ATOM      4  N   UNL d   1      -3.850   2.561   0.000  0.00  0.00    -0.224 N 
ATOM      5  C   UNL d   1      -2.428   2.561   0.000  0.00  0.00     0.099 A 
ATOM      6  C   UNL d   1      -3.141   2.986   0.000  0.00  0.00     0.271 A 
ATOM      7  O   UNL d   1      -4.567   1.322   0.000  0.00  0.00    -0.245 OA
ATOM      8  O   UNL d   1      -3.141   3.804   0.000  0.00  0.00    -0.266 OA
ATOM      9  C   UNL d   1      -3.141   0.500   0.000  0.00  0.00     0.105 C 
ATOM     10  C   UNL d   1      -4.567   2.974   0.000  0.00  0.00     0.107 C 
ENDROOT
BRANCH   3  11
ATOM     11  N   UNL d   1      -1.710   1.322   0.000  0.00  0.00    -0.190 NA
ATOM     12  C   UNL d   1      -0.997   1.735   0.000  0.00  0.00     0.280 C 
ATOM     13  O   UNL d   1      -0.997   2.561   0.000  0.00  0.00    -0.265 OA
BRANCH  12  14
ATOM     14  C   UNL d   1      -0.284   1.322   0.000  0.00  0.00     0.058 A 
ATOM     15  C   UNL d   1      -0.296   0.513   0.000  0.00  0.00     0.006 A 
ATOM     16  C   UNL d   1       0.405   0.100   0.000  0.00  0.00     0.012 A 
ATOM     17  C   UNL d   1       1.130   0.488   0.000  0.00  0.00     0.058 A 
ATOM     18  C   UNL d   1       1.130   1.335   0.000  0.00  0.00     0.012 A 
ATOM     19 CL   UNL d   1       1.844   0.071   0.000  0.00  0.00    -0.082 Cl
ATOM     20  C   UNL d   1       0.430   1.748   0.000  0.00  0.00     0.006 A 
ENDBRANCH  12  14
ENDBRANCH   3  11
TORSDOF 2
