REMARK  3 active torsions:
REMARK  status: ('A' for Active; 'I' for Inactive)
REMARK    1  A    between atoms: C_10  and  N_1 
REMARK       I    between atoms: N_3  and  C_4 
REMARK    2  A    between atoms: C_4  and  C_10 
REMARK    3  A    between atoms: O_17  and  C_13 
ROOT
ATOM      1  N   UNL d   1       6.322  -8.512   0.000  0.00  0.00    -0.268 N 
ATOM      2  C   UNL d   1       5.601  -8.925   0.000  0.00  0.00     0.265 A 
ATOM      3  C   UNL d   1       4.889  -8.508   0.000  0.00  0.00     0.059 A 
ATOM      4  C   UNL d   1       4.889  -7.684   0.000  0.00  0.00     0.028 A 
ATOM      5  C   UNL d   1       5.601  -7.263   0.000  0.00  0.00     0.021 A 
ATOM      6  C   UNL d   1       6.322  -7.684   0.000  0.00  0.00     0.083 A 
ATOM      7  O   UNL d   1       5.601  -9.749   0.000  0.00  0.00    -0.267 OA
ATOM      8  C   UNL d   1       4.177  -7.271   0.000  0.00  0.00     0.094 A 
ATOM      9  C   UNL d   1       4.177  -8.925   0.000  0.00  0.00     0.005 A 
ATOM     10  C   UNL d   1       3.465  -8.512   0.000  0.00  0.00     0.002 A 
ATOM     11  C   UNL d   1       3.465  -7.688   0.000  0.00  0.00     0.024 A 
ENDROOT
BRANCH   1  12
ATOM     12  C   UNL d   1       7.034  -8.925   0.000  0.00  0.00     0.144 C 
BRANCH  12  13
ATOM     13  C   UNL d   1       7.750  -8.512   0.000  0.00  0.00     0.283 C 
ATOM     14  N   UNL d   1       7.759  -7.688   0.000  0.00  0.00    -0.272 N 
ATOM     15  C   UNL d   1       8.471  -7.288   0.000  0.00  0.00     0.067 A 
ATOM     16  C   UNL d   1       7.038  -7.271   0.000  0.00  0.00     0.083 A 
ATOM     17  C   UNL d   1       8.475  -6.459   0.000  0.00  0.00     0.016 A 
ATOM     18  C   UNL d   1       9.175  -7.700   0.000  0.00  0.00     0.018 A 
ATOM     19  C   UNL d   1       9.187  -6.051   0.000  0.00  0.00     0.001 A 
ATOM     20  C   UNL d   1       7.763  -6.035   0.000  0.00  0.00     0.003 A 
ATOM     21  C   UNL d   1       9.899  -6.463   0.000  0.00  0.00     0.000 A 
ATOM     22  C   UNL d   1       9.895  -7.296   0.000  0.00  0.00     0.002 A 
ATOM     23  C   UNL d   1       7.051  -6.439   0.000  0.00  0.00     0.019 A 
ATOM     24  O   UNL d   1       8.463  -8.933   0.000  0.00  0.00    -0.265 OA
ENDBRANCH  12  13
ENDBRANCH   1  12
BRANCH   8  25
ATOM     25  O   UNL d   1       4.173  -6.447   0.000  0.00  0.00    -0.328 OA
ATOM     26  C   UNL d   1       3.461  -6.039   0.000  0.00  0.00     0.181 C 
ENDBRANCH   8  25
TORSDOF 3
