REMARK  6 active torsions:
REMARK  status: ('A' for Active; 'I' for Inactive)
REMARK    1  A    between atoms: N_2  and  S_1 
REMARK    2  A    between atoms: C_5  and  S_1 
REMARK    3  A    between atoms: S_6  and  C_3 
REMARK    4  A    between atoms: C_18  and  S_6 
REMARK       I    between atoms: C_9  and  N_11 
REMARK    5  A    between atoms: N_11  and  C_19 
REMARK    6  A    between atoms: C_17  and  C_18 
ROOT
ATOM      1  N   UNL d   1      -3.264   2.757   0.000  0.00  0.00    -0.208 N 
ATOM      2  C   UNL d   1      -3.523   1.966   0.000  0.00  0.00     0.189 A 
ATOM      3  N   UNL d   1      -4.351   1.966   0.000  0.00  0.00    -0.219 NA
ATOM      4  C   UNL d   1      -3.937   3.247   0.000  0.00  0.00     0.114 A 
ATOM      5  C   UNL d   1      -4.602   2.757   0.000  0.00  0.00     0.121 A 
ENDROOT
BRANCH   1   6
ATOM      6  S   UNL d   1      -2.473   3.008   0.000  0.00  0.00     0.273 S 
ATOM      7  O   UNL d   1      -1.644   3.008   0.000  0.00  0.00    -0.200 OA
ATOM      8  O   UNL d   1      -2.259   2.217   0.000  0.00  0.00    -0.200 OA
BRANCH   6   9
ATOM      9  C   UNL d   1      -2.669   3.812   0.000  0.00  0.00     0.104 A 
ATOM     10  C   UNL d   1      -3.452   4.033   0.000  0.00  0.00     0.014 A 
ATOM     11  C   UNL d   1      -3.661   4.837   0.000  0.00  0.00     0.020 A 
ATOM     12  C   UNL d   1      -3.063   5.402   0.000  0.00  0.00     0.085 A 
ATOM     13  C   UNL d   1      -2.272   5.171   0.000  0.00  0.00     0.020 A 
ATOM     14  C   UNL d   1      -2.067   4.372   0.000  0.00  0.00     0.014 A 
BRANCH  12  15
ATOM     15  N   UNL d   1      -3.259   6.205   0.000  0.00  0.00    -0.208 NA
ATOM     16  C   UNL d   1      -2.661   6.770   0.000  0.00  0.00     0.279 C 
ATOM     17  O   UNL d   1      -1.870   6.552   0.000  0.00  0.00    -0.265 OA
ATOM     18  C   UNL d   1      -2.858   7.586   0.000  0.00  0.00     0.068 C 
ENDBRANCH  12  15
ENDBRANCH   6   9
ENDBRANCH   1   6
BRANCH   2  19
ATOM     19  S   UNL d   1      -3.033   1.293   0.000  0.00  0.00    -0.049 SA
BRANCH  19  20
ATOM     20  C   UNL d   1      -3.372   0.540   0.000  0.00  0.00     0.040 C 
BRANCH  20  21
ATOM     21  C   UNL d   1      -4.192   0.460   0.000  0.00  0.00     0.026 A 
ATOM     22  C   UNL d   1      -4.540  -0.305   0.000  0.00  0.00     0.099 A 
ATOM     23  N   UNL d   1      -5.356  -0.402   0.000  0.00  0.00    -0.242 NA
ATOM     24  C   UNL d   1      -5.832   0.272   0.000  0.00  0.00     0.099 A 
ATOM     25  C   UNL d   1      -5.498   1.025   0.000  0.00  0.00     0.021 A 
ATOM     26  C   UNL d   1      -4.678   1.117   0.000  0.00  0.00     0.004 A 
ENDBRANCH  20  21
ENDBRANCH  19  20
ENDBRANCH   2  19
TORSDOF 6
