REMARK  6 active torsions:
REMARK  status: ('A' for Active; 'I' for Inactive)
REMARK    1  A    between atoms: N_2  and  S_1 
REMARK    2  A    between atoms: C_5  and  S_1 
REMARK    3  A    between atoms: S_8  and  C_3 
REMARK    4  A    between atoms: C_13  and  S_8 
REMARK    5  A    between atoms: C_17  and  C_13 
REMARK    6  A    between atoms: O_21  and  C_15 
ROOT
ATOM      1  N   UNL d   1      -3.259   2.754   0.000  0.00  0.00    -0.208 N 
ATOM      2  C   UNL d   1      -3.518   1.964   0.000  0.00  0.00     0.189 A 
ATOM      3  N   UNL d   1      -4.346   1.964   0.000  0.00  0.00    -0.219 NA
ATOM      4  C   UNL d   1      -3.932   3.243   0.000  0.00  0.00     0.114 A 
ATOM      5  C   UNL d   1      -4.596   2.754   0.000  0.00  0.00     0.121 A 
ENDROOT
BRANCH   1   6
ATOM      6  S   UNL d   1      -2.470   3.004   0.000  0.00  0.00     0.273 S 
ATOM      7  O   UNL d   1      -1.642   3.004   0.000  0.00  0.00    -0.200 OA
ATOM      8  O   UNL d   1      -2.256   2.215   0.000  0.00  0.00    -0.200 OA
BRANCH   6   9
ATOM      9  C   UNL d   1      -2.666   3.807   0.000  0.00  0.00     0.104 A 
ATOM     10  C   UNL d   1      -2.064   4.367   0.000  0.00  0.00     0.015 A 
ATOM     11  C   UNL d   1      -2.269   5.169   0.000  0.00  0.00     0.025 A 
ATOM     12  C   UNL d   1      -3.067   5.395   0.000  0.00  0.00     0.094 A 
ATOM     13  C   UNL d   1      -3.660   4.830   0.000  0.00  0.00     0.025 A 
ATOM     14  C   UNL d   1      -3.456   4.028   0.000  0.00  0.00     0.015 A 
BRANCH  12  15
ATOM     15  O   UNL d   1      -3.259   6.197   0.000  0.00  0.00    -0.328 OA
ATOM     16  C   UNL d   1      -4.057   6.423   0.000  0.00  0.00     0.181 C 
ENDBRANCH  12  15
ENDBRANCH   6   9
ENDBRANCH   1   6
BRANCH   2  17
ATOM     17  S   UNL d   1      -3.029   1.291   0.000  0.00  0.00    -0.049 SA
BRANCH  17  18
ATOM     18  C   UNL d   1      -3.368   0.539   0.000  0.00  0.00     0.038 C 
BRANCH  18  19
ATOM     19  C   UNL d   1      -4.187   0.460   0.000  0.00  0.00     0.009 A 
ATOM     20  C   UNL d   1      -4.534  -0.305   0.000  0.00  0.00     0.030 A 
ATOM     21  C   UNL d   1      -5.349  -0.389   0.000  0.00  0.00     0.140 A 
ATOM     22  F   UNL d   1      -5.687  -1.145   0.000  0.00  0.00    -0.204 F 
ATOM     23  C   UNL d   1      -5.837   0.284   0.000  0.00  0.00     0.030 A 
ATOM     24  C   UNL d   1      -5.499   1.036   0.000  0.00  0.00     0.002 A 
ATOM     25  C   UNL d   1      -4.672   1.124   0.000  0.00  0.00     0.001 A 
ENDBRANCH  18  19
ENDBRANCH  17  18
ENDBRANCH   2  17
TORSDOF 6
