REMARK  5 active torsions:
REMARK  status: ('A' for Active; 'I' for Inactive)
REMARK    1  A    between atoms: N_2  and  S_1 
REMARK    2  A    between atoms: C_10  and  S_1 
REMARK    3  A    between atoms: S_6  and  C_3 
REMARK    4  A    between atoms: C_4  and  C_7 
REMARK    5  A    between atoms: C_7  and  S_6 
ROOT
ATOM      1  N   UNL d   1       6.438  -3.681   0.000  0.00  0.00    -0.208 N 
ATOM      2  C   UNL d   1       6.176  -4.471   0.000  0.00  0.00     0.189 A 
ATOM      3  N   UNL d   1       5.344  -4.471   0.000  0.00  0.00    -0.219 NA
ATOM      4  C   UNL d   1       5.764  -3.194   0.000  0.00  0.00     0.114 A 
ATOM      5  C   UNL d   1       5.095  -3.681   0.000  0.00  0.00     0.121 A 
ENDROOT
BRANCH   2   6
ATOM      6  S   UNL d   1       6.667  -5.140   0.000  0.00  0.00    -0.049 SA
BRANCH   6   7
ATOM      7  C   UNL d   1       6.326  -5.893   0.000  0.00  0.00     0.041 C 
BRANCH   7   8
ATOM      8  C   UNL d   1       6.742  -6.600   0.000  0.00  0.00     0.045 A 
ATOM      9  C   UNL d   1       7.565  -6.600   0.000  0.00  0.00     0.141 A 
ATOM     10  F   UNL d   1       7.985  -5.881   0.000  0.00  0.00    -0.204 F 
ATOM     11  C   UNL d   1       7.985  -7.316   0.000  0.00  0.00     0.030 A 
ATOM     12  C   UNL d   1       7.565  -8.035   0.000  0.00  0.00     0.003 A 
ATOM     13  C   UNL d   1       6.742  -8.035   0.000  0.00  0.00     0.012 A 
ATOM     14  C   UNL d   1       6.326  -7.316   0.000  0.00  0.00     0.060 A 
ATOM     15 CL   UNL d   1       5.502  -7.328   0.000  0.00  0.00    -0.082 Cl
ENDBRANCH   7   8
ENDBRANCH   6   7
ENDBRANCH   2   6
BRANCH   1  16
ATOM     16  S   UNL d   1       7.224  -3.423   0.000  0.00  0.00     0.273 S 
ATOM     17  O   UNL d   1       7.440  -4.221   0.000  0.00  0.00    -0.200 OA
ATOM     18  O   UNL d   1       8.052  -3.423   0.000  0.00  0.00    -0.200 OA
BRANCH  16  19
ATOM     19  C   UNL d   1       7.029  -2.624   0.000  0.00  0.00     0.104 A 
ATOM     20  C   UNL d   1       7.627  -2.063   0.000  0.00  0.00     0.013 A 
ATOM     21  C   UNL d   1       7.428  -1.264   0.000  0.00  0.00     0.001 A 
ATOM     22  C   UNL d   1       6.642  -1.027   0.000  0.00  0.00     0.000 A 
ATOM     23  C   UNL d   1       6.043  -1.601   0.000  0.00  0.00     0.001 A 
ATOM     24  C   UNL d   1       6.242  -2.400   0.000  0.00  0.00     0.013 A 
ENDBRANCH  16  19
ENDBRANCH   1  16
TORSDOF 5
