REMARK  3 active torsions:
REMARK  status: ('A' for Active; 'I' for Inactive)
REMARK    1  A    between atoms: C_6  and  N_1 
REMARK    2  A    between atoms: C_5  and  C_6 
REMARK       I    between atoms: N_10  and  C_5 
REMARK    3  A    between atoms: C_16  and  N_10 
ROOT
ATOM      1  C   UNL d   1      -4.756   1.457   0.000  0.00  0.00     0.297 C 
ATOM      2  N   UNL d   1      -4.572   0.657   0.000  0.00  0.00    -0.207 NA
ATOM      3  O   UNL d   1      -5.551   1.691   0.000  0.00  0.00    -0.264 OA
ENDROOT
BRANCH   1   4
ATOM      4  C   UNL d   1      -4.159   2.022   0.000  0.00  0.00     0.148 C 
BRANCH   4   5
ATOM      5  N   UNL d   1      -4.352   2.821   0.000  0.00  0.00    -0.235 N 
ATOM      6  C   UNL d   1      -5.138   3.056   0.000  0.00  0.00     0.273 A 
ATOM      7  C   UNL d   1      -5.331   3.860   0.000  0.00  0.00     0.086 A 
ATOM      8  O   UNL d   1      -5.744   2.491   0.000  0.00  0.00    -0.266 OA
ATOM      9  C   UNL d   1      -6.116   4.117   0.000  0.00  0.00     0.012 C 
ATOM     10  S   UNL d   1      -4.724   4.416   0.000  0.00  0.00    -0.077 SA
ATOM     11  C   UNL d   1      -3.938   4.186   0.000  0.00  0.00     0.097 A 
ATOM     12  C   UNL d   1      -3.745   3.387   0.000  0.00  0.00     0.274 A 
ATOM     13  O   UNL d   1      -2.950   3.152   0.000  0.00  0.00    -0.266 OA
ENDBRANCH   4   5
ENDBRANCH   1   4
BRANCH   2  14
ATOM     14  C   UNL d   1      -5.165   0.092   0.000  0.00  0.00     0.087 A 
ATOM     15  C   UNL d   1      -4.949  -0.703   0.000  0.00  0.00     0.045 A 
ATOM     16  C   UNL d   1      -5.524  -1.287   0.000  0.00  0.00     0.121 A 
ATOM     17  O   UNL d   1      -5.482  -2.109   0.000  0.00  0.00    -0.299 OA
ATOM     18  C   UNL d   1      -6.323  -1.075   0.000  0.00  0.00     0.119 A 
ATOM     19  C   UNL d   1      -6.254  -2.403   0.000  0.00  0.00     0.304 A 
ATOM     20  O   UNL d   1      -6.760  -1.769   0.000  0.00  0.00    -0.300 OA
ATOM     21  C   UNL d   1      -6.544  -0.280   0.000  0.00  0.00     0.028 A 
ATOM     22  C   UNL d   1      -5.965   0.312   0.000  0.00  0.00     0.021 A 
ENDBRANCH   2  14
TORSDOF 3
