REMARK  3 active torsions:
REMARK  status: ('A' for Active; 'I' for Inactive)
REMARK    1  A    between atoms: N_2  and  S_1 
REMARK    2  A    between atoms: C_5  and  S_1 
REMARK    3  A    between atoms: S_9  and  C_3 
ROOT
ATOM      1  S   UNL d   1      -2.464   2.997   0.000  0.00  0.00     0.273 S 
ATOM      2  O   UNL d   1      -1.638   2.997   0.000  0.00  0.00    -0.200 OA
ATOM      3  O   UNL d   1      -2.251   2.209   0.000  0.00  0.00    -0.200 OA
ENDROOT
BRANCH   1   4
ATOM      4  N   UNL d   1      -3.252   2.747   0.000  0.00  0.00    -0.208 N 
ATOM      5  C   UNL d   1      -3.510   1.959   0.000  0.00  0.00     0.185 A 
ATOM      6  N   UNL d   1      -4.335   1.959   0.000  0.00  0.00    -0.219 NA
ATOM      7  C   UNL d   1      -4.585   2.747   0.000  0.00  0.00     0.121 A 
ATOM      8  C   UNL d   1      -3.923   3.235   0.000  0.00  0.00     0.114 A 
BRANCH   5   9
ATOM      9  S   UNL d   1      -3.022   1.288   0.000  0.00  0.00    -0.075 SA
ATOM     10  C   UNL d   1      -3.360   0.538   0.000  0.00  0.00     0.077 C 
ENDBRANCH   5   9
ENDBRANCH   1   4
BRANCH   1  11
ATOM     11  C   UNL d   1      -2.659   3.797   0.000  0.00  0.00     0.104 A 
ATOM     12  C   UNL d   1      -2.059   4.356   0.000  0.00  0.00     0.013 A 
ATOM     13  C   UNL d   1      -2.259   5.157   0.000  0.00  0.00     0.001 A 
ATOM     14  C   UNL d   1      -3.051   5.390   0.000  0.00  0.00     0.000 A 
ATOM     15  C   UNL d   1      -3.647   4.819   0.000  0.00  0.00     0.001 A 
ATOM     16  C   UNL d   1      -3.247   6.190   0.000  0.00  0.00     0.000 C 
ATOM     17  C   UNL d   1      -3.447   4.019   0.000  0.00  0.00     0.013 A 
ENDBRANCH   1  11
TORSDOF 3
