REMARK  5 active torsions:
REMARK  status: ('A' for Active; 'I' for Inactive)
REMARK    1  A    between atoms: C_7  and  C_3 
REMARK    2  A    between atoms: C_8  and  C_7 
REMARK       I    between atoms: N_14  and  C_8 
REMARK    3  A    between atoms: N_9  and  C_16 
REMARK    4  A    between atoms: C_15  and  N_14 
REMARK    5  A    between atoms: C_16  and  C_15 
ROOT
ATOM      1  C   UNL d   1      -0.996   1.733   0.000  0.00  0.00     0.281 C 
ATOM      2  O   UNL d   1      -0.996   2.558   0.000  0.00  0.00    -0.265 OA
ATOM      3  N   UNL d   1      -0.283   1.321   0.000  0.00  0.00    -0.205 NA
ENDROOT
BRANCH   1   4
ATOM      4  C   UNL d   1      -1.708   1.321   0.000  0.00  0.00     0.082 C 
BRANCH   4   5
ATOM      5  C   UNL d   1      -2.425   1.733   0.000  0.00  0.00     0.096 A 
ATOM      6  C   UNL d   1      -2.425   2.558   0.000  0.00  0.00     0.082 A 
ATOM      7  C   UNL d   1      -3.138   2.983   0.000  0.00  0.00     0.285 A 
ATOM      8  N   UNL d   1      -3.846   2.558   0.000  0.00  0.00    -0.152 NA
ATOM      9  O   UNL d   1      -3.138   3.800   0.000  0.00  0.00    -0.265 OA
ATOM     10  C   UNL d   1      -3.846   1.733   0.000  0.00  0.00     0.371 A 
ATOM     11  N   UNL d   1      -3.138   1.325   0.000  0.00  0.00    -0.191 NA
ATOM     12  O   UNL d   1      -4.562   1.321   0.000  0.00  0.00    -0.242 OA
ENDBRANCH   4   5
ENDBRANCH   1   4
BRANCH   3  13
ATOM     13  C   UNL d   1       0.429   1.733   0.000  0.00  0.00     0.121 C 
BRANCH  13  14
ATOM     14  C   UNL d   1       1.150   1.321   0.000  0.00  0.00     0.101 C 
BRANCH  14  15
ATOM     15  N   UNL d   1       1.867   1.721   0.000  0.00  0.00    -0.298 N 
ATOM     16  C   UNL d   1       1.854   2.546   0.000  0.00  0.00     0.107 A 
ATOM     17  C   UNL d   1       2.579   2.958   0.000  0.00  0.00     0.142 A 
ATOM     18  O   UNL d   1       3.288   2.546   0.000  0.00  0.00    -0.300 OA
ATOM     19  C   UNL d   1       3.279   1.721   0.000  0.00  0.00     0.142 A 
ATOM     20  C   UNL d   1       2.567   1.312   0.000  0.00  0.00     0.107 A 
ENDBRANCH  14  15
ENDBRANCH  13  14
ENDBRANCH   3  13
TORSDOF 5
