REMARK  4 active torsions:
REMARK  status: ('A' for Active; 'I' for Inactive)
REMARK    1  A    between atoms: N_2  and  C_1 
REMARK       I    between atoms: C_6  and  N_2 
REMARK    2  A    between atoms: C_16  and  N_3 
REMARK    3  A    between atoms: C_8  and  C_6 
REMARK    4  A    between atoms: O_19  and  C_12 
ROOT
ATOM      1  C   UNL d   1      -4.267   0.359   0.000  0.00  0.00    -0.031 C 
ATOM      2  C   UNL d   1      -4.455  -0.455   0.000  0.00  0.00    -0.008 C 
ATOM      3  C   UNL d   1      -4.079   1.165   0.000  0.00  0.00     0.133 C 
ENDROOT
BRANCH   3   4
ATOM      4  N   UNL d   1      -4.693   1.737   0.000  0.00  0.00    -0.276 N 
ATOM      5  C   UNL d   1      -4.605   2.564   0.000  0.00  0.00     0.183 A 
ATOM      6  S   UNL d   1      -5.332   2.902   0.000  0.00  0.00    -0.048 SA
ATOM      7  C   UNL d   1      -5.908   2.305   0.000  0.00  0.00     0.050 A 
ATOM      8  C   UNL d   1      -6.718   2.326   0.000  0.00  0.00     0.008 A 
ATOM      9  C   UNL d   1      -5.499   1.587   0.000  0.00  0.00     0.095 A 
ATOM     10  C   UNL d   1      -7.157   1.624   0.000  0.00  0.00     0.003 A 
ATOM     11  C   UNL d   1      -6.743   0.889   0.000  0.00  0.00     0.026 A 
ATOM     12  C   UNL d   1      -5.933   0.885   0.000  0.00  0.00     0.111 A 
BRANCH   5  13
ATOM     13  N   UNL d   1      -3.870   2.990   0.000  0.00  0.00    -0.183 NA
ATOM     14  C   UNL d   1      -3.879   3.808   0.000  0.00  0.00     0.287 C 
ATOM     15  O   UNL d   1      -4.593   4.225   0.000  0.00  0.00    -0.265 OA
BRANCH  14  16
ATOM     16  C   UNL d   1      -3.165   4.221   0.000  0.00  0.00     0.087 A 
ATOM     17  S   UNL d   1      -2.392   3.891   0.000  0.00  0.00    -0.082 SA
ATOM     18  C   UNL d   1      -1.850   4.501   0.000  0.00  0.00     0.036 A 
ATOM     19  C   UNL d   1      -2.263   5.211   0.000  0.00  0.00     0.008 A 
ATOM     20  C   UNL d   1      -3.065   5.040   0.000  0.00  0.00     0.012 A 
ENDBRANCH  14  16
ENDBRANCH   5  13
BRANCH  12  21
ATOM     21  O   UNL d   1      -5.532   0.146   0.000  0.00  0.00    -0.327 OA
ATOM     22  C   UNL d   1      -5.971  -0.555   0.000  0.00  0.00     0.181 C 
ENDBRANCH  12  21
ENDBRANCH   3   4
TORSDOF 4
