REMARK  7 active torsions:
REMARK  status: ('A' for Active; 'I' for Inactive)
REMARK    1  A    between atoms: C_7  and  C_3 
REMARK    2  A    between atoms: C_8  and  C_7 
REMARK       I    between atoms: N_12  and  C_8 
REMARK    3  A    between atoms: C_15  and  N_12 
REMARK    4  A    between atoms: C_13  and  C_15 
REMARK    5  A    between atoms: C_16  and  C_13 
REMARK    6  A    between atoms: O_14  and  C_16 
REMARK    7  A    between atoms: C_17  and  O_14 
ROOT
ATOM      1  C   UNL d   1      -1.712   1.323   0.000  0.00  0.00     0.082 C 
ENDROOT
BRANCH   1   2
ATOM      2  C   UNL d   1      -2.430   1.737   0.000  0.00  0.00     0.096 A 
ATOM      3  C   UNL d   1      -2.430   2.564   0.000  0.00  0.00     0.082 A 
ATOM      4  C   UNL d   1      -3.144   2.990   0.000  0.00  0.00     0.285 A 
ATOM      5  N   UNL d   1      -3.854   2.564   0.000  0.00  0.00    -0.152 NA
ATOM      6  O   UNL d   1      -3.144   3.808   0.000  0.00  0.00    -0.265 OA
ATOM      7  C   UNL d   1      -3.854   1.737   0.000  0.00  0.00     0.371 A 
ATOM      8  N   UNL d   1      -3.144   1.328   0.000  0.00  0.00    -0.191 NA
ATOM      9  O   UNL d   1      -4.572   1.323   0.000  0.00  0.00    -0.242 OA
ENDBRANCH   1   2
BRANCH   1  10
ATOM     10  C   UNL d   1      -0.998   1.737   0.000  0.00  0.00     0.281 C 
ATOM     11  O   UNL d   1      -0.998   2.564   0.000  0.00  0.00    -0.265 OA
ATOM     12  N   UNL d   1      -0.284   1.323   0.000  0.00  0.00    -0.206 NA
BRANCH  12  13
ATOM     13  C   UNL d   1       0.430   1.737   0.000  0.00  0.00     0.104 C 
BRANCH  13  14
ATOM     14  C   UNL d   1       1.144   1.323   0.000  0.00  0.00     0.048 C 
BRANCH  14  15
ATOM     15  C   UNL d   1       1.858   1.737   0.000  0.00  0.00     0.124 C 
BRANCH  15  16
ATOM     16  O   UNL d   1       2.572   1.315   0.000  0.00  0.00    -0.303 OA
BRANCH  16  17
ATOM     17  C   UNL d   1       3.286   1.729   0.000  0.00  0.00     0.123 C 
ATOM     18  C   UNL d   1       4.000   1.315   0.000  0.00  0.00     0.029 C 
ENDBRANCH  16  17
ENDBRANCH  15  16
ENDBRANCH  14  15
ENDBRANCH  13  14
ENDBRANCH  12  13
ENDBRANCH   1  10
TORSDOF 7
