REMARK  4 active torsions:
REMARK  status: ('A' for Active; 'I' for Inactive)
REMARK    1  A    between atoms: C_6  and  N_3 
REMARK    2  A    between atoms: C_13  and  N_4 
REMARK    3  A    between atoms: C_5  and  C_6 
REMARK       I    between atoms: N_10  and  C_5 
REMARK    4  A    between atoms: C_14  and  N_10 
ROOT
ATOM      1  C   UNL d   1      -3.848   1.359   0.000  0.00  0.00     0.322 A 
ATOM      2  C   UNL d   1      -3.848   2.184   0.000  0.00  0.00     0.322 A 
ATOM      3  N   UNL d   1      -3.139   0.946   0.000  0.00  0.00    -0.262 N 
ATOM      4  N   UNL d   1      -3.139   2.597   0.000  0.00  0.00    -0.267 N 
ATOM      5  C   UNL d   1      -2.426   1.359   0.000  0.00  0.00     0.102 A 
ATOM      6  O   UNL d   1      -4.565   0.946   0.000  0.00  0.00    -0.261 OA
ATOM      7  O   UNL d   1      -4.565   2.597   0.000  0.00  0.00    -0.261 OA
ATOM      8  C   UNL d   1      -2.426   2.184   0.000  0.00  0.00     0.102 A 
ENDROOT
BRANCH   3   9
ATOM      9  C   UNL d   1      -3.139   0.125   0.000  0.00  0.00     0.146 C 
BRANCH   9  10
ATOM     10  C   UNL d   1      -2.426  -0.279   0.000  0.00  0.00     0.297 C 
ATOM     11  N   UNL d   1      -1.713   0.121   0.000  0.00  0.00    -0.207 NA
ATOM     12  O   UNL d   1      -2.434  -1.105   0.000  0.00  0.00    -0.264 OA
BRANCH  11  13
ATOM     13  C   UNL d   1      -1.000  -0.292   0.000  0.00  0.00     0.085 A 
ATOM     14  C   UNL d   1      -0.250   0.037   0.000  0.00  0.00     0.019 A 
ATOM     15  C   UNL d   1       0.292  -0.575   0.000  0.00  0.00     0.002 A 
ATOM     16  C   UNL d   1      -0.113  -1.280   0.000  0.00  0.00     0.002 A 
ATOM     17  C   UNL d   1      -0.921  -1.113   0.000  0.00  0.00     0.019 A 
ENDBRANCH  11  13
ENDBRANCH   9  10
ENDBRANCH   3   9
BRANCH   4  18
ATOM     18  C   UNL d   1      -3.139   3.422   0.000  0.00  0.00     0.083 C 
ATOM     19  C   UNL d   1      -2.422   3.835   0.000  0.00  0.00     0.021 C 
ENDBRANCH   4  18
TORSDOF 4
