REMARK  7 active torsions:
REMARK  status: ('A' for Active; 'I' for Inactive)
REMARK       I    between atoms: C_5  and  N_1 
REMARK    1  A    between atoms: C_11  and  C_3 
REMARK    2  A    between atoms: C_12  and  C_5 
REMARK    3  A    between atoms: N_7  and  C_12 
REMARK    4  A    between atoms: C_13  and  C_8 
REMARK    5  A    between atoms: C_29  and  N_10 
REMARK    6  A    between atoms: O_28  and  C_16 
REMARK    7  A    between atoms: O_30  and  C_23 
ROOT
ATOM      1  N   UNL d   1      -2.433  -1.104   0.000  0.00  0.00    -0.193 N 
ATOM      2  N   UNL d   1      -3.087  -1.592   0.000  0.00  0.00    -0.162 NA
ATOM      3  C   UNL d   1      -2.837  -2.375   0.000  0.00  0.00     0.109 A 
ATOM      4  C   UNL d   1      -2.433  -0.279   0.000  0.00  0.00     0.298 C 
ATOM      5  C   UNL d   1      -1.758  -1.579   0.000  0.00  0.00     0.088 A 
ATOM      6  C   UNL d   1      -2.013  -2.367   0.000  0.00  0.00     0.041 A 
ATOM      7  O   UNL d   1      -1.721   0.125   0.000  0.00  0.00    -0.264 OA
ENDROOT
BRANCH   4   8
ATOM      8  C   UNL d   1      -3.138   0.125   0.000  0.00  0.00     0.146 C 
BRANCH   8   9
ATOM      9  N   UNL d   1      -3.138   0.946   0.000  0.00  0.00    -0.262 N 
ATOM     10  C   UNL d   1      -3.846   1.358   0.000  0.00  0.00     0.322 A 
ATOM     11  C   UNL d   1      -3.846   2.183   0.000  0.00  0.00     0.322 A 
ATOM     12  O   UNL d   1      -4.562   0.946   0.000  0.00  0.00    -0.261 OA
ATOM     13  O   UNL d   1      -4.562   2.596   0.000  0.00  0.00    -0.261 OA
ATOM     14  N   UNL d   1      -3.138   2.596   0.000  0.00  0.00    -0.267 N 
ATOM     15  C   UNL d   1      -2.425   2.183   0.000  0.00  0.00     0.102 A 
ATOM     16  C   UNL d   1      -2.425   1.358   0.000  0.00  0.00     0.102 A 
BRANCH  14  17
ATOM     17  C   UNL d   1      -3.138   3.421   0.000  0.00  0.00     0.083 C 
ATOM     18  C   UNL d   1      -2.421   3.833   0.000  0.00  0.00     0.021 C 
ENDBRANCH  14  17
ENDBRANCH   8   9
ENDBRANCH   4   8
BRANCH   5  19
ATOM     19  C   UNL d   1      -0.983  -1.329   0.000  0.00  0.00     0.020 A 
ATOM     20  C   UNL d   1      -0.375  -1.879   0.000  0.00  0.00     0.028 A 
ATOM     21  C   UNL d   1       0.412  -1.617   0.000  0.00  0.00     0.116 A 
ATOM     22  C   UNL d   1       0.579  -0.817   0.000  0.00  0.00     0.116 A 
ATOM     23  C   UNL d   1      -0.037  -0.267   0.000  0.00  0.00     0.026 A 
ATOM     24  C   UNL d   1      -0.821  -0.529   0.000  0.00  0.00     0.004 A 
BRANCH  21  25
ATOM     25  O   UNL d   1       1.017  -2.167   0.000  0.00  0.00    -0.326 OA
ATOM     26  C   UNL d   1       0.854  -2.967   0.000  0.00  0.00     0.181 C 
ENDBRANCH  21  25
BRANCH  22  27
ATOM     27  O   UNL d   1       1.350  -0.562   0.000  0.00  0.00    -0.326 OA
ATOM     28  C   UNL d   1       1.962  -1.104   0.000  0.00  0.00     0.181 C 
ENDBRANCH  22  27
ENDBRANCH   5  19
BRANCH   3  29
ATOM     29  C   UNL d   1      -3.321  -3.042   0.000  0.00  0.00     0.049 A 
ATOM     30  S   UNL d   1      -4.133  -3.050   0.000  0.00  0.00    -0.085 SA
ATOM     31  C   UNL d   1      -4.396  -3.829   0.000  0.00  0.00     0.035 A 
ATOM     32  C   UNL d   1      -3.721  -4.312   0.000  0.00  0.00     0.007 A 
ATOM     33  C   UNL d   1      -3.050  -3.825   0.000  0.00  0.00     0.009 A 
ENDBRANCH   3  29
TORSDOF 7
