REMARK  6 active torsions:
REMARK  status: ('A' for Active; 'I' for Inactive)
REMARK    1  A    between atoms: N_8  and  S_1 
REMARK    2  A    between atoms: C_12  and  S_1 
REMARK    3  A    between atoms: N_5  and  C_2 
REMARK    4  A    between atoms: C_4  and  O_9 
REMARK    5  A    between atoms: O_9  and  C_10 
REMARK    6  A    between atoms: C_10  and  C_16 
ROOT
ATOM      1  C   UNL d   1      -6.001   1.746   0.000  0.00  0.00     0.104 A 
ATOM      2  C   UNL d   1      -4.584   2.571   0.000  0.00  0.00     0.064 A 
ATOM      3  C   UNL d   1      -6.001   2.563   0.000  0.00  0.00     0.013 A 
ATOM      4  C   UNL d   1      -5.284   1.338   0.000  0.00  0.00     0.013 A 
ATOM      5  C   UNL d   1      -5.284   2.984   0.000  0.00  0.00     0.006 A 
ATOM      6  C   UNL d   1      -4.572   1.750   0.000  0.00  0.00     0.006 A 
ENDROOT
BRANCH   2   7
ATOM      7  C   UNL d   1      -3.863   2.984   0.000  0.00  0.00     0.300 C 
ATOM      8  O   UNL d   1      -3.863   3.801   0.000  0.00  0.00    -0.259 OA
BRANCH   7   9
ATOM      9  O   UNL d   1      -3.151   2.563   0.000  0.00  0.00    -0.271 OA
BRANCH   9  10
ATOM     10  C   UNL d   1      -3.151   1.738   0.000  0.00  0.00     0.132 A 
ATOM     11  C   UNL d   1      -2.438   1.321   0.000  0.00  0.00     0.207 A 
ATOM     12  C   UNL d   1      -2.438   0.496   0.000  0.00  0.00     0.303 A 
ATOM     13  O   UNL d   1      -1.721   0.083   0.000  0.00  0.00    -0.263 OA
ATOM     14  N   UNL d   1      -3.151   0.087   0.000  0.00  0.00    -0.206 NA
ATOM     15  C   UNL d   1      -3.859   0.496   0.000  0.00  0.00     0.087 A 
ATOM     16  C   UNL d   1      -3.859   1.321   0.000  0.00  0.00     0.046 A 
ATOM     17  C   UNL d   1      -4.584   0.083   0.000  0.00  0.00     0.021 C 
BRANCH  11  18
ATOM     18  N   UNL d   1      -1.721   1.738   0.000  0.00  0.00    -0.107 N 
ATOM     19  O   UNL d   1      -1.008   1.321   0.000  0.00  0.00    -0.531 OA
ATOM     20  O   UNL d   1      -1.721   2.563   0.000  0.00  0.00    -0.531 OA
ENDBRANCH  11  18
ENDBRANCH   9  10
ENDBRANCH   7   9
ENDBRANCH   2   7
BRANCH   1  21
ATOM     21  S   UNL d   1      -6.701   1.325   0.000  0.00  0.00     0.271 S 
ATOM     22  O   UNL d   1      -7.281   0.758   0.000  0.00  0.00    -0.200 OA
ATOM     23  O   UNL d   1      -6.118   0.758   0.000  0.00  0.00    -0.200 OA
BRANCH  21  24
ATOM     24  N   UNL d   1      -7.406   1.738   0.000  0.00  0.00    -0.229 N 
ATOM     25  C   UNL d   1      -7.406   2.563   0.000  0.00  0.00     0.092 A 
ATOM     26  C   UNL d   1      -8.118   2.959   0.000  0.00  0.00     0.020 A 
ATOM     27  C   UNL d   1      -8.839   2.550   0.000  0.00  0.00     0.003 A 
ATOM     28  C   UNL d   1      -8.831   1.734   0.000  0.00  0.00     0.020 A 
ATOM     29  C   UNL d   1      -8.114   1.321   0.000  0.00  0.00     0.092 A 
ENDBRANCH  21  24
ENDBRANCH   1  21
TORSDOF 6
