REMARK  6 active torsions:
REMARK  status: ('A' for Active; 'I' for Inactive)
REMARK    1  A    between atoms: N_5  and  C_1 
REMARK    2  A    between atoms: S_2  and  C_11 
REMARK    3  A    between atoms: N_12  and  S_2 
REMARK    4  A    between atoms: O_8  and  C_4 
REMARK    5  A    between atoms: C_9  and  O_8 
REMARK    6  A    between atoms: C_16  and  C_9 
ROOT
ATOM      1  C   UNL d   1      -3.862   2.983   0.000  0.00  0.00     0.300 C 
ATOM      2  O   UNL d   1      -3.862   3.800   0.000  0.00  0.00    -0.259 OA
ENDROOT
BRANCH   1   3
ATOM      3  O   UNL d   1      -3.150   2.562   0.000  0.00  0.00    -0.271 OA
BRANCH   3   4
ATOM      4  C   UNL d   1      -3.150   1.738   0.000  0.00  0.00     0.132 A 
ATOM      5  C   UNL d   1      -2.438   1.321   0.000  0.00  0.00     0.207 A 
ATOM      6  C   UNL d   1      -2.438   0.496   0.000  0.00  0.00     0.303 A 
ATOM      7  N   UNL d   1      -3.150   0.087   0.000  0.00  0.00    -0.206 NA
ATOM      8  O   UNL d   1      -1.721   0.083   0.000  0.00  0.00    -0.263 OA
ATOM      9  C   UNL d   1      -3.858   0.496   0.000  0.00  0.00     0.087 A 
ATOM     10  C   UNL d   1      -3.858   1.321   0.000  0.00  0.00     0.046 A 
ATOM     11  C   UNL d   1      -4.583   0.083   0.000  0.00  0.00     0.021 C 
BRANCH   5  12
ATOM     12  N   UNL d   1      -1.721   1.738   0.000  0.00  0.00    -0.107 N 
ATOM     13  O   UNL d   1      -1.008   1.321   0.000  0.00  0.00    -0.531 OA
ATOM     14  O   UNL d   1      -1.721   2.562   0.000  0.00  0.00    -0.531 OA
ENDBRANCH   5  12
ENDBRANCH   3   4
ENDBRANCH   1   3
BRANCH   1  15
ATOM     15  C   UNL d   1      -4.583   2.571   0.000  0.00  0.00     0.064 A 
ATOM     16  C   UNL d   1      -5.283   2.983   0.000  0.00  0.00     0.006 A 
ATOM     17  C   UNL d   1      -5.996   2.562   0.000  0.00  0.00     0.013 A 
ATOM     18  C   UNL d   1      -5.987   1.746   0.000  0.00  0.00     0.104 A 
ATOM     19  C   UNL d   1      -5.283   1.333   0.000  0.00  0.00     0.013 A 
ATOM     20  C   UNL d   1      -4.571   1.746   0.000  0.00  0.00     0.006 A 
BRANCH  18  21
ATOM     21  S   UNL d   1      -6.700   1.321   0.000  0.00  0.00     0.271 S 
ATOM     22  O   UNL d   1      -7.275   0.738   0.000  0.00  0.00    -0.200 OA
ATOM     23  O   UNL d   1      -6.104   0.746   0.000  0.00  0.00    -0.200 OA
BRANCH  21  24
ATOM     24  N   UNL d   1      -7.404   1.733   0.000  0.00  0.00    -0.226 N 
ATOM     25  C   UNL d   1      -7.404   2.550   0.000  0.00  0.00     0.111 C 
ATOM     26  C   UNL d   1      -8.117   1.312   0.000  0.00  0.00     0.111 C 
ENDBRANCH  21  24
ENDBRANCH  18  21
ENDBRANCH   1  15
TORSDOF 6
