REMARK  5 active torsions:
REMARK  status: ('A' for Active; 'I' for Inactive)
REMARK    1  A    between atoms: N_8  and  C_2 
REMARK    2  A    between atoms: S_5  and  C_13 
REMARK    3  A    between atoms: C_17  and  S_5 
REMARK       I    between atoms: C_9  and  N_8 
REMARK    4  A    between atoms: C_12  and  C_9 
REMARK    5  A    between atoms: C_13  and  C_12 
ROOT
ATOM      1  N   UNL d   1      -4.593   3.808   0.000  0.00  0.00    -0.183 NA
ATOM      2  C   UNL d   1      -3.870   3.403   0.000  0.00  0.00     0.282 C 
ATOM      3  O   UNL d   1      -3.870   2.568   0.000  0.00  0.00    -0.265 OA
ENDROOT
BRANCH   1   4
ATOM      4  C   UNL d   1      -5.298   3.403   0.000  0.00  0.00     0.197 A 
ATOM      5  S   UNL d   1      -6.042   3.741   0.000  0.00  0.00    -0.044 SA
ATOM      6  C   UNL d   1      -6.593   3.119   0.000  0.00  0.00     0.088 A 
ATOM      7  C   UNL d   1      -6.192   2.405   0.000  0.00  0.00     0.089 A 
ATOM      8  C   UNL d   1      -7.432   3.127   0.000  0.00  0.00     0.199 A 
ATOM      9  N   UNL d   1      -5.394   2.589   0.000  0.00  0.00    -0.221 NA
ATOM     10  C   UNL d   1      -6.601   1.691   0.000  0.00  0.00    -0.003 A 
ATOM     11  C   UNL d   1      -7.420   1.691   0.000  0.00  0.00     0.042 A 
ATOM     12  C   UNL d   1      -7.833   2.405   0.000  0.00  0.00     0.020 A 
ATOM     13  C   UNL d   1      -7.019   0.973   0.000  0.00  0.00     0.009 C 
ATOM     14  C   UNL d   1      -8.246   1.687   0.000  0.00  0.00     0.009 C 
ATOM     15  O   UNL d   1      -7.841   3.841   0.000  0.00  0.00    -0.286 OA
ENDBRANCH   1   4
BRANCH   2  16
ATOM     16  C   UNL d   1      -3.165   3.808   0.000  0.00  0.00     0.075 C 
BRANCH  16  17
ATOM     17  C   UNL d   1      -3.165   4.551   0.000  0.00  0.00     0.104 C 
BRANCH  17  18
ATOM     18  S   UNL d   1      -2.514   5.077   0.000  0.00  0.00     0.211 S 
ATOM     19  O   UNL d   1      -3.031   5.729   0.000  0.00  0.00    -0.217 OA
ATOM     20  O   UNL d   1      -1.992   4.413   0.000  0.00  0.00    -0.217 OA
BRANCH  18  21
ATOM     21  C   UNL d   1      -1.866   5.591   0.000  0.00  0.00     0.088 A 
ATOM     22  C   UNL d   1      -1.098   5.290   0.000  0.00  0.00     0.011 A 
ATOM     23  C   UNL d   1      -0.447   5.804   0.000  0.00  0.00     0.001 A 
ATOM     24  C   UNL d   1      -0.572   6.618   0.000  0.00  0.00     0.000 A 
ATOM     25  C   UNL d   1      -1.336   6.931   0.000  0.00  0.00     0.001 A 
ATOM     26  C   UNL d   1      -1.987   6.413   0.000  0.00  0.00     0.011 A 
ENDBRANCH  18  21
ENDBRANCH  17  18
ENDBRANCH  16  17
ENDBRANCH   2  16
TORSDOF 5
