REMARK  4 active torsions:
REMARK  status: ('A' for Active; 'I' for Inactive)
REMARK    1  A    between atoms: N_7  and  C_1 
REMARK    2  A    between atoms: C_11  and  C_2 
REMARK    3  A    between atoms: N_6  and  C_12 
REMARK       I    between atoms: C_8  and  N_7 
REMARK    4  A    between atoms: C_14  and  C_8 
REMARK       I    between atoms: N_26  and  C_11 
ROOT
ATOM      1  N   UNL d   1      -0.833   1.212   0.000  0.00  0.00    -0.201 NA
ATOM      2  C   UNL d   1      -0.462   2.150   0.000  0.00  0.00     0.280 C 
ATOM      3  O   UNL d   1      -0.746   2.808   0.000  0.00  0.00    -0.265 OA
ENDROOT
BRANCH   1   4
ATOM      4  C   UNL d   1      -1.608   1.246   0.000  0.00  0.00     0.119 A 
ATOM      5  C   UNL d   1      -2.262   1.725   0.000  0.00  0.00     0.082 A 
ATOM      6  C   UNL d   1      -2.933   1.246   0.000  0.00  0.00     0.013 A 
ATOM      7  C   UNL d   1      -3.737   1.421   0.000  0.00  0.00     0.001 A 
ATOM      8  C   UNL d   1      -2.675   0.458   0.000  0.00  0.00     0.031 A 
ATOM      9  C   UNL d   1      -4.295   0.808   0.000  0.00  0.00     0.000 A 
ATOM     10  C   UNL d   1      -4.033   0.025   0.000  0.00  0.00     0.001 A 
ATOM     11  C   UNL d   1      -3.233  -0.150   0.000  0.00  0.00     0.006 A 
ATOM     12  C   UNL d   1      -4.583  -0.592   0.000  0.00  0.00     0.000 C 
ATOM     13  S   UNL d   1      -1.858   0.458   0.000  0.00  0.00    -0.068 SA
BRANCH   5  14
ATOM     14  C   UNL d   1      -2.250   2.550   0.000  0.00  0.00     0.281 C 
ATOM     15  O   UNL d   1      -1.533   2.958   0.000  0.00  0.00    -0.265 OA
ATOM     16  N   UNL d   1      -2.962   2.970   0.000  0.00  0.00    -0.205 NA
ATOM     17  C   UNL d   1      -2.958   3.795   0.000  0.00  0.00     0.123 C 
ENDBRANCH   5  14
ENDBRANCH   1   4
BRANCH   2  18
ATOM     18  C   UNL d   1       0.362   2.162   0.000  0.00  0.00     0.058 A 
ATOM     19  C   UNL d   1       0.787   1.458   0.000  0.00  0.00     0.006 A 
ATOM     20  C   UNL d   1       1.604   1.471   0.000  0.00  0.00     0.018 A 
ATOM     21  C   UNL d   1       2.017   2.175   0.000  0.00  0.00     0.070 A 
ATOM     22  C   UNL d   1       1.591   2.896   0.000  0.00  0.00     0.018 A 
ATOM     23  C   UNL d   1       0.775   2.896   0.000  0.00  0.00     0.006 A 
BRANCH  21  24
ATOM     24  N   UNL d   1       2.841   2.183   0.000  0.00  0.00    -0.242 N 
ATOM     25  C   UNL d   1       3.300   2.875   0.000  0.00  0.00     0.267 A 
ATOM     26  C   UNL d   1       4.104   2.658   0.000  0.00  0.00     0.066 A 
ATOM     27  O   UNL d   1       3.004   3.670   0.000  0.00  0.00    -0.267 OA
ATOM     28  C   UNL d   1       4.129   1.837   0.000  0.00  0.00     0.066 A 
ATOM     29  C   UNL d   1       3.366   1.546   0.000  0.00  0.00     0.267 A 
ATOM     30  O   UNL d   1       3.150   0.746   0.000  0.00  0.00    -0.267 OA
ENDBRANCH  21  24
ENDBRANCH   2  18
TORSDOF 4
