REMARK  5 active torsions:
REMARK  status: ('A' for Active; 'I' for Inactive)
REMARK    1  A    between atoms: C_4  and  S_1 
REMARK    2  A    between atoms: C_12  and  S_1 
REMARK    3  A    between atoms: C_3  and  C_6 
REMARK       I    between atoms: N_8  and  C_3 
REMARK    4  A    between atoms: C_6  and  C_4 
REMARK    5  A    between atoms: C_14  and  N_8 
ROOT
ATOM      1  C   UNL d   1      -3.870   3.403   0.000  0.00  0.00     0.280 C 
ATOM      2  N   UNL d   1      -4.593   3.808   0.000  0.00  0.00    -0.208 NA
ATOM      3  O   UNL d   1      -3.870   2.568   0.000  0.00  0.00    -0.265 OA
ENDROOT
BRANCH   1   4
ATOM      4  C   UNL d   1      -3.165   3.808   0.000  0.00  0.00     0.075 C 
BRANCH   4   5
ATOM      5  C   UNL d   1      -3.165   4.551   0.000  0.00  0.00     0.104 C 
BRANCH   5   6
ATOM      6  S   UNL d   1      -2.514   5.077   0.000  0.00  0.00     0.211 S 
ATOM      7  O   UNL d   1      -3.031   5.729   0.000  0.00  0.00    -0.217 OA
ATOM      8  O   UNL d   1      -1.992   4.413   0.000  0.00  0.00    -0.217 OA
BRANCH   6   9
ATOM      9  C   UNL d   1      -1.866   5.591   0.000  0.00  0.00     0.088 A 
ATOM     10  C   UNL d   1      -1.098   5.290   0.000  0.00  0.00     0.011 A 
ATOM     11  C   UNL d   1      -0.447   5.804   0.000  0.00  0.00     0.001 A 
ATOM     12  C   UNL d   1      -0.572   6.618   0.000  0.00  0.00     0.000 A 
ATOM     13  C   UNL d   1      -1.336   6.931   0.000  0.00  0.00     0.001 A 
ATOM     14  C   UNL d   1      -1.987   6.413   0.000  0.00  0.00     0.011 A 
ENDBRANCH   6   9
ENDBRANCH   5   6
ENDBRANCH   4   5
ENDBRANCH   1   4
BRANCH   2  15
ATOM     15  C   UNL d   1      -5.307   3.390   0.000  0.00  0.00     0.087 A 
ATOM     16  C   UNL d   1      -6.017   3.804   0.000  0.00  0.00     0.045 A 
ATOM     17  C   UNL d   1      -6.726   3.390   0.000  0.00  0.00     0.121 A 
ATOM     18  O   UNL d   1      -7.516   3.653   0.000  0.00  0.00    -0.299 OA
ATOM     19  C   UNL d   1      -6.718   2.564   0.000  0.00  0.00     0.119 A 
ATOM     20  C   UNL d   1      -7.983   2.969   0.000  0.00  0.00     0.304 A 
ATOM     21  O   UNL d   1      -7.507   2.313   0.000  0.00  0.00    -0.300 OA
ATOM     22  C   UNL d   1      -6.012   2.154   0.000  0.00  0.00     0.028 A 
ATOM     23  C   UNL d   1      -5.307   2.568   0.000  0.00  0.00     0.021 A 
ENDBRANCH   2  15
TORSDOF 5
