REMARK  7 active torsions:
REMARK  status: ('A' for Active; 'I' for Inactive)
REMARK    1  A    between atoms: N_4  and  C_1 
REMARK       I    between atoms: C_3  and  N_4 
REMARK    2  A    between atoms: C_8  and  C_3 
REMARK    3  A    between atoms: S_10  and  C_5 
REMARK    4  A    between atoms: C_9  and  C_15 
REMARK       I    between atoms: N_12  and  C_9 
REMARK    5  A    between atoms: C_15  and  S_10 
REMARK    6  A    between atoms: C_17  and  N_12 
REMARK    7  A    between atoms: O_18  and  C_13 
ROOT
ATOM      1  C   UNL d   1      -2.396   3.321   0.000  0.00  0.00     0.219 A 
ATOM      2  S   UNL d   1      -1.725   3.800   0.000  0.00  0.00    -0.019 SA
ATOM      3  C   UNL d   1      -1.058   3.321   0.000  0.00  0.00     0.165 A 
ATOM      4  N   UNL d   1      -2.138   2.533   0.000  0.00  0.00    -0.120 NA
ATOM      5  N   UNL d   1      -1.312   2.533   0.000  0.00  0.00    -0.133 NA
ENDROOT
BRANCH   1   6
ATOM      6  N   UNL d   1      -3.183   3.583   0.000  0.00  0.00    -0.181 NA
ATOM      7  C   UNL d   1      -3.796   3.025   0.000  0.00  0.00     0.283 C 
ATOM      8  O   UNL d   1      -3.625   2.221   0.000  0.00  0.00    -0.265 OA
BRANCH   7   9
ATOM      9  C   UNL d   1      -4.583   3.283   0.000  0.00  0.00     0.080 A 
ATOM     10  C   UNL d   1      -4.746   4.079   0.000  0.00  0.00     0.099 A 
ATOM     11  C   UNL d   1      -5.533   4.342   0.000  0.00  0.00     0.024 A 
ATOM     12  C   UNL d   1      -6.142   3.796   0.000  0.00  0.00     0.002 A 
ATOM     13  C   UNL d   1      -5.971   2.983   0.000  0.00  0.00     0.000 A 
ATOM     14  C   UNL d   1      -5.188   2.733   0.000  0.00  0.00     0.007 A 
BRANCH  10  15
ATOM     15  O   UNL d   1      -4.133   4.638   0.000  0.00  0.00    -0.328 OA
ATOM     16  C   UNL d   1      -4.296   5.442   0.000  0.00  0.00     0.181 C 
ENDBRANCH  10  15
ENDBRANCH   7   9
ENDBRANCH   1   6
BRANCH   3  17
ATOM     17  S   UNL d   1      -0.275   3.583   0.000  0.00  0.00    -0.054 SA
BRANCH  17  18
ATOM     18  C   UNL d   1       0.342   3.025   0.000  0.00  0.00     0.100 C 
BRANCH  18  19
ATOM     19  C   UNL d   1       0.167   2.221   0.000  0.00  0.00     0.286 C 
ATOM     20  N   UNL d   1       0.779   1.663   0.000  0.00  0.00    -0.208 NA
ATOM     21  O   UNL d   1      -0.621   1.958   0.000  0.00  0.00    -0.265 OA
BRANCH  20  22
ATOM     22  C   UNL d   1       0.617   0.863   0.000  0.00  0.00     0.085 A 
ATOM     23  C   UNL d   1       1.175   0.246   0.000  0.00  0.00     0.019 A 
ATOM     24  C   UNL d   1       0.767  -0.467   0.000  0.00  0.00     0.002 A 
ATOM     25  C   UNL d   1      -0.046  -0.304   0.000  0.00  0.00     0.002 A 
ATOM     26  C   UNL d   1      -0.133   0.521   0.000  0.00  0.00     0.019 A 
ENDBRANCH  20  22
ENDBRANCH  18  19
ENDBRANCH  17  18
ENDBRANCH   3  17
TORSDOF 7
