REMARK  6 active torsions:
REMARK  status: ('A' for Active; 'I' for Inactive)
REMARK    1  A    between atoms: N_3  and  C_1 
REMARK       I    between atoms: C_7  and  N_3 
REMARK    2  A    between atoms: S_13  and  C_4 
REMARK    3  A    between atoms: C_20  and  C_7 
REMARK    4  A    between atoms: C_10  and  C_21 
REMARK       I    between atoms: N_12  and  C_10 
REMARK    5  A    between atoms: C_14  and  N_12 
REMARK    6  A    between atoms: C_21  and  S_13 
ROOT
ATOM      1  C   UNL d   1       0.166   2.215   0.000  0.00  0.00     0.286 C 
ATOM      2  N   UNL d   1       0.786   1.667   0.000  0.00  0.00    -0.207 NA
ATOM      3  O   UNL d   1      -0.619   1.958   0.000  0.00  0.00    -0.265 OA
ENDROOT
BRANCH   1   4
ATOM      4  C   UNL d   1       0.341   3.018   0.000  0.00  0.00     0.100 C 
BRANCH   4   5
ATOM      5  S   UNL d   1      -0.274   3.575   0.000  0.00  0.00    -0.054 SA
BRANCH   5   6
ATOM      6  C   UNL d   1      -1.056   3.313   0.000  0.00  0.00     0.165 A 
ATOM      7  S   UNL d   1      -1.721   3.791   0.000  0.00  0.00    -0.019 SA
ATOM      8  C   UNL d   1      -2.390   3.313   0.000  0.00  0.00     0.219 A 
ATOM      9  N   UNL d   1      -2.132   2.527   0.000  0.00  0.00    -0.120 NA
ATOM     10  N   UNL d   1      -1.309   2.527   0.000  0.00  0.00    -0.133 NA
BRANCH   8  11
ATOM     11  N   UNL d   1      -3.175   3.575   0.000  0.00  0.00    -0.181 NA
ATOM     12  C   UNL d   1      -3.787   3.018   0.000  0.00  0.00     0.281 C 
ATOM     13  O   UNL d   1      -3.616   2.215   0.000  0.00  0.00    -0.265 OA
BRANCH  12  14
ATOM     14  C   UNL d   1      -4.572   3.275   0.000  0.00  0.00     0.058 C 
ATOM     15  C   UNL d   1      -5.183   2.718   0.000  0.00  0.00     0.005 C 
ATOM     16  C   UNL d   1      -4.738   4.077   0.000  0.00  0.00     0.005 C 
ENDBRANCH  12  14
ENDBRANCH   8  11
ENDBRANCH   5   6
ENDBRANCH   4   5
ENDBRANCH   1   4
BRANCH   2  17
ATOM     17  C   UNL d   1       0.611   0.860   0.000  0.00  0.00     0.087 A 
ATOM     18  C   UNL d   1       1.226   0.312   0.000  0.00  0.00     0.046 A 
ATOM     19  C   UNL d   1       1.064  -0.490   0.000  0.00  0.00     0.124 A 
ATOM     20  O   UNL d   1       1.683  -1.039   0.000  0.00  0.00    -0.301 OA
ATOM     21  C   UNL d   1       0.279  -0.752   0.000  0.00  0.00     0.123 A 
ATOM     22  C   UNL d   1       1.509  -1.850   0.000  0.00  0.00     0.149 A 
ATOM     23  C   UNL d   1       0.723  -2.111   0.000  0.00  0.00     0.149 A 
ATOM     24  O   UNL d   1       0.104  -1.550   0.000  0.00  0.00    -0.301 OA
ATOM     25  C   UNL d   1      -0.337  -0.200   0.000  0.00  0.00     0.028 A 
ATOM     26  C   UNL d   1      -0.170   0.607   0.000  0.00  0.00     0.021 A 
ENDBRANCH   2  17
TORSDOF 6
