REMARK  3 active torsions:
REMARK  status: ('A' for Active; 'I' for Inactive)
REMARK    1  A    between atoms: C_24  and  N_10 
REMARK    2  A    between atoms: C_12  and  N_15 
REMARK       I    between atoms: N_15  and  C_16 
REMARK    3  A    between atoms: C_16  and  C_24 
ROOT
ATOM      1  N   UNL d   1      -1.741   2.168   0.000  0.00  0.00    -0.188 NA
ATOM      2  C   UNL d   1      -1.026   2.583   0.000  0.00  0.00     0.298 C 
ATOM      3  O   UNL d   1      -0.310   2.160   0.000  0.00  0.00    -0.263 OA
ENDROOT
BRANCH   1   4
ATOM      4  C   UNL d   1      -1.741   1.339   0.000  0.00  0.00     0.166 A 
ATOM      5  N   UNL d   1      -2.457   0.925   0.000  0.00  0.00    -0.226 NA
ATOM      6  C   UNL d   1      -2.461   0.101   0.000  0.00  0.00     0.090 A 
ATOM      7  C   UNL d   1      -3.173  -0.318   0.000  0.00  0.00     0.041 A 
ATOM      8  C   UNL d   1      -1.746  -0.318   0.000  0.00  0.00     0.081 A 
ATOM      9  C   UNL d   1      -3.173  -1.147   0.000  0.00  0.00     0.105 A 
ATOM     10  C   UNL d   1      -3.889   0.096   0.000  0.00  0.00     0.004 A 
ATOM     11  C   UNL d   1      -3.889  -1.557   0.000  0.00  0.00     0.025 A 
ATOM     12  O   UNL d   1      -2.461  -1.557   0.000  0.00  0.00    -0.273 OA
ATOM     13  C   UNL d   1      -4.604  -1.147   0.000  0.00  0.00     0.002 A 
ATOM     14  C   UNL d   1      -4.604  -0.314   0.000  0.00  0.00     0.000 A 
ATOM     15  C   UNL d   1      -1.746  -1.147   0.000  0.00  0.00     0.301 A 
ATOM     16  O   UNL d   1      -1.026  -1.561   0.000  0.00  0.00    -0.259 OA
ATOM     17  C   UNL d   1      -1.030   0.096   0.000  0.00  0.00     0.010 A 
ATOM     18  C   UNL d   1      -1.026   0.917   0.000  0.00  0.00     0.039 A 
ATOM     19  C   UNL d   1      -0.314  -0.327   0.000  0.00  0.00     0.000 C 
ENDBRANCH   1   4
BRANCH   2  20
ATOM     20  C   UNL d   1      -1.017   3.412   0.000  0.00  0.00     0.143 C 
BRANCH  20  21
ATOM     21  N   UNL d   1      -0.301   3.818   0.000  0.00  0.00    -0.306 N 
ATOM     22  C   UNL d   1      -0.402   4.596   0.000  0.00  0.00     0.059 A 
ATOM     23  C   UNL d   1       0.088   5.224   0.000  0.00  0.00     0.080 A 
ATOM     24  C   UNL d   1       0.858   5.316   0.000  0.00  0.00     0.061 A 
ATOM     25  C   UNL d   1       0.352   4.161   0.000  0.00  0.00     0.024 A 
ATOM     26  N   UNL d   1       1.486   4.839   0.000  0.00  0.00    -0.280 N 
ATOM     27  C   UNL d   1       1.587   4.048   0.000  0.00  0.00     0.049 A 
ATOM     28  C   UNL d   1       2.122   5.316   0.000  0.00  0.00     0.264 A 
ATOM     29  C   UNL d   1       1.109   3.437   0.000  0.00  0.00     0.079 A 
ATOM     30  C   UNL d   1       2.323   3.751   0.000  0.00  0.00     0.014 A 
ATOM     31  C   UNL d   1       0.327   3.336   0.000  0.00  0.00     0.059 A 
ATOM     32  C   UNL d   1       2.951   4.224   0.000  0.00  0.00     0.006 A 
ATOM     33  C   UNL d   1       2.851   5.015   0.000  0.00  0.00     0.061 A 
ATOM     34  O   UNL d   1       2.014   6.107   0.000  0.00  0.00    -0.267 OA
ENDBRANCH  20  21
ENDBRANCH   2  20
TORSDOF 3
