REMARK  5 active torsions:
REMARK  status: ('A' for Active; 'I' for Inactive)
REMARK    1  A    between atoms: N_6  and  C_1 
REMARK    2  A    between atoms: S_2  and  C_11 
REMARK    3  A    between atoms: N_8  and  S_2 
REMARK    4  A    between atoms: C_10  and  C_3 
REMARK       I    between atoms: C_9  and  N_6 
REMARK    5  A    between atoms: C_14  and  C_9 
REMARK       I    between atoms: N_22  and  C_10 
ROOT
ATOM      1  C   UNL d   1       1.757   2.088   0.000  0.00  0.00     0.104 A 
ATOM      2  C   UNL d   1       0.100   2.068   0.000  0.00  0.00     0.058 A 
ATOM      3  C   UNL d   1       1.355   1.371   0.000  0.00  0.00     0.013 A 
ATOM      4  C   UNL d   1       1.331   2.805   0.000  0.00  0.00     0.013 A 
ATOM      5  C   UNL d   1       0.526   1.359   0.000  0.00  0.00     0.005 A 
ATOM      6  C   UNL d   1       0.506   2.793   0.000  0.00  0.00     0.005 A 
ENDROOT
BRANCH   2   7
ATOM      7  C   UNL d   1      -0.725   2.056   0.000  0.00  0.00     0.280 C 
ATOM      8  N   UNL d   1      -1.076   1.160   0.000  0.00  0.00    -0.201 NA
ATOM      9  O   UNL d   1      -0.988   2.686   0.000  0.00  0.00    -0.265 OA
BRANCH   8  10
ATOM     10  C   UNL d   1      -1.813   1.192   0.000  0.00  0.00     0.119 A 
ATOM     11  C   UNL d   1      -2.439   1.650   0.000  0.00  0.00     0.082 A 
ATOM     12  C   UNL d   1      -3.084   1.192   0.000  0.00  0.00     0.013 A 
ATOM     13  C   UNL d   1      -3.857   1.359   0.000  0.00  0.00     0.001 A 
ATOM     14  C   UNL d   1      -2.841   0.438   0.000  0.00  0.00     0.031 A 
ATOM     15  C   UNL d   1      -4.384   0.773   0.000  0.00  0.00     0.001 A 
ATOM     16  C   UNL d   1      -4.144   0.024   0.000  0.00  0.00     0.006 A 
ATOM     17  S   UNL d   1      -2.056   0.438   0.000  0.00  0.00    -0.068 SA
BRANCH  11  18
ATOM     18  C   UNL d   1      -2.435   2.439   0.000  0.00  0.00     0.281 C 
ATOM     19  O   UNL d   1      -1.746   2.829   0.000  0.00  0.00    -0.265 OA
ATOM     20  N   UNL d   1      -3.116   2.841   0.000  0.00  0.00    -0.205 NA
ATOM     21  C   UNL d   1      -3.108   3.666   0.000  0.00  0.00     0.123 C 
ENDBRANCH  11  18
ENDBRANCH   8  10
ENDBRANCH   2   7
BRANCH   1  22
ATOM     22  S   UNL d   1       2.586   2.100   0.000  0.00  0.00     0.272 S 
ATOM     23  O   UNL d   1       2.598   1.275   0.000  0.00  0.00    -0.200 OA
ATOM     24  O   UNL d   1       2.574   2.929   0.000  0.00  0.00    -0.200 OA
BRANCH  22  25
ATOM     25  N   UNL d   1       3.411   2.112   0.000  0.00  0.00    -0.225 N 
ATOM     26  C   UNL d   1       3.818   2.829   0.000  0.00  0.00     0.118 A 
ATOM     27  C   UNL d   1       4.651   2.841   0.000  0.00  0.00     0.142 A 
ATOM     28  O   UNL d   1       5.073   2.128   0.000  0.00  0.00    -0.300 OA
ATOM     29  C   UNL d   1       4.667   1.419   0.000  0.00  0.00     0.142 A 
ATOM     30  C   UNL d   1       3.842   1.407   0.000  0.00  0.00     0.118 A 
ENDBRANCH  22  25
ENDBRANCH   1  22
TORSDOF 5
