REMARK  4 active torsions:
REMARK  status: ('A' for Active; 'I' for Inactive)
REMARK    1  A    between atoms: C_18  and  C_5 
REMARK    2  A    between atoms: C_7  and  C_8 
REMARK       I    between atoms: C_8  and  N_17 
REMARK    3  A    between atoms: N_17  and  C_19 
REMARK    4  A    between atoms: C_19  and  C_18 
ROOT
ATOM      1  C   UNL d   1      -0.918   3.011   0.000  0.00  0.00     0.148 A 
ATOM      2  N   UNL d   1      -0.661   3.796   0.000  0.00  0.00    -0.288 N 
ATOM      3  N   UNL d   1      -1.735   3.011   0.000  0.00  0.00    -0.227 NA
ATOM      4  C   UNL d   1      -1.336   4.278   0.000  0.00  0.00     0.101 A 
ATOM      5  C   UNL d   1      -1.997   3.787   0.000  0.00  0.00     0.102 A 
ATOM      6  C   UNL d   1      -0.358   2.405   0.000  0.00  0.00     0.035 A 
ATOM      7  C   UNL d   1       0.142   3.975   0.000  0.00  0.00     0.082 A 
ATOM      8  C   UNL d   1       0.693   3.369   0.000  0.00  0.00     0.019 A 
ATOM      9  C   UNL d   1       0.445   2.575   0.000  0.00  0.00     0.004 A 
ATOM     10  C   UNL d   1      -0.606   1.607   0.000  0.00  0.00     0.003 C 
ENDROOT
BRANCH   5  11
ATOM     11  C   UNL d   1      -2.791   4.030   0.000  0.00  0.00     0.042 C 
BRANCH  11  12
ATOM     12  C   UNL d   1      -3.397   3.465   0.000  0.00  0.00     0.104 C 
BRANCH  12  13
ATOM     13  N   UNL d   1      -4.181   3.704   0.000  0.00  0.00    -0.205 NA
ATOM     14  C   UNL d   1      -4.787   3.140   0.000  0.00  0.00     0.302 C 
ATOM     15  O   UNL d   1      -5.563   3.383   0.000  0.00  0.00    -0.263 OA
BRANCH  14  16
ATOM     16  C   UNL d   1      -4.595   2.336   0.000  0.00  0.00     0.158 A 
ATOM     17  O   UNL d   1      -3.810   2.102   0.000  0.00  0.00    -0.300 OA
ATOM     18  C   UNL d   1      -3.787   1.276   0.000  0.00  0.00     0.123 A 
ATOM     19  C   UNL d   1      -4.553   1.001   0.000  0.00  0.00     0.029 A 
ATOM     20  C   UNL d   1      -5.063   1.661   0.000  0.00  0.00     0.032 A 
ENDBRANCH  14  16
ENDBRANCH  12  13
ENDBRANCH  11  12
ENDBRANCH   5  11
TORSDOF 4
