REMARK  4 active torsions:
REMARK  status: ('A' for Active; 'I' for Inactive)
REMARK    1  A    between atoms: C_2  and  S_1 
REMARK    2  A    between atoms: N_11  and  S_1 
REMARK    3  A    between atoms: C_7  and  C_19 
REMARK    4  A    between atoms: C_19  and  N_11 
ROOT
ATOM      1  C   UNL d   1      -2.446  -0.242   0.000  0.00  0.00     0.133 C 
ENDROOT
BRANCH   1   2
ATOM      2  C   UNL d   1      -2.871   0.471   0.000  0.00  0.00     0.120 A 
ATOM      3  N   UNL d   1      -2.538   1.208   0.000  0.00  0.00    -0.225 NA
ATOM      4  C   UNL d   1      -3.158   1.771   0.000  0.00  0.00     0.148 A 
ATOM      5  C   UNL d   1      -3.158   2.596   0.000  0.00  0.00     0.037 A 
ATOM      6  N   UNL d   1      -3.871   1.358   0.000  0.00  0.00    -0.288 N 
ATOM      7  C   UNL d   1      -3.871   3.008   0.000  0.00  0.00     0.004 A 
ATOM      8  C   UNL d   1      -3.862   3.833   0.000  0.00  0.00     0.000 C 
ATOM      9  C   UNL d   1      -4.583   2.596   0.000  0.00  0.00     0.019 A 
ATOM     10  C   UNL d   1      -4.583   1.771   0.000  0.00  0.00     0.082 A 
ATOM     11  C   UNL d   1      -3.696   0.546   0.000  0.00  0.00     0.102 A 
ENDBRANCH   1   2
BRANCH   1  12
ATOM     12  N   UNL d   1      -1.621  -0.229   0.000  0.00  0.00    -0.155 NA
BRANCH  12  13
ATOM     13  S   UNL d   1      -1.200  -0.942   0.000  0.00  0.00     0.291 S 
ATOM     14  O   UNL d   1      -0.483  -0.517   0.000  0.00  0.00    -0.198 OA
ATOM     15  O   UNL d   1      -1.921  -1.363   0.000  0.00  0.00    -0.198 OA
BRANCH  13  16
ATOM     16  C   UNL d   1      -0.783  -1.654   0.000  0.00  0.00     0.135 A 
ATOM     17  S   UNL d   1       0.029  -1.738   0.000  0.00  0.00    -0.062 SA
ATOM     18  C   UNL d   1       0.212  -2.542   0.000  0.00  0.00     0.088 A 
ATOM     19 CL   UNL d   1       0.967  -2.867   0.000  0.00  0.00    -0.075 Cl
ATOM     20  C   UNL d   1      -0.508  -2.962   0.000  0.00  0.00     0.019 A 
ATOM     21  C   UNL d   1      -1.121  -2.413   0.000  0.00  0.00     0.021 A 
ENDBRANCH  13  16
ENDBRANCH  12  13
ENDBRANCH   1  12
TORSDOF 4
