REMARK  5 active torsions:
REMARK  status: ('A' for Active; 'I' for Inactive)
REMARK    1  A    between atoms: N_6  and  C_1 
REMARK    2  A    between atoms: C_7  and  C_2 
REMARK       I    between atoms: C_8  and  N_6 
REMARK       I    between atoms: N_13  and  C_7 
REMARK    3  A    between atoms: C_9  and  C_8 
REMARK    4  A    between atoms: C_10  and  C_9 
REMARK    5  A    between atoms: C_15  and  C_10 
ROOT
ATOM      1  C   UNL d   1      -1.813   1.192   0.000  0.00  0.00     0.119 A 
ATOM      2  C   UNL d   1      -2.439   1.650   0.000  0.00  0.00     0.082 A 
ATOM      3  S   UNL d   1      -2.056   0.438   0.000  0.00  0.00    -0.068 SA
ATOM      4  C   UNL d   1      -3.084   1.192   0.000  0.00  0.00     0.013 A 
ATOM      5  C   UNL d   1      -2.841   0.438   0.000  0.00  0.00     0.031 A 
ATOM      6  C   UNL d   1      -3.857   1.359   0.000  0.00  0.00     0.001 A 
ATOM      7  C   UNL d   1      -4.144   0.024   0.000  0.00  0.00     0.006 A 
ATOM      8  C   UNL d   1      -4.384   0.773   0.000  0.00  0.00     0.001 A 
ENDROOT
BRANCH   1   9
ATOM      9  N   UNL d   1      -1.076   1.160   0.000  0.00  0.00    -0.201 NA
ATOM     10  C   UNL d   1      -0.725   2.056   0.000  0.00  0.00     0.280 C 
ATOM     11  O   UNL d   1      -0.988   2.686   0.000  0.00  0.00    -0.265 OA
BRANCH  10  12
ATOM     12  C   UNL d   1       0.100   2.068   0.000  0.00  0.00     0.062 C 
BRANCH  12  13
ATOM     13  C   UNL d   1       0.506   2.793   0.000  0.00  0.00     0.005 C 
BRANCH  13  14
ATOM     14  C   UNL d   1       1.331   2.805   0.000  0.00  0.00     0.000 A 
ATOM     15  C   UNL d   1       1.738   3.527   0.000  0.00  0.00     0.000 A 
ATOM     16  C   UNL d   1       2.562   3.547   0.000  0.00  0.00     0.000 A 
ATOM     17  C   UNL d   1       2.993   2.841   0.000  0.00  0.00     0.000 A 
ATOM     18  C   UNL d   1       2.586   2.112   0.000  0.00  0.00     0.000 A 
ATOM     19  C   UNL d   1       1.761   2.100   0.000  0.00  0.00     0.000 A 
ENDBRANCH  13  14
ENDBRANCH  12  13
ENDBRANCH  10  12
ENDBRANCH   1   9
BRANCH   2  20
ATOM     20  C   UNL d   1      -2.435   2.439   0.000  0.00  0.00     0.281 C 
ATOM     21  O   UNL d   1      -1.746   2.829   0.000  0.00  0.00    -0.265 OA
ATOM     22  N   UNL d   1      -3.116   2.841   0.000  0.00  0.00    -0.205 NA
ATOM     23  C   UNL d   1      -3.108   3.666   0.000  0.00  0.00     0.123 C 
ENDBRANCH   2  20
TORSDOF 5
