REMARK  9 active torsions:
REMARK  status: ('A' for Active; 'I' for Inactive)
REMARK    1  A    between atoms: N_3  and  C_1 
REMARK       I    between atoms: C_7  and  N_3 
REMARK    2  A    between atoms: S_10  and  C_4 
REMARK    3  A    between atoms: C_9  and  C_7 
REMARK    4  A    between atoms: C_8  and  C_17 
REMARK       I    between atoms: N_12  and  C_8 
REMARK    5  A    between atoms: C_17  and  S_10 
REMARK    6  A    between atoms: C_18  and  N_12 
REMARK    7  A    between atoms: C_22  and  C_18 
REMARK    8  A    between atoms: O_23  and  C_19 
REMARK    9  A    between atoms: C_25  and  O_23 
ROOT
ATOM      1  C   UNL d   1      -2.393   3.317   0.000  0.00  0.00     0.219 A 
ATOM      2  S   UNL d   1      -1.723   3.796   0.000  0.00  0.00    -0.019 SA
ATOM      3  C   UNL d   1      -1.057   3.317   0.000  0.00  0.00     0.165 A 
ATOM      4  N   UNL d   1      -2.135   2.531   0.000  0.00  0.00    -0.120 NA
ATOM      5  N   UNL d   1      -1.311   2.531   0.000  0.00  0.00    -0.133 NA
ENDROOT
BRANCH   1   6
ATOM      6  N   UNL d   1      -3.180   3.579   0.000  0.00  0.00    -0.181 NA
ATOM      7  C   UNL d   1      -3.792   3.022   0.000  0.00  0.00     0.281 C 
ATOM      8  O   UNL d   1      -3.621   2.218   0.000  0.00  0.00    -0.265 OA
BRANCH   7   9
ATOM      9  C   UNL d   1      -4.578   3.280   0.000  0.00  0.00     0.058 A 
ATOM     10  C   UNL d   1      -4.741   4.087   0.000  0.00  0.00     0.007 A 
ATOM     11  C   UNL d   1      -5.527   4.337   0.000  0.00  0.00     0.025 A 
ATOM     12  C   UNL d   1      -6.135   3.792   0.000  0.00  0.00     0.100 A 
ATOM     13  C   UNL d   1      -5.969   2.980   0.000  0.00  0.00     0.025 A 
ATOM     14  C   UNL d   1      -5.182   2.730   0.000  0.00  0.00     0.007 A 
BRANCH  12  15
ATOM     15  O   UNL d   1      -6.922   4.037   0.000  0.00  0.00    -0.305 OA
BRANCH  15  16
ATOM     16  C   UNL d   1      -7.534   3.496   0.000  0.00  0.00     0.123 C 
ATOM     17  C   UNL d   1      -8.333   3.754   0.000  0.00  0.00     0.029 C 
ENDBRANCH  15  16
ENDBRANCH  12  15
ENDBRANCH   7   9
ENDBRANCH   1   6
BRANCH   3  18
ATOM     18  S   UNL d   1      -0.275   3.579   0.000  0.00  0.00    -0.054 SA
BRANCH  18  19
ATOM     19  C   UNL d   1       0.341   3.022   0.000  0.00  0.00     0.100 C 
BRANCH  19  20
ATOM     20  C   UNL d   1       0.167   2.218   0.000  0.00  0.00     0.286 C 
ATOM     21  N   UNL d   1       0.778   1.669   0.000  0.00  0.00    -0.204 NA
ATOM     22  O   UNL d   1      -0.620   1.956   0.000  0.00  0.00    -0.265 OA
BRANCH  21  23
ATOM     23  C   UNL d   1       0.604   0.857   0.000  0.00  0.00     0.127 C 
BRANCH  23  24
ATOM     24  C   UNL d   1       1.215   0.308   0.000  0.00  0.00     0.119 A 
ATOM     25  O   UNL d   1       2.027   0.470   0.000  0.00  0.00    -0.304 OA
ATOM     26  C   UNL d   1       2.439  -0.254   0.000  0.00  0.00     0.123 A 
ATOM     27  C   UNL d   1       1.890  -0.862   0.000  0.00  0.00     0.029 A 
ATOM     28  C   UNL d   1       1.141  -0.516   0.000  0.00  0.00     0.028 A 
ENDBRANCH  23  24
ENDBRANCH  21  23
ENDBRANCH  19  20
ENDBRANCH  18  19
ENDBRANCH   3  18
TORSDOF 9
