REMARK  9 active torsions:
REMARK  status: ('A' for Active; 'I' for Inactive)
REMARK       I    between atoms: C_2  and  N_1 
REMARK    1  A    between atoms: C_3  and  C_2 
REMARK    2  A    between atoms: C_15  and  C_4 
REMARK       I    between atoms: C_5  and  N_9 
REMARK    3  A    between atoms: C_6  and  C_5 
REMARK       I    between atoms: N_21  and  C_6 
REMARK    4  A    between atoms: N_9  and  C_15 
REMARK    5  A    between atoms: C_25  and  N_21 
REMARK    6  A    between atoms: N_23  and  C_26 
REMARK    7  A    between atoms: C_27  and  N_23 
REMARK    8  A    between atoms: C_28  and  N_23 
REMARK    9  A    between atoms: C_26  and  C_25 
ROOT
ATOM      1  N   UNL d   1      -4.540   1.743   0.000  0.00  0.00    -0.250 N 
ATOM      2  C   UNL d   1      -3.928   1.186   0.000  0.00  0.00     0.266 C 
ATOM      3  C   UNL d   1      -4.465   2.567   0.000  0.00  0.00     0.190 A 
ATOM      4  O   UNL d   1      -3.141   1.444   0.000  0.00  0.00    -0.267 OA
ATOM      5  O   UNL d   1      -5.213   2.904   0.000  0.00  0.00    -0.285 OA
ATOM      6  C   UNL d   1      -5.351   1.581   0.000  0.00  0.00     0.112 A 
ATOM      7  C   UNL d   1      -5.763   2.293   0.000  0.00  0.00     0.144 A 
ENDROOT
BRANCH   3   8
ATOM      8  C   UNL d   1      -3.741   2.979   0.000  0.00  0.00     0.146 C 
BRANCH   8   9
ATOM      9  N   UNL d   1      -3.741   3.803   0.000  0.00  0.00    -0.199 NA
ATOM     10  C   UNL d   1      -3.029   4.211   0.000  0.00  0.00     0.337 C 
ATOM     11  O   UNL d   1      -2.309   3.803   0.000  0.00  0.00    -0.260 OA
BRANCH  10  12
ATOM     12  C   UNL d   1      -3.029   5.035   0.000  0.00  0.00     0.337 C 
ATOM     13  O   UNL d   1      -3.741   5.447   0.000  0.00  0.00    -0.260 OA
ATOM     14  N   UNL d   1      -2.318   5.442   0.000  0.00  0.00    -0.201 NA
BRANCH  14  15
ATOM     15  C   UNL d   1      -2.093   6.245   0.000  0.00  0.00     0.121 C 
BRANCH  15  16
ATOM     16  C   UNL d   1      -1.306   6.483   0.000  0.00  0.00     0.101 C 
BRANCH  16  17
ATOM     17  N   UNL d   1      -1.119   7.282   0.000  0.00  0.00    -0.301 N 
BRANCH  17  18
ATOM     18  C   UNL d   1      -1.698   7.856   0.000  0.00  0.00     0.080 C 
ATOM     19  C   UNL d   1      -1.506   8.667   0.000  0.00  0.00     0.021 C 
ENDBRANCH  17  18
BRANCH  17  20
ATOM     20  C   UNL d   1      -0.308   7.514   0.000  0.00  0.00     0.080 C 
ATOM     21  C   UNL d   1      -0.112   8.326   0.000  0.00  0.00     0.021 C 
ENDBRANCH  17  20
ENDBRANCH  16  17
ENDBRANCH  15  16
ENDBRANCH  14  15
ENDBRANCH  10  12
ENDBRANCH   8   9
ENDBRANCH   3   8
BRANCH   2  22
ATOM     22  C   UNL d   1      -4.115   0.383   0.000  0.00  0.00     0.059 A 
ATOM     23  C   UNL d   1      -4.889   0.125   0.000  0.00  0.00     0.031 A 
ATOM     24  C   UNL d   1      -5.076  -0.678   0.000  0.00  0.00     0.119 A 
ATOM     25  O   UNL d   1      -5.788  -1.090   0.000  0.00  0.00    -0.300 OA
ATOM     26  C   UNL d   1      -4.452  -1.236   0.000  0.00  0.00     0.119 A 
ATOM     27  C   UNL d   1      -5.605  -1.902   0.000  0.00  0.00     0.304 A 
ATOM     28  O   UNL d   1      -4.793  -1.989   0.000  0.00  0.00    -0.300 OA
ATOM     29  C   UNL d   1      -3.666  -0.986   0.000  0.00  0.00     0.026 A 
ATOM     30  C   UNL d   1      -3.495  -0.179   0.000  0.00  0.00     0.007 A 
ENDBRANCH   2  22
TORSDOF 9
