REMARK  3 active torsions:
REMARK  status: ('A' for Active; 'I' for Inactive)
REMARK    1  A    between atoms: S_2  and  C_1 
REMARK    2  A    between atoms: N_8  and  S_2 
REMARK    3  A    between atoms: C_12  and  N_9 
ROOT
ATOM      1  N   UNL d   1      -0.964   3.373   0.000  0.00  0.00    -0.226 N 
ATOM      2  N   UNL d   1       0.464   4.189   0.000  0.00  0.00    -0.299 N 
ATOM      3  C   UNL d   1      -0.956   4.189   0.000  0.00  0.00     0.111 A 
ATOM      4  C   UNL d   1      -0.244   2.964   0.000  0.00  0.00     0.111 A 
ATOM      5  C   UNL d   1      -0.257   4.599   0.000  0.00  0.00     0.100 A 
ATOM      6  C   UNL d   1       0.472   3.373   0.000  0.00  0.00     0.100 A 
ENDROOT
BRANCH   1   7
ATOM      7  S   UNL d   1      -1.685   2.964   0.000  0.00  0.00     0.278 S 
ATOM      8  O   UNL d   1      -1.262   2.256   0.000  0.00  0.00    -0.199 OA
ATOM      9  O   UNL d   1      -2.099   3.684   0.000  0.00  0.00    -0.199 OA
BRANCH   7  10
ATOM     10  C   UNL d   1      -2.397   2.546   0.000  0.00  0.00     0.178 A 
ATOM     11  C   UNL d   1      -3.113   2.964   0.000  0.00  0.00     0.282 A 
ATOM     12  N   UNL d   1      -3.820   2.546   0.000  0.00  0.00    -0.224 N 
ATOM     13  O   UNL d   1      -3.113   3.775   0.000  0.00  0.00    -0.266 OA
ATOM     14  C   UNL d   1      -4.532   2.968   0.000  0.00  0.00     0.107 C 
ATOM     15  C   UNL d   1      -3.820   1.722   0.000  0.00  0.00     0.342 A 
ATOM     16  N   UNL d   1      -3.113   1.312   0.000  0.00  0.00    -0.255 N 
ATOM     17  O   UNL d   1      -4.532   1.300   0.000  0.00  0.00    -0.245 OA
ATOM     18  C   UNL d   1      -2.397   1.722   0.000  0.00  0.00     0.102 A 
ATOM     19  C   UNL d   1      -3.113   0.492   0.000  0.00  0.00     0.104 C 
ENDBRANCH   7  10
ENDBRANCH   1   7
BRANCH   2  20
ATOM     20  C   UNL d   1       1.184   4.607   0.000  0.00  0.00     0.092 A 
ATOM     21  C   UNL d   1       1.900   4.189   0.000  0.00  0.00     0.156 A 
ATOM     22  F   UNL d   1       1.904   3.373   0.000  0.00  0.00    -0.203 F 
ATOM     23  C   UNL d   1       2.612   4.607   0.000  0.00  0.00     0.031 A 
ATOM     24  C   UNL d   1       2.608   5.431   0.000  0.00  0.00     0.002 A 
ATOM     25  C   UNL d   1       1.892   5.849   0.000  0.00  0.00     0.002 A 
ATOM     26  C   UNL d   1       1.180   5.431   0.000  0.00  0.00     0.020 A 
ENDBRANCH   2  20
TORSDOF 3
