REMARK  7 active torsions:
REMARK  status: ('A' for Active; 'I' for Inactive)
REMARK       I    between atoms: C_2  and  N_1 
REMARK    1  A    between atoms: C_7  and  C_2 
REMARK    2  A    between atoms: C_10  and  C_3 
REMARK       I    between atoms: C_4  and  N_6 
REMARK    3  A    between atoms: C_5  and  C_4 
REMARK       I    between atoms: N_13  and  C_5 
REMARK    4  A    between atoms: N_6  and  C_10 
REMARK    5  A    between atoms: C_23  and  N_13 
REMARK    6  A    between atoms: O_22  and  C_24 
REMARK    7  A    between atoms: C_24  and  C_23 
ROOT
ATOM      1  N   UNL d   1      -4.532   1.748   0.000  0.00  0.00    -0.250 N 
ATOM      2  C   UNL d   1      -3.916   1.194   0.000  0.00  0.00     0.266 C 
ATOM      3  C   UNL d   1      -4.453   2.568   0.000  0.00  0.00     0.190 A 
ATOM      4  O   UNL d   1      -3.134   1.444   0.000  0.00  0.00    -0.267 OA
ATOM      5  O   UNL d   1      -5.214   2.905   0.000  0.00  0.00    -0.285 OA
ATOM      6  C   UNL d   1      -5.339   1.581   0.000  0.00  0.00     0.112 A 
ATOM      7  C   UNL d   1      -5.764   2.293   0.000  0.00  0.00     0.144 A 
ENDROOT
BRANCH   3   8
ATOM      8  C   UNL d   1      -3.741   2.980   0.000  0.00  0.00     0.146 C 
BRANCH   8   9
ATOM      9  N   UNL d   1      -3.741   3.804   0.000  0.00  0.00    -0.199 NA
ATOM     10  C   UNL d   1      -3.030   4.212   0.000  0.00  0.00     0.337 C 
ATOM     11  O   UNL d   1      -3.030   5.035   0.000  0.00  0.00    -0.260 OA
BRANCH  10  12
ATOM     12  C   UNL d   1      -2.310   3.804   0.000  0.00  0.00     0.337 C 
ATOM     13  O   UNL d   1      -2.310   2.980   0.000  0.00  0.00    -0.260 OA
ATOM     14  N   UNL d   1      -1.594   4.212   0.000  0.00  0.00    -0.200 NA
BRANCH  14  15
ATOM     15  C   UNL d   1      -0.882   3.816   0.000  0.00  0.00     0.129 C 
BRANCH  15  16
ATOM     16  C   UNL d   1      -0.162   4.224   0.000  0.00  0.00     0.137 C 
BRANCH  16  17
ATOM     17  O   UNL d   1       0.553   3.816   0.000  0.00  0.00    -0.325 OA
ATOM     18  C   UNL d   1       1.278   4.224   0.000  0.00  0.00     0.182 C 
ENDBRANCH  16  17
ENDBRANCH  15  16
ENDBRANCH  14  15
ENDBRANCH  10  12
ENDBRANCH   8   9
ENDBRANCH   3   8
BRANCH   2  19
ATOM     19  C   UNL d   1      -4.091   0.374   0.000  0.00  0.00     0.057 A 
ATOM     20  C   UNL d   1      -4.869   0.121   0.000  0.00  0.00     0.006 A 
ATOM     21  C   UNL d   1      -5.040  -0.687   0.000  0.00  0.00     0.012 A 
ATOM     22  C   UNL d   1      -4.428  -1.236   0.000  0.00  0.00     0.058 A 
ATOM     23  C   UNL d   1      -3.641  -0.978   0.000  0.00  0.00     0.012 A 
ATOM     24 CL   UNL d   1      -4.603  -2.052   0.000  0.00  0.00    -0.082 Cl
ATOM     25  C   UNL d   1      -3.479  -0.179   0.000  0.00  0.00     0.006 A 
ENDBRANCH   2  19
TORSDOF 7
