REMARK  6 active torsions:
REMARK  status: ('A' for Active; 'I' for Inactive)
REMARK    1  A    between atoms: C_7  and  S_1 
REMARK    2  A    between atoms: N_11  and  S_1 
REMARK    3  A    between atoms: C_5  and  C_21 
REMARK    4  A    between atoms: C_22  and  N_11 
REMARK    5  A    between atoms: C_20  and  C_13 
REMARK    6  A    between atoms: C_21  and  C_22 
ROOT
ATOM      1  S   UNL d   1       0.890   3.136   0.000  0.00  0.00     0.285 S 
ATOM      2  O   UNL d   1       0.318   3.733   0.000  0.00  0.00    -0.198 OA
ATOM      3  O   UNL d   1       1.484   3.708   0.000  0.00  0.00    -0.198 OA
ENDROOT
BRANCH   1   4
ATOM      4  C   UNL d   1       1.459   2.546   0.000  0.00  0.00     0.105 A 
ATOM      5  C   UNL d   1       2.262   2.755   0.000  0.00  0.00     0.013 A 
ATOM      6  C   UNL d   1       2.835   2.153   0.000  0.00  0.00     0.001 A 
ATOM      7  C   UNL d   1       2.613   1.367   0.000  0.00  0.00     0.000 A 
ATOM      8  C   UNL d   1       1.810   1.162   0.000  0.00  0.00     0.001 A 
ATOM      9  C   UNL d   1       1.233   1.752   0.000  0.00  0.00     0.013 A 
BRANCH   7  10
ATOM     10  C   UNL d   1       3.178   0.773   0.000  0.00  0.00     0.000 A 
ATOM     11  C   UNL d   1       2.952  -0.017   0.000  0.00  0.00     0.000 A 
ATOM     12  C   UNL d   1       3.529  -0.606   0.000  0.00  0.00     0.000 A 
ATOM     13  C   UNL d   1       4.327  -0.406   0.000  0.00  0.00     0.000 A 
ATOM     14  C   UNL d   1       4.557   0.389   0.000  0.00  0.00     0.000 A 
ATOM     15  C   UNL d   1       3.976   0.974   0.000  0.00  0.00     0.000 A 
ENDBRANCH   7  10
ENDBRANCH   1   4
BRANCH   1  16
ATOM     16  N   UNL d   1       0.293   2.567   0.000  0.00  0.00    -0.157 NA
BRANCH  16  17
ATOM     17  C   UNL d   1      -0.489   2.793   0.000  0.00  0.00     0.114 C 
BRANCH  17  18
ATOM     18  C   UNL d   1      -1.091   2.220   0.000  0.00  0.00     0.042 C 
BRANCH  18  19
ATOM     19  C   UNL d   1      -1.890   2.467   0.000  0.00  0.00     0.102 A 
ATOM     20  N   UNL d   1      -2.157   3.244   0.000  0.00  0.00    -0.227 NA
ATOM     21  C   UNL d   1      -2.981   3.244   0.000  0.00  0.00     0.148 A 
ATOM     22  C   UNL d   1      -3.537   3.846   0.000  0.00  0.00     0.037 A 
ATOM     23  N   UNL d   1      -3.236   2.454   0.000  0.00  0.00    -0.288 N 
ATOM     24  C   UNL d   1      -4.348   3.671   0.000  0.00  0.00     0.005 A 
ATOM     25  C   UNL d   1      -4.599   2.893   0.000  0.00  0.00     0.019 A 
ATOM     26  C   UNL d   1      -4.047   2.279   0.000  0.00  0.00     0.082 A 
ATOM     27  C   UNL d   1      -2.567   1.965   0.000  0.00  0.00     0.101 A 
ENDBRANCH  18  19
ENDBRANCH  17  18
ENDBRANCH  16  17
ENDBRANCH   1  16
TORSDOF 6
