REMARK  6 active torsions:
REMARK  status: ('A' for Active; 'I' for Inactive)
REMARK       I    between atoms: C_2  and  N_1 
REMARK    1  A    between atoms: C_3  and  C_2 
REMARK    2  A    between atoms: C_12  and  C_4 
REMARK       I    between atoms: C_5  and  N_8 
REMARK    3  A    between atoms: C_6  and  C_5 
REMARK       I    between atoms: N_9  and  C_6 
REMARK    4  A    between atoms: N_8  and  C_12 
REMARK    5  A    between atoms: C_19  and  N_9 
REMARK    6  A    between atoms: C_21  and  C_19 
ROOT
ATOM      1  C   UNL d   1      -3.034   4.218   0.000  0.00  0.00     0.337 C 
ATOM      2  N   UNL d   1      -3.747   3.809   0.000  0.00  0.00    -0.199 NA
ATOM      3  O   UNL d   1      -2.313   3.801   0.000  0.00  0.00    -0.260 OA
ENDROOT
BRANCH   2   4
ATOM      4  C   UNL d   1      -3.747   2.984   0.000  0.00  0.00     0.146 C 
BRANCH   4   5
ATOM      5  C   UNL d   1      -4.472   2.571   0.000  0.00  0.00     0.190 A 
ATOM      6  N   UNL d   1      -4.547   1.750   0.000  0.00  0.00    -0.250 N 
ATOM      7  C   UNL d   1      -3.984   1.138   0.000  0.00  0.00     0.272 C 
ATOM      8  C   UNL d   1      -5.359   1.584   0.000  0.00  0.00     0.112 A 
ATOM      9  O   UNL d   1      -3.176   1.321   0.000  0.00  0.00    -0.266 OA
ATOM     10  C   UNL d   1      -5.772   2.296   0.000  0.00  0.00     0.144 A 
ATOM     11  O   UNL d   1      -5.209   2.909   0.000  0.00  0.00    -0.285 OA
BRANCH   7  12
ATOM     12  C   UNL d   1      -4.226   0.350   0.000  0.00  0.00     0.086 A 
ATOM     13  S   UNL d   1      -4.984   0.008   0.000  0.00  0.00    -0.082 SA
ATOM     14  C   UNL d   1      -4.884  -0.825   0.000  0.00  0.00     0.036 A 
ATOM     15  C   UNL d   1      -4.072  -0.979   0.000  0.00  0.00     0.008 A 
ATOM     16  C   UNL d   1      -3.663  -0.263   0.000  0.00  0.00     0.012 A 
ENDBRANCH   7  12
ENDBRANCH   4   5
ENDBRANCH   2   4
BRANCH   1  17
ATOM     17  C   UNL d   1      -3.034   5.030   0.000  0.00  0.00     0.337 C 
ATOM     18  N   UNL d   1      -2.334   5.451   0.000  0.00  0.00    -0.202 NA
ATOM     19  O   UNL d   1      -3.759   5.443   0.000  0.00  0.00    -0.260 OA
BRANCH  18  20
ATOM     20  C   UNL d   1      -1.609   5.043   0.000  0.00  0.00     0.102 C 
BRANCH  20  21
ATOM     21  C   UNL d   1      -0.896   5.480   0.000  0.00  0.00     0.019 A 
ATOM     22  C   UNL d   1      -0.900   6.301   0.000  0.00  0.00     0.004 A 
ATOM     23  C   UNL d   1      -0.188   6.718   0.000  0.00  0.00     0.030 A 
ATOM     24  C   UNL d   1       0.529   6.326   0.000  0.00  0.00     0.140 A 
ATOM     25  C   UNL d   1       0.542   5.505   0.000  0.00  0.00     0.030 A 
ATOM     26  F   UNL d   1       1.242   6.755   0.000  0.00  0.00    -0.204 F 
ATOM     27  C   UNL d   1      -0.163   5.080   0.000  0.00  0.00     0.004 A 
ENDBRANCH  20  21
ENDBRANCH  18  20
ENDBRANCH   1  17
TORSDOF 6
