REMARK  6 active torsions:
REMARK  status: ('A' for Active; 'I' for Inactive)
REMARK       I    between atoms: C_2  and  N_1 
REMARK    1  A    between atoms: C_8  and  C_2 
REMARK    2  A    between atoms: C_11  and  C_3 
REMARK       I    between atoms: C_4  and  N_6 
REMARK    3  A    between atoms: C_5  and  C_4 
REMARK       I    between atoms: N_7  and  C_5 
REMARK    4  A    between atoms: N_6  and  C_11 
REMARK    5  A    between atoms: C_17  and  N_7 
REMARK    6  A    between atoms: C_20  and  C_17 
ROOT
ATOM      1  C   UNL d   1      -3.743   2.981   0.000  0.00  0.00     0.146 C 
ENDROOT
BRANCH   1   2
ATOM      2  N   UNL d   1      -3.743   3.805   0.000  0.00  0.00    -0.199 NA
ATOM      3  C   UNL d   1      -3.031   4.213   0.000  0.00  0.00     0.337 C 
ATOM      4  O   UNL d   1      -3.031   5.038   0.000  0.00  0.00    -0.260 OA
BRANCH   3   5
ATOM      5  C   UNL d   1      -2.311   3.805   0.000  0.00  0.00     0.337 C 
ATOM      6  N   UNL d   1      -1.607   4.213   0.000  0.00  0.00    -0.202 NA
ATOM      7  O   UNL d   1      -2.311   2.981   0.000  0.00  0.00    -0.260 OA
BRANCH   6   8
ATOM      8  C   UNL d   1      -0.887   3.805   0.000  0.00  0.00     0.102 C 
BRANCH   8   9
ATOM      9  C   UNL d   1      -0.175   4.213   0.000  0.00  0.00     0.019 A 
ATOM     10  C   UNL d   1       0.541   3.818   0.000  0.00  0.00     0.002 A 
ATOM     11  C   UNL d   1       1.253   4.213   0.000  0.00  0.00     0.011 A 
ATOM     12  C   UNL d   1       1.253   5.050   0.000  0.00  0.00     0.058 A 
ATOM     13  C   UNL d   1       0.541   5.462   0.000  0.00  0.00     0.011 A 
ATOM     14 CL   UNL d   1       1.978   5.462   0.000  0.00  0.00    -0.082 Cl
ATOM     15  C   UNL d   1      -0.175   5.050   0.000  0.00  0.00     0.002 A 
ENDBRANCH   8   9
ENDBRANCH   6   8
ENDBRANCH   3   5
ENDBRANCH   1   2
BRANCH   1  16
ATOM     16  C   UNL d   1      -4.455   2.569   0.000  0.00  0.00     0.190 A 
ATOM     17  N   UNL d   1      -4.534   1.749   0.000  0.00  0.00    -0.250 N 
ATOM     18  C   UNL d   1      -3.918   1.195   0.000  0.00  0.00     0.266 C 
ATOM     19  C   UNL d   1      -5.341   1.582   0.000  0.00  0.00     0.112 A 
ATOM     20  O   UNL d   1      -3.135   1.445   0.000  0.00  0.00    -0.267 OA
ATOM     21  C   UNL d   1      -5.766   2.294   0.000  0.00  0.00     0.144 A 
ATOM     22  O   UNL d   1      -5.217   2.906   0.000  0.00  0.00    -0.285 OA
BRANCH  18  23
ATOM     23  C   UNL d   1      -4.093   0.375   0.000  0.00  0.00     0.057 A 
ATOM     24  C   UNL d   1      -4.871   0.121   0.000  0.00  0.00     0.006 A 
ATOM     25  C   UNL d   1      -5.042  -0.687   0.000  0.00  0.00     0.012 A 
ATOM     26  C   UNL d   1      -4.430  -1.236   0.000  0.00  0.00     0.058 A 
ATOM     27  C   UNL d   1      -3.643  -0.978   0.000  0.00  0.00     0.012 A 
ATOM     28 CL   UNL d   1      -4.605  -2.053   0.000  0.00  0.00    -0.082 Cl
ATOM     29  C   UNL d   1      -3.481  -0.179   0.000  0.00  0.00     0.006 A 
ENDBRANCH  18  23
ENDBRANCH   1  16
TORSDOF 6
