REMARK  12 active torsions:
REMARK  status: ('A' for Active; 'I' for Inactive)
REMARK    1  A    between atoms: C_7  and  C_1 
REMARK    2  A    between atoms: C_8  and  N_2 
REMARK    3  A    between atoms: C_6  and  C_5 
REMARK    4  A    between atoms: C_9  and  C_7 
REMARK    5  A    between atoms: C_24  and  C_8 
REMARK    6  A    between atoms: C_12  and  C_9 
REMARK    7  A    between atoms: C_11  and  C_12 
REMARK    8  A    between atoms: O_27  and  C_13 
REMARK    9  A    between atoms: N_14  and  C_24 
REMARK   10  A    between atoms: O_28  and  C_18 
REMARK   11  A    between atoms: C_33  and  O_28 
REMARK   12  A    between atoms: C_35  and  C_33 
ROOT
ATOM      1  C   UNL d   1       1.835  -1.977   0.000  0.00  0.00     0.099 A 
ATOM      2  N   UNL d   1       2.914  -1.190   0.000  0.00  0.00    -0.269 N 
ATOM      3  C   UNL d   1       1.586  -1.190   0.000  0.00  0.00     0.256 A 
ATOM      4  C   UNL d   1       2.248  -0.703   0.000  0.00  0.00     0.304 A 
ATOM      5  C   UNL d   1       2.660  -1.977   0.000  0.00  0.00     0.073 A 
ATOM      6  O   UNL d   1       2.248   0.121   0.000  0.00  0.00    -0.263 OA
ATOM      7  O   UNL d   1       0.803  -0.936   0.000  0.00  0.00    -0.281 OA
ENDROOT
BRANCH   5   8
ATOM      8  C   UNL d   1       3.147  -2.639   0.000  0.00  0.00     0.018 A 
ATOM      9  C   UNL d   1       3.958  -2.551   0.000  0.00  0.00     0.028 A 
ATOM     10  C   UNL d   1       4.445  -3.213   0.000  0.00  0.00     0.117 A 
ATOM     11  C   UNL d   1       4.108  -3.975   0.000  0.00  0.00     0.122 A 
ATOM     12  C   UNL d   1       3.288  -4.058   0.000  0.00  0.00     0.027 A 
ATOM     13  C   UNL d   1       2.801  -3.388   0.000  0.00  0.00     0.004 A 
BRANCH  10  14
ATOM     14  O   UNL d   1       5.261  -3.126   0.000  0.00  0.00    -0.326 OA
ATOM     15  C   UNL d   1       5.748  -3.796   0.000  0.00  0.00     0.181 C 
ENDBRANCH  10  14
BRANCH  11  16
ATOM     16  O   UNL d   1       4.595  -4.637   0.000  0.00  0.00    -0.303 OA
BRANCH  16  17
ATOM     17  C   UNL d   1       4.258  -5.394   0.000  0.00  0.00     0.123 C 
BRANCH  17  18
ATOM     18  C   UNL d   1       4.745  -6.060   0.000  0.00  0.00     0.027 C 
ATOM     19  C   UNL d   1       4.408  -6.809   0.000  0.00  0.00     0.002 C 
ENDBRANCH  17  18
ENDBRANCH  16  17
ENDBRANCH  11  16
ENDBRANCH   5   8
BRANCH   2  20
ATOM     20  C   UNL d   1       3.700  -0.936   0.000  0.00  0.00     0.102 C 
BRANCH  20  21
ATOM     21  C   UNL d   1       3.875  -0.129   0.000  0.00  0.00     0.100 C 
BRANCH  21  22
ATOM     22  N   UNL d   1       4.657   0.121   0.000  0.00  0.00    -0.298 N 
ATOM     23  C   UNL d   1       4.824   0.920   0.000  0.00  0.00     0.107 A 
ATOM     24  C   UNL d   1       5.611   1.174   0.000  0.00  0.00     0.142 A 
ATOM     25  O   UNL d   1       6.223   0.620   0.000  0.00  0.00    -0.300 OA
ATOM     26  C   UNL d   1       6.048  -0.187   0.000  0.00  0.00     0.142 A 
ATOM     27  C   UNL d   1       5.269  -0.437   0.000  0.00  0.00     0.107 A 
ENDBRANCH  21  22
ENDBRANCH  20  21
ENDBRANCH   2  20
BRANCH   1  28
ATOM     28  C   UNL d   1       1.353  -2.639   0.000  0.00  0.00     0.200 C 
ATOM     29  O   UNL d   1       1.686  -3.396   0.000  0.00  0.00    -0.286 OA
BRANCH  28  30
ATOM     30  C   UNL d   1       0.529  -2.551   0.000  0.00  0.00     0.044 C 
BRANCH  30  31
ATOM     31  C   UNL d   1       0.042  -3.222   0.000  0.00  0.00     0.028 C 
BRANCH  31  32
ATOM     32  C   UNL d   1      -0.770  -3.134   0.000  0.00  0.00     0.100 A 
ATOM     33  O   UNL d   1      -1.324  -3.738   0.000  0.00  0.00    -0.305 OA
ATOM     34  C   UNL d   1      -2.081  -3.401   0.000  0.00  0.00     0.123 A 
ATOM     35  C   UNL d   1      -1.994  -2.585   0.000  0.00  0.00     0.029 A 
ATOM     36  C   UNL d   1      -1.182  -2.414   0.000  0.00  0.00     0.027 A 
ENDBRANCH  31  32
ENDBRANCH  30  31
ENDBRANCH  28  30
ENDBRANCH   1  28
TORSDOF 12
