REMARK  9 active torsions:
REMARK  status: ('A' for Active; 'I' for Inactive)
REMARK    1  A    between atoms: N_2  and  S_1 
REMARK    2  A    between atoms: C_5  and  S_1 
REMARK    3  A    between atoms: C_15  and  C_3 
REMARK       I    between atoms: C_4  and  N_11 
REMARK    4  A    between atoms: C_7  and  C_4 
REMARK       I    between atoms: N_22  and  C_7 
REMARK    5  A    between atoms: N_8  and  C_28 
REMARK    6  A    between atoms: N_11  and  C_15 
REMARK    7  A    between atoms: C_30  and  N_22 
REMARK    8  A    between atoms: C_28  and  C_29 
REMARK    9  A    between atoms: C_29  and  C_30 
ROOT
ATOM      1  N   UNL d   1      -4.521   1.741   0.000  0.00  0.00    -0.207 N 
ATOM      2  C   UNL d   1      -4.447   2.556   0.000  0.00  0.00     0.197 A 
ATOM      3  O   UNL d   1      -5.195   2.901   0.000  0.00  0.00    -0.285 OA
ATOM      4  C   UNL d   1      -5.332   1.567   0.000  0.00  0.00     0.120 A 
ATOM      5  C   UNL d   1      -5.756   2.281   0.000  0.00  0.00     0.144 A 
ENDROOT
BRANCH   2   6
ATOM      6  C   UNL d   1      -3.736   2.975   0.000  0.00  0.00     0.146 C 
BRANCH   6   7
ATOM      7  N   UNL d   1      -3.736   3.798   0.000  0.00  0.00    -0.199 NA
ATOM      8  C   UNL d   1      -3.025   4.206   0.000  0.00  0.00     0.337 C 
ATOM      9  O   UNL d   1      -3.025   5.029   0.000  0.00  0.00    -0.260 OA
BRANCH   8  10
ATOM     10  C   UNL d   1      -2.307   3.798   0.000  0.00  0.00     0.337 C 
ATOM     11  O   UNL d   1      -2.307   2.975   0.000  0.00  0.00    -0.260 OA
ATOM     12  N   UNL d   1      -1.604   4.202   0.000  0.00  0.00    -0.202 NA
BRANCH  12  13
ATOM     13  C   UNL d   1      -0.881   3.798   0.000  0.00  0.00     0.104 C 
BRANCH  13  14
ATOM     14  C   UNL d   1      -0.170   4.206   0.000  0.00  0.00     0.040 C 
BRANCH  14  15
ATOM     15  C   UNL d   1       0.540   3.811   0.000  0.00  0.00     0.083 C 
BRANCH  15  16
ATOM     16  N   UNL d   1       1.251   4.218   0.000  0.00  0.00    -0.285 N 
ATOM     17  C   UNL d   1       1.924   3.736   0.000  0.00  0.00     0.183 A 
ATOM     18  N   UNL d   1       2.593   4.218   0.000  0.00  0.00    -0.222 NA
ATOM     19  C   UNL d   1       2.336   5.004   0.000  0.00  0.00     0.120 A 
ATOM     20  C   UNL d   1       1.509   5.004   0.000  0.00  0.00     0.102 A 
ENDBRANCH  15  16
ENDBRANCH  14  15
ENDBRANCH  13  14
ENDBRANCH  12  13
ENDBRANCH   8  10
ENDBRANCH   6   7
ENDBRANCH   2   6
BRANCH   1  21
ATOM     21  S   UNL d   1      -3.911   1.193   0.000  0.00  0.00     0.273 S 
ATOM     22  O   UNL d   1      -3.362   1.804   0.000  0.00  0.00    -0.200 OA
ATOM     23  O   UNL d   1      -4.459   0.582   0.000  0.00  0.00    -0.200 OA
BRANCH  21  24
ATOM     24  C   UNL d   1      -3.300   0.644   0.000  0.00  0.00     0.104 A 
ATOM     25  C   UNL d   1      -3.474  -0.174   0.000  0.00  0.00     0.013 A 
ATOM     26  C   UNL d   1      -2.863  -0.723   0.000  0.00  0.00     0.007 A 
ATOM     27  C   UNL d   1      -2.070  -0.466   0.000  0.00  0.00     0.035 A 
ATOM     28  C   UNL d   1      -1.903   0.345   0.000  0.00  0.00     0.007 A 
ATOM     29 BR   UNL d   1      -1.454  -1.014   0.000  0.00  0.00    -0.049 Br
ATOM     30  C   UNL d   1      -2.514   0.893   0.000  0.00  0.00     0.013 A 
ENDBRANCH  21  24
ENDBRANCH   1  21
TORSDOF 9
