REMARK  6 active torsions:
REMARK  status: ('A' for Active; 'I' for Inactive)
REMARK    1  A    between atoms: C_12  and  N_3 
REMARK    2  A    between atoms: C_8  and  C_4 
REMARK    3  A    between atoms: O_23  and  C_11 
REMARK    4  A    between atoms: C_19  and  C_12 
REMARK    5  A    between atoms: N_13  and  C_19 
REMARK    6  A    between atoms: O_26  and  C_17 
ROOT
ATOM      1  C   UNL d   1       1.529  -1.692   0.000  0.00  0.00     0.083 A 
ATOM      2  C   UNL d   1       1.529  -2.517   0.000  0.00  0.00     0.161 A 
ATOM      3  N   UNL d   1       2.792  -2.092   0.000  0.00  0.00    -0.270 N 
ATOM      4  C   UNL d   1       2.304  -1.438   0.000  0.00  0.00     0.074 A 
ATOM      5  C   UNL d   1       2.317  -2.767   0.000  0.00  0.00     0.288 A 
ATOM      6  C   UNL d   1       0.817  -1.279   0.000  0.00  0.00     0.201 A 
ATOM      7  O   UNL d   1       0.817  -2.929   0.000  0.00  0.00    -0.302 OA
ATOM      8  C   UNL d   1       0.104  -1.692   0.000  0.00  0.00     0.064 A 
ATOM      9  C   UNL d   1       0.104  -2.517   0.000  0.00  0.00     0.103 A 
ATOM     10  O   UNL d   1       2.575  -3.550   0.000  0.00  0.00    -0.264 OA
ATOM     11  O   UNL d   1       0.817  -0.454   0.000  0.00  0.00    -0.286 OA
ATOM     12  C   UNL d   1      -0.600  -1.279   0.000  0.00  0.00     0.035 A 
ATOM     13  C   UNL d   1      -0.608  -2.929   0.000  0.00  0.00     0.027 A 
ATOM     14  C   UNL d   1      -1.321  -1.692   0.000  0.00  0.00     0.140 A 
ATOM     15  C   UNL d   1      -1.312  -2.517   0.000  0.00  0.00     0.032 A 
ATOM     16  F   UNL d   1      -2.033  -1.279   0.000  0.00  0.00    -0.204 F 
ENDROOT
BRANCH   4  17
ATOM     17  C   UNL d   1       2.562  -0.650   0.000  0.00  0.00     0.041 A 
ATOM     18  C   UNL d   1       3.367  -0.475   0.000  0.00  0.00     0.118 A 
ATOM     19  C   UNL d   1       3.617   0.308   0.000  0.00  0.00     0.116 A 
ATOM     20  C   UNL d   1       3.062   0.921   0.000  0.00  0.00     0.026 A 
ATOM     21  C   UNL d   1       2.254   0.746   0.000  0.00  0.00     0.002 A 
ATOM     22  C   UNL d   1       2.004  -0.042   0.000  0.00  0.00     0.004 A 
BRANCH  18  23
ATOM     23  O   UNL d   1       3.917  -1.087   0.000  0.00  0.00    -0.326 OA
ATOM     24  C   UNL d   1       4.717  -0.867   0.000  0.00  0.00     0.181 C 
ENDBRANCH  18  23
BRANCH  19  25
ATOM     25  O   UNL d   1       4.425   0.483   0.000  0.00  0.00    -0.326 OA
ATOM     26  C   UNL d   1       4.979  -0.125   0.000  0.00  0.00     0.181 C 
ENDBRANCH  19  25
ENDBRANCH   4  17
BRANCH   3  27
ATOM     27  C   UNL d   1       3.617  -2.092   0.000  0.00  0.00     0.102 C 
BRANCH  27  28
ATOM     28  C   UNL d   1       4.037  -2.804   0.000  0.00  0.00     0.100 C 
BRANCH  28  29
ATOM     29  N   UNL d   1       4.862  -2.800   0.000  0.00  0.00    -0.298 N 
ATOM     30  C   UNL d   1       5.275  -3.513   0.000  0.00  0.00     0.107 A 
ATOM     31  C   UNL d   1       6.092  -3.513   0.000  0.00  0.00     0.142 A 
ATOM     32  O   UNL d   1       6.504  -2.792   0.000  0.00  0.00    -0.300 OA
ATOM     33  C   UNL d   1       6.092  -2.079   0.000  0.00  0.00     0.142 A 
ATOM     34  C   UNL d   1       5.267  -2.079   0.000  0.00  0.00     0.107 A 
ENDBRANCH  28  29
ENDBRANCH  27  28
ENDBRANCH   3  27
TORSDOF 6
