REMARK  6 active torsions:
REMARK  status: ('A' for Active; 'I' for Inactive)
REMARK    1  A    between atoms: C_10  and  N_3 
REMARK    2  A    between atoms: C_12  and  C_6 
REMARK    3  A    between atoms: C_20  and  C_10 
REMARK    4  A    between atoms: C_11  and  C_17 
REMARK    5  A    between atoms: O_27  and  C_11 
REMARK    6  A    between atoms: N_13  and  C_20 
ROOT
ATOM      1  C   UNL d   1       2.509  -1.749   0.000  0.00  0.00     0.083 A 
ATOM      2  C   UNL d   1       2.509  -2.584   0.000  0.00  0.00     0.161 A 
ATOM      3  N   UNL d   1       3.780  -2.160   0.000  0.00  0.00    -0.270 N 
ATOM      4  C   UNL d   1       3.294  -2.833   0.000  0.00  0.00     0.288 A 
ATOM      5  C   UNL d   1       1.786  -1.338   0.000  0.00  0.00     0.201 A 
ATOM      6  C   UNL d   1       3.294  -1.496   0.000  0.00  0.00     0.072 A 
ATOM      7  O   UNL d   1       1.795  -2.995   0.000  0.00  0.00    -0.302 OA
ATOM      8  C   UNL d   1       1.076  -1.761   0.000  0.00  0.00     0.063 A 
ATOM      9  C   UNL d   1       1.076  -2.592   0.000  0.00  0.00     0.103 A 
ATOM     10  O   UNL d   1       3.556  -3.618   0.000  0.00  0.00    -0.264 OA
ATOM     11  O   UNL d   1       1.782  -0.515   0.000  0.00  0.00    -0.286 OA
ATOM     12  C   UNL d   1       0.361  -1.350   0.000  0.00  0.00     0.017 A 
ATOM     13  C   UNL d   1       0.361  -2.995   0.000  0.00  0.00     0.026 A 
ATOM     14  C   UNL d   1      -0.349  -1.761   0.000  0.00  0.00     0.058 A 
ATOM     15  C   UNL d   1      -0.349  -2.584   0.000  0.00  0.00     0.013 A 
ATOM     16 CL   UNL d   1      -1.059  -1.350   0.000  0.00  0.00    -0.082 Cl
ENDROOT
BRANCH   6  17
ATOM     17  C   UNL d   1       3.506  -0.698   0.000  0.00  0.00     0.016 A 
ATOM     18  C   UNL d   1       4.304  -0.478   0.000  0.00  0.00     0.002 A 
ATOM     19  C   UNL d   1       4.516   0.320   0.000  0.00  0.00     0.005 A 
ATOM     20  C   UNL d   1       3.930   0.906   0.000  0.00  0.00     0.063 A 
ATOM     21  C   UNL d   1       3.128   0.681   0.000  0.00  0.00     0.005 A 
ATOM     22  C   UNL d   1       2.920  -0.116   0.000  0.00  0.00     0.002 A 
BRANCH  20  23
ATOM     23  C   UNL d   1       4.142   1.703   0.000  0.00  0.00     0.296 C 
ATOM     24  O   UNL d   1       4.935   1.915   0.000  0.00  0.00    -0.259 OA
BRANCH  23  25
ATOM     25  O   UNL d   1       3.556   2.276   0.000  0.00  0.00    -0.296 OA
ATOM     26  C   UNL d   1       2.758   2.065   0.000  0.00  0.00     0.185 C 
ENDBRANCH  23  25
ENDBRANCH  20  23
ENDBRANCH   6  17
BRANCH   3  27
ATOM     27  C   UNL d   1       4.603  -2.160   0.000  0.00  0.00     0.102 C 
BRANCH  27  28
ATOM     28  C   UNL d   1       5.022  -2.871   0.000  0.00  0.00     0.100 C 
BRANCH  28  29
ATOM     29  N   UNL d   1       5.845  -2.871   0.000  0.00  0.00    -0.298 N 
ATOM     30  C   UNL d   1       6.248  -2.160   0.000  0.00  0.00     0.107 A 
ATOM     31  C   UNL d   1       7.070  -2.160   0.000  0.00  0.00     0.142 A 
ATOM     32  O   UNL d   1       7.482  -2.871   0.000  0.00  0.00    -0.300 OA
ATOM     33  C   UNL d   1       7.070  -3.581   0.000  0.00  0.00     0.142 A 
ATOM     34  C   UNL d   1       6.248  -3.581   0.000  0.00  0.00     0.107 A 
ENDBRANCH  28  29
ENDBRANCH  27  28
ENDBRANCH   3  27
TORSDOF 6
