REMARK  7 active torsions:
REMARK  status: ('A' for Active; 'I' for Inactive)
REMARK    1  A    between atoms: N_2  and  S_1 
REMARK    2  A    between atoms: C_6  and  S_1 
REMARK    3  A    between atoms: C_16  and  C_3 
REMARK       I    between atoms: C_4  and  N_10 
REMARK    4  A    between atoms: C_5  and  C_4 
REMARK       I    between atoms: N_11  and  C_5 
REMARK    5  A    between atoms: N_10  and  C_16 
REMARK    6  A    between atoms: C_26  and  N_11 
REMARK    7  A    between atoms: C_25  and  C_26 
ROOT
ATOM      1  C   UNL d   1      -3.020   4.198   0.000  0.00  0.00     0.337 C 
ATOM      2  N   UNL d   1      -3.730   3.792   0.000  0.00  0.00    -0.199 NA
ATOM      3  O   UNL d   1      -2.303   3.792   0.000  0.00  0.00    -0.260 OA
ENDROOT
BRANCH   2   4
ATOM      4  C   UNL d   1      -3.730   2.970   0.000  0.00  0.00     0.146 C 
BRANCH   4   5
ATOM      5  C   UNL d   1      -4.439   2.551   0.000  0.00  0.00     0.197 A 
ATOM      6  N   UNL d   1      -4.514   1.738   0.000  0.00  0.00    -0.207 N 
ATOM      7  C   UNL d   1      -5.323   1.564   0.000  0.00  0.00     0.120 A 
ATOM      8  C   UNL d   1      -5.746   2.278   0.000  0.00  0.00     0.144 A 
ATOM      9  O   UNL d   1      -5.186   2.896   0.000  0.00  0.00    -0.285 OA
BRANCH   6  10
ATOM     10  S   UNL d   1      -3.904   1.191   0.000  0.00  0.00     0.273 S 
ATOM     11  O   UNL d   1      -3.356   1.800   0.000  0.00  0.00    -0.200 OA
ATOM     12  O   UNL d   1      -4.451   0.581   0.000  0.00  0.00    -0.200 OA
BRANCH  10  13
ATOM     13  C   UNL d   1      -3.294   0.643   0.000  0.00  0.00     0.104 A 
ATOM     14  C   UNL d   1      -3.468  -0.174   0.000  0.00  0.00     0.013 A 
ATOM     15  C   UNL d   1      -2.858  -0.722   0.000  0.00  0.00     0.007 A 
ATOM     16  C   UNL d   1      -2.066  -0.465   0.000  0.00  0.00     0.035 A 
ATOM     17  C   UNL d   1      -1.900   0.344   0.000  0.00  0.00     0.007 A 
ATOM     18 BR   UNL d   1      -1.452  -1.012   0.000  0.00  0.00    -0.049 Br
ATOM     19  C   UNL d   1      -2.510   0.892   0.000  0.00  0.00     0.013 A 
ENDBRANCH  10  13
ENDBRANCH   6  10
ENDBRANCH   4   5
ENDBRANCH   2   4
BRANCH   1  20
ATOM     20  C   UNL d   1      -3.020   5.020   0.000  0.00  0.00     0.337 C 
ATOM     21  N   UNL d   1      -2.303   5.418   0.000  0.00  0.00    -0.202 NA
ATOM     22  O   UNL d   1      -3.730   5.431   0.000  0.00  0.00    -0.260 OA
BRANCH  21  23
ATOM     23  C   UNL d   1      -2.298   6.252   0.000  0.00  0.00     0.102 C 
BRANCH  23  24
ATOM     24  C   UNL d   1      -1.581   6.663   0.000  0.00  0.00     0.021 A 
ATOM     25  C   UNL d   1      -1.589   7.484   0.000  0.00  0.00     0.028 A 
ATOM     26  C   UNL d   1      -0.867   7.895   0.000  0.00  0.00     0.119 A 
ATOM     27  O   UNL d   1      -0.705   8.704   0.000  0.00  0.00    -0.300 OA
ATOM     28  C   UNL d   1      -0.149   7.484   0.000  0.00  0.00     0.119 A 
ATOM     29  C   UNL d   1       0.129   8.791   0.000  0.00  0.00     0.304 A 
ATOM     30  O   UNL d   1       0.452   8.032   0.000  0.00  0.00    -0.300 OA
ATOM     31  C   UNL d   1      -0.158   6.659   0.000  0.00  0.00     0.026 A 
ATOM     32  C   UNL d   1      -0.867   6.248   0.000  0.00  0.00     0.004 A 
ENDBRANCH  23  24
ENDBRANCH  21  23
ENDBRANCH   1  20
TORSDOF 7
