REMARK  4 active torsions:
REMARK  status: ('A' for Active; 'I' for Inactive)
REMARK    1  A    between atoms: S_7  and  C_2 
REMARK    2  A    between atoms: C_20  and  S_7 
REMARK    3  A    between atoms: C_10  and  C_20 
REMARK       I    between atoms: N_12  and  C_10 
REMARK    4  A    between atoms: C_15  and  N_12 
ROOT
ATOM      1  C   UNL d   1      -3.161   0.096   0.000  0.00  0.00     0.286 C 
ATOM      2  N   UNL d   1      -3.148  -0.730   0.000  0.00  0.00    -0.207 NA
ATOM      3  O   UNL d   1      -3.878   0.496   0.000  0.00  0.00    -0.265 OA
ENDROOT
BRANCH   1   4
ATOM      4  C   UNL d   1      -2.448   0.500   0.000  0.00  0.00     0.101 C 
BRANCH   4   5
ATOM      5  S   UNL d   1      -2.448   1.322   0.000  0.00  0.00    -0.041 SA
BRANCH   5   6
ATOM      6  C   UNL d   1      -3.161   1.735   0.000  0.00  0.00     0.220 A 
ATOM      7  N   UNL d   1      -3.161   2.560   0.000  0.00  0.00    -0.148 N 
ATOM      8  C   UNL d   1      -3.874   2.986   0.000  0.00  0.00     0.305 A 
ATOM      9  N   UNL d   1      -2.448   2.973   0.000  0.00  0.00    -0.037 N 
ATOM     10  C   UNL d   1      -4.587   2.560   0.000  0.00  0.00     0.185 A 
ATOM     11  O   UNL d   1      -3.874   3.803   0.000  0.00  0.00    -0.263 OA
ATOM     12  N   UNL d   1      -4.587   1.735   0.000  0.00  0.00    -0.139 NA
ATOM     13  N   UNL d   1      -3.874   1.326   0.000  0.00  0.00    -0.121 NA
ENDBRANCH   5   6
ENDBRANCH   4   5
ENDBRANCH   1   4
BRANCH   2  14
ATOM     14  C   UNL d   1      -3.861  -1.151   0.000  0.00  0.00     0.087 A 
ATOM     15  C   UNL d   1      -3.849  -1.977   0.000  0.00  0.00     0.045 A 
ATOM     16  C   UNL d   1      -4.554  -2.394   0.000  0.00  0.00     0.121 A 
ATOM     17  O   UNL d   1      -4.724  -3.207   0.000  0.00  0.00    -0.299 OA
ATOM     18  C   UNL d   1      -5.275  -1.993   0.000  0.00  0.00     0.119 A 
ATOM     19  C   UNL d   1      -5.538  -3.307   0.000  0.00  0.00     0.304 A 
ATOM     20  O   UNL d   1      -5.880  -2.556   0.000  0.00  0.00    -0.300 OA
ATOM     21  C   UNL d   1      -5.287  -1.168   0.000  0.00  0.00     0.028 A 
ATOM     22  C   UNL d   1      -4.574  -0.742   0.000  0.00  0.00     0.021 A 
ENDBRANCH   2  14
TORSDOF 4
