REMARK  4 active torsions:
REMARK  status: ('A' for Active; 'I' for Inactive)
REMARK    1  A    between atoms: C_17  and  C_4 
REMARK    2  A    between atoms: C_6  and  C_8 
REMARK       I    between atoms: C_8  and  N_16 
REMARK    3  A    between atoms: N_16  and  C_18 
REMARK    4  A    between atoms: C_18  and  C_17 
ROOT
ATOM      1  C   UNL d   1      -1.231   1.671   0.000  0.00  0.00     0.042 C 
ENDROOT
BRANCH   1   2
ATOM      2  C   UNL d   1      -2.060   1.679   0.000  0.00  0.00     0.103 A 
ATOM      3  N   UNL d   1      -2.546   2.349   0.000  0.00  0.00    -0.221 NA
ATOM      4  C   UNL d   1      -3.338   2.094   0.000  0.00  0.00     0.179 A 
ATOM      5  N   UNL d   1      -3.338   1.265   0.000  0.00  0.00    -0.282 N 
ATOM      6  S   UNL d   1      -4.121   2.349   0.000  0.00  0.00    -0.048 SA
ATOM      7  C   UNL d   1      -2.546   1.013   0.000  0.00  0.00     0.101 A 
ATOM      8  C   UNL d   1      -4.121   1.013   0.000  0.00  0.00     0.089 A 
ATOM      9  C   UNL d   1      -4.606   1.679   0.000  0.00  0.00     0.057 A 
ENDBRANCH   1   2
BRANCH   1  10
ATOM     10  C   UNL d   1      -0.817   2.387   0.000  0.00  0.00     0.104 C 
BRANCH  10  11
ATOM     11  N   UNL d   1       0.017   2.387   0.000  0.00  0.00    -0.206 NA
ATOM     12  C   UNL d   1       0.431   3.103   0.000  0.00  0.00     0.285 C 
ATOM     13  O   UNL d   1       0.017   3.819   0.000  0.00  0.00    -0.265 OA
BRANCH  12  14
ATOM     14  C   UNL d   1       1.256   3.103   0.000  0.00  0.00     0.087 A 
ATOM     15  S   UNL d   1       1.746   3.777   0.000  0.00  0.00    -0.082 SA
ATOM     16  C   UNL d   1       2.529   3.518   0.000  0.00  0.00     0.036 A 
ATOM     17  C   UNL d   1       2.517   2.684   0.000  0.00  0.00     0.008 A 
ATOM     18  C   UNL d   1       1.738   2.446   0.000  0.00  0.00     0.012 A 
ENDBRANCH  12  14
ENDBRANCH  10  11
ENDBRANCH   1  10
TORSDOF 4
