REMARK  5 active torsions:
REMARK  status: ('A' for Active; 'I' for Inactive)
REMARK    1  A    between atoms: S_2  and  C_1 
REMARK    2  A    between atoms: N_8  and  S_2 
REMARK    3  A    between atoms: C_11  and  C_16 
REMARK    4  A    between atoms: O_22  and  C_11 
REMARK    5  A    between atoms: C_23  and  O_22 
ROOT
ATOM      1  S   UNL d   1      -1.679   2.954   0.000  0.00  0.00     0.277 S 
ATOM      2  O   UNL d   1      -2.092   3.672   0.000  0.00  0.00    -0.199 OA
ATOM      3  O   UNL d   1      -1.258   2.248   0.000  0.00  0.00    -0.199 OA
ENDROOT
BRANCH   1   4
ATOM      4  C   UNL d   1      -2.389   2.537   0.000  0.00  0.00     0.178 A 
ATOM      5  C   UNL d   1      -3.102   2.954   0.000  0.00  0.00     0.282 A 
ATOM      6  N   UNL d   1      -3.808   2.537   0.000  0.00  0.00    -0.224 N 
ATOM      7  O   UNL d   1      -3.102   3.762   0.000  0.00  0.00    -0.266 OA
ATOM      8  C   UNL d   1      -4.517   2.958   0.000  0.00  0.00     0.107 C 
ATOM      9  C   UNL d   1      -3.808   1.716   0.000  0.00  0.00     0.342 A 
ATOM     10  N   UNL d   1      -3.102   1.308   0.000  0.00  0.00    -0.255 N 
ATOM     11  O   UNL d   1      -4.517   1.295   0.000  0.00  0.00    -0.245 OA
ATOM     12  C   UNL d   1      -2.389   1.716   0.000  0.00  0.00     0.102 A 
ATOM     13  C   UNL d   1      -3.102   0.491   0.000  0.00  0.00     0.104 C 
ENDBRANCH   1   4
BRANCH   1  14
ATOM     14  N   UNL d   1      -0.961   3.362   0.000  0.00  0.00    -0.229 N 
ATOM     15  C   UNL d   1      -0.231   2.933   0.000  0.00  0.00     0.092 A 
ATOM     16  C   UNL d   1       0.487   3.362   0.000  0.00  0.00     0.025 A 
ATOM     17  C   UNL d   1       0.487   4.200   0.000  0.00  0.00     0.067 A 
ATOM     18  C   UNL d   1      -0.231   4.621   0.000  0.00  0.00     0.025 A 
ATOM     19  C   UNL d   1      -0.961   4.200   0.000  0.00  0.00     0.092 A 
BRANCH  17  20
ATOM     20  C   UNL d   1       1.192   4.604   0.000  0.00  0.00     0.300 C 
ATOM     21  O   UNL d   1       1.192   5.400   0.000  0.00  0.00    -0.259 OA
BRANCH  20  22
ATOM     22  O   UNL d   1       1.885   4.187   0.000  0.00  0.00    -0.271 OA
BRANCH  22  23
ATOM     23  C   UNL d   1       1.885   3.399   0.000  0.00  0.00     0.126 C 
ATOM     24  C   UNL d   1       2.579   2.995   0.000  0.00  0.00     0.029 C 
ENDBRANCH  22  23
ENDBRANCH  20  22
ENDBRANCH  17  20
ENDBRANCH   1  14
TORSDOF 5
