REMARK  5 active torsions:
REMARK  status: ('A' for Active; 'I' for Inactive)
REMARK    1  A    between atoms: C_12  and  N_3 
REMARK    2  A    between atoms: C_11  and  C_5 
REMARK    3  A    between atoms: C_10  and  C_8 
REMARK    4  A    between atoms: O_27  and  C_14 
REMARK    5  A    between atoms: O_28  and  C_21 
ROOT
ATOM      1  C   UNL d   1      -2.342   1.828   0.000  0.00  0.00     0.143 A 
ATOM      2  C   UNL d   1      -2.350   2.655   0.000  0.00  0.00     0.172 A 
ATOM      3  N   UNL d   1      -3.139   2.913   0.000  0.00  0.00    -0.242 N 
ATOM      4  C   UNL d   1      -3.619   2.237   0.000  0.00  0.00     0.355 A 
ATOM      5  C   UNL d   1      -1.636   1.423   0.000  0.00  0.00     0.163 A 
ATOM      6  N   UNL d   1      -1.636   3.076   0.000  0.00  0.00    -0.207 NA
ATOM      7  N   UNL d   1      -3.126   1.574   0.000  0.00  0.00    -0.187 NA
ATOM      8  C   UNL d   1      -0.922   2.655   0.000  0.00  0.00     0.166 A 
ATOM      9  N   UNL d   1      -0.922   1.828   0.000  0.00  0.00    -0.220 NA
ATOM     10  O   UNL d   1      -4.446   2.237   0.000  0.00  0.00    -0.244 OA
ENDROOT
BRANCH   8  11
ATOM     11  C   UNL d   1      -0.209   3.064   0.000  0.00  0.00     0.060 A 
ATOM     12  C   UNL d   1       0.501   2.651   0.000  0.00  0.00     0.097 A 
ATOM     13  C   UNL d   1       1.219   3.064   0.000  0.00  0.00     0.026 A 
ATOM     14  C   UNL d   1       1.219   3.882   0.000  0.00  0.00     0.026 A 
ATOM     15  C   UNL d   1       0.505   4.287   0.000  0.00  0.00     0.094 A 
ATOM     16  C   UNL d   1      -0.209   3.890   0.000  0.00  0.00     0.029 A 
BRANCH  12  17
ATOM     17  O   UNL d   1       0.493   1.824   0.000  0.00  0.00    -0.328 OA
ATOM     18  C   UNL d   1       1.219   1.423   0.000  0.00  0.00     0.181 C 
ENDBRANCH  12  17
BRANCH  15  19
ATOM     19  O   UNL d   1       0.505   5.113   0.000  0.00  0.00    -0.328 OA
ATOM     20  C   UNL d   1      -0.209   5.527   0.000  0.00  0.00     0.181 C 
ENDBRANCH  15  19
ENDBRANCH   8  11
BRANCH   5  21
ATOM     21  C   UNL d   1      -1.628   0.597   0.000  0.00  0.00     0.316 C 
ATOM     22  O   UNL d   1      -0.914   0.184   0.000  0.00  0.00    -0.262 OA
ATOM     23  N   UNL d   1      -2.350   0.184   0.000  0.00  0.00    -0.101 N 
ENDBRANCH   5  21
BRANCH   3  24
ATOM     24  C   UNL d   1      -3.394   3.690   0.000  0.00  0.00     0.070 A 
ATOM     25  C   UNL d   1      -2.843   4.287   0.000  0.00  0.00     0.020 A 
ATOM     26  C   UNL d   1      -3.101   5.076   0.000  0.00  0.00     0.031 A 
ATOM     27  C   UNL d   1      -3.915   5.239   0.000  0.00  0.00     0.140 A 
ATOM     28  C   UNL d   1      -4.466   4.633   0.000  0.00  0.00     0.031 A 
ATOM     29  F   UNL d   1      -4.166   6.028   0.000  0.00  0.00    -0.204 F 
ATOM     30  C   UNL d   1      -4.203   3.853   0.000  0.00  0.00     0.020 A 
ENDBRANCH   3  24
TORSDOF 5
