REMARK  6 active torsions:
REMARK  status: ('A' for Active; 'I' for Inactive)
REMARK    1  A    between atoms: C_7  and  S_1 
REMARK    2  A    between atoms: N_18  and  S_1 
REMARK    3  A    between atoms: C_6  and  C_4 
REMARK    4  A    between atoms: C_9  and  C_24 
REMARK    5  A    between atoms: C_26  and  N_18 
REMARK    6  A    between atoms: C_24  and  C_26 
ROOT
ATOM      1  S   UNL d   1       1.182   2.694   0.000  0.00  0.00     0.285 S 
ATOM      2  O   UNL d   1       0.614   3.291   0.000  0.00  0.00    -0.198 OA
ATOM      3  O   UNL d   1       1.771   3.266   0.000  0.00  0.00    -0.198 OA
ENDROOT
BRANCH   1   4
ATOM      4  C   UNL d   1       1.754   2.105   0.000  0.00  0.00     0.105 A 
ATOM      5  C   UNL d   1       1.529   1.311   0.000  0.00  0.00     0.019 A 
ATOM      6  C   UNL d   1       2.097   0.723   0.000  0.00  0.00     0.100 A 
ATOM      7  C   UNL d   1       2.899   0.923   0.000  0.00  0.00     0.144 A 
ATOM      8  C   UNL d   1       3.124   1.712   0.000  0.00  0.00     0.030 A 
ATOM      9  F   UNL d   1       3.475   0.338   0.000  0.00  0.00    -0.204 F 
ATOM     10  C   UNL d   1       2.556   2.305   0.000  0.00  0.00     0.015 A 
BRANCH   6  11
ATOM     11  C   UNL d   1       1.871  -0.063   0.000  0.00  0.00     0.421 C 
ATOM     12  F   UNL d   1       1.671  -0.789   0.000  0.00  0.00    -0.166 F 
ATOM     13  F   UNL d   1       1.082  -0.405   0.000  0.00  0.00    -0.166 F 
ATOM     14  F   UNL d   1       2.368  -0.768   0.000  0.00  0.00    -0.166 F 
ENDBRANCH   6  11
ENDBRANCH   1   4
BRANCH   1  15
ATOM     15  N   UNL d   1       0.581   2.126   0.000  0.00  0.00    -0.157 NA
BRANCH  15  16
ATOM     16  C   UNL d   1      -0.196   2.351   0.000  0.00  0.00     0.114 C 
BRANCH  16  17
ATOM     17  C   UNL d   1      -0.798   1.779   0.000  0.00  0.00     0.042 C 
BRANCH  17  18
ATOM     18  C   UNL d   1      -1.600   2.026   0.000  0.00  0.00     0.102 A 
ATOM     19  N   UNL d   1      -1.863   2.794   0.000  0.00  0.00    -0.227 NA
ATOM     20  C   UNL d   1      -2.690   2.794   0.000  0.00  0.00     0.148 A 
ATOM     21  C   UNL d   1      -3.241   3.404   0.000  0.00  0.00     0.037 A 
ATOM     22  N   UNL d   1      -2.940   2.013   0.000  0.00  0.00    -0.288 N 
ATOM     23  C   UNL d   1      -4.043   3.228   0.000  0.00  0.00     0.004 A 
ATOM     24  C   UNL d   1      -4.594   3.842   0.000  0.00  0.00     0.000 C 
ATOM     25  C   UNL d   1      -4.306   2.452   0.000  0.00  0.00     0.019 A 
ATOM     26  C   UNL d   1      -3.746   1.838   0.000  0.00  0.00     0.082 A 
ATOM     27  C   UNL d   1      -2.268   1.524   0.000  0.00  0.00     0.101 A 
ENDBRANCH  17  18
ENDBRANCH  16  17
ENDBRANCH  15  16
ENDBRANCH   1  15
TORSDOF 6
