REMARK  4 active torsions:
REMARK  status: ('A' for Active; 'I' for Inactive)
REMARK    1  A    between atoms: S_7  and  C_3 
REMARK    2  A    between atoms: C_12  and  S_7 
REMARK    3  A    between atoms: C_9  and  C_12 
REMARK    4  A    between atoms: C_11  and  C_9 
ROOT
ATOM      1  S   UNL d   1      -1.733   1.321   0.000  0.00  0.00    -0.043 SA
ENDROOT
BRANCH   1   2
ATOM      2  C   UNL d   1      -2.446   1.733   0.000  0.00  0.00     0.220 A 
ATOM      3  N   UNL d   1      -2.446   2.558   0.000  0.00  0.00    -0.149 N 
ATOM      4  C   UNL d   1      -3.158   2.983   0.000  0.00  0.00     0.303 A 
ATOM      5  N   UNL d   1      -1.733   2.971   0.000  0.00  0.00    -0.037 N 
ATOM      6  C   UNL d   1      -3.871   2.558   0.000  0.00  0.00     0.161 A 
ATOM      7  O   UNL d   1      -3.158   3.800   0.000  0.00  0.00    -0.263 OA
ATOM      8  C   UNL d   1      -4.583   2.971   0.000  0.00  0.00     0.028 C 
ATOM      9  N   UNL d   1      -3.871   1.733   0.000  0.00  0.00    -0.141 NA
ATOM     10  N   UNL d   1      -3.158   1.325   0.000  0.00  0.00    -0.121 NA
ENDBRANCH   1   2
BRANCH   1  11
ATOM     11  C   UNL d   1      -1.733   0.500   0.000  0.00  0.00     0.080 C 
BRANCH  11  12
ATOM     12  C   UNL d   1      -2.446   0.096   0.000  0.00  0.00     0.202 C 
ATOM     13  O   UNL d   1      -3.163   0.496   0.000  0.00  0.00    -0.286 OA
BRANCH  12  14
ATOM     14  C   UNL d   1      -2.438  -0.738   0.000  0.00  0.00     0.040 A 
ATOM     15  C   UNL d   1      -3.158  -1.150   0.000  0.00  0.00     0.004 A 
ATOM     16  C   UNL d   1      -3.158  -1.975   0.000  0.00  0.00     0.011 A 
ATOM     17  C   UNL d   1      -2.433  -2.388   0.000  0.00  0.00     0.058 A 
ATOM     18  C   UNL d   1      -1.725  -1.975   0.000  0.00  0.00     0.011 A 
ATOM     19 CL   UNL d   1      -2.433  -3.204   0.000  0.00  0.00    -0.082 Cl
ATOM     20  C   UNL d   1      -1.721  -1.150   0.000  0.00  0.00     0.004 A 
ENDBRANCH  12  14
ENDBRANCH  11  12
ENDBRANCH   1  11
TORSDOF 4
