REMARK  5 active torsions:
REMARK  status: ('A' for Active; 'I' for Inactive)
REMARK    1  A    between atoms: S_9  and  C_3 
REMARK    2  A    between atoms: C_14  and  S_9 
REMARK    3  A    between atoms: C_10  and  C_11 
REMARK    4  A    between atoms: C_12  and  C_10 
REMARK    5  A    between atoms: C_11  and  C_14 
ROOT
ATOM      1  S   UNL d   1      -1.737   1.323   0.000  0.00  0.00    -0.046 SA
ENDROOT
BRANCH   1   2
ATOM      2  C   UNL d   1      -2.451   1.737   0.000  0.00  0.00     0.220 A 
ATOM      3  N   UNL d   1      -2.451   2.564   0.000  0.00  0.00    -0.149 N 
ATOM      4  C   UNL d   1      -3.165   2.990   0.000  0.00  0.00     0.303 A 
ATOM      5  N   UNL d   1      -1.737   2.977   0.000  0.00  0.00    -0.037 N 
ATOM      6  C   UNL d   1      -3.879   2.564   0.000  0.00  0.00     0.161 A 
ATOM      7  O   UNL d   1      -3.165   3.808   0.000  0.00  0.00    -0.263 OA
ATOM      8  C   UNL d   1      -4.593   2.977   0.000  0.00  0.00     0.028 C 
ATOM      9  N   UNL d   1      -3.879   1.737   0.000  0.00  0.00    -0.141 NA
ATOM     10  N   UNL d   1      -3.165   1.328   0.000  0.00  0.00    -0.121 NA
ENDBRANCH   1   2
BRANCH   1  11
ATOM     11  C   UNL d   1      -1.737   0.501   0.000  0.00  0.00     0.038 C 
BRANCH  11  12
ATOM     12  C   UNL d   1      -2.451   0.096   0.000  0.00  0.00     0.007 C 
BRANCH  12  13
ATOM     13  C   UNL d   1      -3.165   0.509   0.000  0.00  0.00     0.001 C 
BRANCH  13  14
ATOM     14  C   UNL d   1      -3.879   0.088   0.000  0.00  0.00     0.000 A 
ATOM     15  C   UNL d   1      -3.879  -0.731   0.000  0.00  0.00     0.000 A 
ATOM     16  C   UNL d   1      -4.605  -1.144   0.000  0.00  0.00     0.000 A 
ATOM     17  C   UNL d   1      -5.307  -0.727   0.000  0.00  0.00     0.000 A 
ATOM     18  C   UNL d   1      -5.307   0.096   0.000  0.00  0.00     0.000 A 
ATOM     19  C   UNL d   1      -4.593   0.509   0.000  0.00  0.00     0.000 A 
ENDBRANCH  13  14
ENDBRANCH  12  13
ENDBRANCH  11  12
ENDBRANCH   1  11
TORSDOF 5
