REMARK  6 active torsions:
REMARK  status: ('A' for Active; 'I' for Inactive)
REMARK       I    between atoms: C_2  and  N_1 
REMARK    1  A    between atoms: C_3  and  C_2 
REMARK    2  A    between atoms: C_12  and  C_4 
REMARK       I    between atoms: C_5  and  N_8 
REMARK    3  A    between atoms: C_6  and  C_5 
REMARK       I    between atoms: N_9  and  C_6 
REMARK    4  A    between atoms: N_8  and  C_12 
REMARK    5  A    between atoms: C_19  and  N_9 
REMARK    6  A    between atoms: C_20  and  C_19 
ROOT
ATOM      1  C   UNL d   1      -3.026   4.207   0.000  0.00  0.00     0.337 C 
ATOM      2  N   UNL d   1      -3.737   3.799   0.000  0.00  0.00    -0.199 NA
ATOM      3  O   UNL d   1      -3.026   5.029   0.000  0.00  0.00    -0.260 OA
ENDROOT
BRANCH   2   4
ATOM      4  C   UNL d   1      -3.737   2.976   0.000  0.00  0.00     0.146 C 
BRANCH   4   5
ATOM      5  C   UNL d   1      -4.460   2.565   0.000  0.00  0.00     0.190 A 
ATOM      6  N   UNL d   1      -4.535   1.746   0.000  0.00  0.00    -0.250 N 
ATOM      7  C   UNL d   1      -3.974   1.135   0.000  0.00  0.00     0.272 C 
ATOM      8  C   UNL d   1      -5.345   1.579   0.000  0.00  0.00     0.112 A 
ATOM      9  O   UNL d   1      -3.167   1.318   0.000  0.00  0.00    -0.266 OA
ATOM     10  C   UNL d   1      -5.757   2.290   0.000  0.00  0.00     0.144 A 
ATOM     11  O   UNL d   1      -5.196   2.901   0.000  0.00  0.00    -0.285 OA
BRANCH   7  12
ATOM     12  C   UNL d   1      -4.215   0.349   0.000  0.00  0.00     0.086 A 
ATOM     13  S   UNL d   1      -4.971   0.008   0.000  0.00  0.00    -0.082 SA
ATOM     14  C   UNL d   1      -4.872  -0.823   0.000  0.00  0.00     0.036 A 
ATOM     15  C   UNL d   1      -4.061  -0.977   0.000  0.00  0.00     0.008 A 
ATOM     16  C   UNL d   1      -3.654  -0.262   0.000  0.00  0.00     0.012 A 
ENDBRANCH   7  12
ENDBRANCH   4   5
ENDBRANCH   2   4
BRANCH   1  17
ATOM     17  C   UNL d   1      -2.303   3.799   0.000  0.00  0.00     0.337 C 
ATOM     18  N   UNL d   1      -1.592   4.207   0.000  0.00  0.00    -0.202 NA
ATOM     19  O   UNL d   1      -2.303   2.976   0.000  0.00  0.00    -0.260 OA
BRANCH  18  20
ATOM     20  C   UNL d   1      -0.873   3.824   0.000  0.00  0.00     0.102 C 
BRANCH  20  21
ATOM     21  C   UNL d   1      -0.158   4.244   0.000  0.00  0.00     0.019 A 
ATOM     22  C   UNL d   1      -0.162   5.054   0.000  0.00  0.00     0.002 A 
ATOM     23  C   UNL d   1       0.540   5.478   0.000  0.00  0.00     0.000 A 
ATOM     24  C   UNL d   1       1.272   5.075   0.000  0.00  0.00     0.000 A 
ATOM     25  C   UNL d   1       1.272   4.256   0.000  0.00  0.00     0.000 A 
ATOM     26  C   UNL d   1       1.987   5.516   0.000  0.00  0.00     0.000 C 
ATOM     27  C   UNL d   1       0.553   3.849   0.000  0.00  0.00     0.002 A 
ENDBRANCH  20  21
ENDBRANCH  18  20
ENDBRANCH   1  17
TORSDOF 6
