REMARK  4 active torsions:
REMARK  status: ('A' for Active; 'I' for Inactive)
REMARK    1  A    between atoms: C_11  and  N_3 
REMARK    2  A    between atoms: C_10  and  C_5 
REMARK    3  A    between atoms: C_21  and  C_11 
REMARK    4  A    between atoms: N_12  and  C_21 
ROOT
ATOM      1  C   UNL d   1       2.511  -1.750   0.000  0.00  0.00     0.085 A 
ATOM      2  C   UNL d   1       2.511  -2.586   0.000  0.00  0.00     0.161 A 
ATOM      3  N   UNL d   1       3.783  -2.162   0.000  0.00  0.00    -0.268 N 
ATOM      4  C   UNL d   1       3.296  -2.835   0.000  0.00  0.00     0.288 A 
ATOM      5  C   UNL d   1       3.296  -1.496   0.000  0.00  0.00     0.095 A 
ATOM      6  C   UNL d   1       1.788  -1.339   0.000  0.00  0.00     0.201 A 
ATOM      7  O   UNL d   1       1.796  -2.997   0.000  0.00  0.00    -0.302 OA
ATOM      8  C   UNL d   1       1.077  -1.763   0.000  0.00  0.00     0.063 A 
ATOM      9  C   UNL d   1       1.077  -2.594   0.000  0.00  0.00     0.103 A 
ATOM     10  O   UNL d   1       3.558  -3.621   0.000  0.00  0.00    -0.264 OA
ATOM     11  O   UNL d   1       1.783  -0.515   0.000  0.00  0.00    -0.286 OA
ATOM     12  C   UNL d   1       0.362  -1.351   0.000  0.00  0.00     0.017 A 
ATOM     13  C   UNL d   1       0.362  -2.997   0.000  0.00  0.00     0.026 A 
ATOM     14  C   UNL d   1      -0.349  -1.763   0.000  0.00  0.00     0.058 A 
ATOM     15  C   UNL d   1      -0.349  -2.586   0.000  0.00  0.00     0.013 A 
ATOM     16 CL   UNL d   1      -1.060  -1.351   0.000  0.00  0.00    -0.082 Cl
ENDROOT
BRANCH   3  17
ATOM     17  C   UNL d   1       4.606  -2.162   0.000  0.00  0.00     0.102 C 
BRANCH  17  18
ATOM     18  C   UNL d   1       5.026  -2.873   0.000  0.00  0.00     0.100 C 
BRANCH  18  19
ATOM     19  N   UNL d   1       5.849  -2.873   0.000  0.00  0.00    -0.298 N 
ATOM     20  C   UNL d   1       6.252  -3.583   0.000  0.00  0.00     0.107 A 
ATOM     21  C   UNL d   1       7.075  -3.583   0.000  0.00  0.00     0.142 A 
ATOM     22  O   UNL d   1       7.487  -2.873   0.000  0.00  0.00    -0.300 OA
ATOM     23  C   UNL d   1       7.075  -2.162   0.000  0.00  0.00     0.142 A 
ATOM     24  C   UNL d   1       6.252  -2.162   0.000  0.00  0.00     0.107 A 
ENDBRANCH  18  19
ENDBRANCH  17  18
ENDBRANCH   3  17
BRANCH   5  25
ATOM     25  C   UNL d   1       3.509  -0.698   0.000  0.00  0.00     0.116 A 
ATOM     26  O   UNL d   1       4.282  -0.391   0.000  0.00  0.00    -0.304 OA
ATOM     27  C   UNL d   1       4.232   0.432   0.000  0.00  0.00     0.123 A 
ATOM     28  C   UNL d   1       3.434   0.644   0.000  0.00  0.00     0.029 A 
ATOM     29  C   UNL d   1       2.985  -0.054   0.000  0.00  0.00     0.028 A 
ENDBRANCH   5  25
TORSDOF 4
