REMARK  3 active torsions:
REMARK  status: ('A' for Active; 'I' for Inactive)
REMARK    1  A    between atoms: S_10  and  C_7 
REMARK    2  A    between atoms: C_13  and  S_10 
REMARK    3  A    between atoms: C_12  and  C_13 
ROOT
ATOM      1  N   UNL d   1       5.755  -6.899   0.000  0.00  0.00    -0.167 N 
ATOM      2  C   UNL d   1       5.759  -7.719   0.000  0.00  0.00     0.220 A 
ATOM      3  C   UNL d   1       5.038  -6.476   0.000  0.00  0.00     0.301 A 
ATOM      4  S   UNL d   1       6.543  -7.968   0.000  0.00  0.00    -0.019 SA
ATOM      5  N   UNL d   1       6.530  -6.642   0.000  0.00  0.00    -0.147 NA
ATOM      6  N   UNL d   1       5.038  -8.129   0.000  0.00  0.00    -0.121 NA
ATOM      7  C   UNL d   1       7.015  -7.297   0.000  0.00  0.00     0.163 A 
ATOM      8  N   UNL d   1       4.330  -7.723   0.000  0.00  0.00    -0.141 NA
ATOM      9  C   UNL d   1       4.330  -6.899   0.000  0.00  0.00     0.161 A 
ATOM     10  O   UNL d   1       5.038  -5.656   0.000  0.00  0.00    -0.263 OA
ATOM     11  C   UNL d   1       3.617  -6.480   0.000  0.00  0.00     0.028 C 
ENDROOT
BRANCH   7  12
ATOM     12  S   UNL d   1       7.843  -7.288   0.000  0.00  0.00    -0.059 SA
BRANCH  12  13
ATOM     13  C   UNL d   1       8.258  -7.997   0.000  0.00  0.00     0.038 C 
BRANCH  13  14
ATOM     14  C   UNL d   1       9.078  -7.935   0.000  0.00  0.00     0.017 A 
ATOM     15  C   UNL d   1       9.546  -8.618   0.000  0.00  0.00     0.058 A 
ATOM     16 CL   UNL d   1       9.190  -9.360   0.000  0.00  0.00    -0.082 Cl
ATOM     17  C   UNL d   1      10.359  -8.565   0.000  0.00  0.00     0.011 A 
ATOM     18  C   UNL d   1      10.727  -7.819   0.000  0.00  0.00     0.001 A 
ATOM     19  C   UNL d   1      10.272  -7.139   0.000  0.00  0.00     0.000 A 
ATOM     20  C   UNL d   1       9.447  -7.189   0.000  0.00  0.00     0.001 A 
ENDBRANCH  13  14
ENDBRANCH  12  13
ENDBRANCH   7  12
TORSDOF 3
