REMARK  3 active torsions:
REMARK  status: ('A' for Active; 'I' for Inactive)
REMARK    1  A    between atoms: S_11  and  C_7 
REMARK    2  A    between atoms: C_12  and  S_11 
REMARK    3  A    between atoms: C_14  and  C_12 
ROOT
ATOM      1  N   UNL d   1      -2.446   2.558   0.000  0.00  0.00    -0.167 N 
ATOM      2  C   UNL d   1      -2.446   1.738   0.000  0.00  0.00     0.220 A 
ATOM      3  C   UNL d   1      -3.158   2.983   0.000  0.00  0.00     0.301 A 
ATOM      4  S   UNL d   1      -1.658   1.488   0.000  0.00  0.00    -0.019 SA
ATOM      5  N   UNL d   1      -1.671   2.821   0.000  0.00  0.00    -0.147 NA
ATOM      6  N   UNL d   1      -3.158   1.325   0.000  0.00  0.00    -0.121 NA
ATOM      7  C   UNL d   1      -1.183   2.158   0.000  0.00  0.00     0.163 A 
ATOM      8  N   UNL d   1      -3.871   1.733   0.000  0.00  0.00    -0.141 NA
ATOM      9  C   UNL d   1      -3.871   2.558   0.000  0.00  0.00     0.161 A 
ATOM     10  O   UNL d   1      -3.158   3.800   0.000  0.00  0.00    -0.263 OA
ATOM     11  C   UNL d   1      -4.583   2.971   0.000  0.00  0.00     0.028 C 
ENDROOT
BRANCH   7  12
ATOM     12  S   UNL d   1      -0.358   2.163   0.000  0.00  0.00    -0.059 SA
BRANCH  12  13
ATOM     13  C   UNL d   1       0.062   1.458   0.000  0.00  0.00     0.037 C 
BRANCH  13  14
ATOM     14  C   UNL d   1      -0.346   0.738   0.000  0.00  0.00     0.006 A 
ATOM     15  C   UNL d   1      -1.171   0.733   0.000  0.00  0.00     0.001 A 
ATOM     16  C   UNL d   1      -1.583   0.025   0.000  0.00  0.00     0.000 A 
ATOM     17  C   UNL d   1      -2.400   0.021   0.000  0.00  0.00     0.000 C 
ATOM     18  C   UNL d   1      -1.171  -0.692   0.000  0.00  0.00     0.000 A 
ATOM     19  C   UNL d   1      -0.346  -0.692   0.000  0.00  0.00     0.000 A 
ATOM     20  C   UNL d   1       0.067   0.021   0.000  0.00  0.00     0.001 A 
ENDBRANCH  13  14
ENDBRANCH  12  13
ENDBRANCH   7  12
TORSDOF 3
