REMARK  3 active torsions:
REMARK  status: ('A' for Active; 'I' for Inactive)
REMARK    1  A    between atoms: C_4  and  C_8 
REMARK    2  A    between atoms: N_13  and  C_7 
REMARK       I    between atoms: C_8  and  N_12 
REMARK    3  A    between atoms: N_12  and  N_13 
ROOT
ATOM      1  C   UNL d   1      -5.171   3.727   0.000  0.00  0.00     0.297 C 
ATOM      2  N   UNL d   1      -4.443   4.125   0.000  0.00  0.00    -0.104 NA
ATOM      3  O   UNL d   1      -5.184   2.898   0.000  0.00  0.00    -0.264 OA
ENDROOT
BRANCH   2   4
ATOM      4  N   UNL d   1      -3.739   3.702   0.000  0.00  0.00    -0.125 NA
BRANCH   4   5
ATOM      5  C   UNL d   1      -3.752   2.877   0.000  0.00  0.00     0.190 A 
ATOM      6  C   UNL d   1      -3.049   2.458   0.000  0.00  0.00     0.094 A 
ATOM      7  C   UNL d   1      -3.061   1.633   0.000  0.00  0.00     0.170 A 
ATOM      8  C   UNL d   1      -2.257   2.709   0.000  0.00  0.00     0.127 A 
ATOM      9  N   UNL d   1      -2.274   1.369   0.000  0.00  0.00    -0.209 N 
ATOM     10  N   UNL d   1      -3.777   1.231   0.000  0.00  0.00    -0.205 NA
ATOM     11  C   UNL d   1      -2.031   0.574   0.000  0.00  0.00     0.123 C 
ATOM     12  N   UNL d   1      -1.780   2.031   0.000  0.00  0.00    -0.162 NA
ATOM     13  C   UNL d   1      -4.481   1.654   0.000  0.00  0.00     0.202 A 
ATOM     14  N   UNL d   1      -4.468   2.483   0.000  0.00  0.00    -0.203 NA
ENDBRANCH   4   5
ENDBRANCH   2   4
BRANCH   1  15
ATOM     15  C   UNL d   1      -5.879   4.150   0.000  0.00  0.00     0.070 A 
ATOM     16  C   UNL d   1      -6.595   3.752   0.000  0.00  0.00     0.063 A 
ATOM     17  C   UNL d   1      -7.303   4.171   0.000  0.00  0.00     0.023 A 
ATOM     18 CL   UNL d   1      -6.599   2.923   0.000  0.00  0.00    -0.082 Cl
ATOM     19  C   UNL d   1      -7.290   5.004   0.000  0.00  0.00     0.059 A 
ATOM     20  C   UNL d   1      -6.562   5.406   0.000  0.00  0.00     0.012 A 
ATOM     21 CL   UNL d   1      -8.002   5.431   0.000  0.00  0.00    -0.082 Cl
ATOM     22  C   UNL d   1      -5.862   4.979   0.000  0.00  0.00     0.007 A 
ENDBRANCH   1  15
TORSDOF 3
