REMARK  2 active torsions:
REMARK  status: ('A' for Active; 'I' for Inactive)
REMARK    1  A    between atoms: C_6  and  C_1 
REMARK    2  A    between atoms: N_8  and  C_6 
ROOT
ATOM      1  C   UNL d   1       2.292  -1.163   0.000  0.00  0.00     0.090 C 
ENDROOT
BRANCH   1   2
ATOM      2  C   UNL d   1       3.114  -1.075   0.000  0.00  0.00     0.133 A 
ATOM      3  C   UNL d   1       3.592  -1.748   0.000  0.00  0.00     0.289 A 
ATOM      4  N   UNL d   1       4.414  -1.669   0.000  0.00  0.00    -0.151 NA
ATOM      5  O   UNL d   1       3.256  -2.504   0.000  0.00  0.00    -0.265 OA
ATOM      6  C   UNL d   1       4.751  -0.914   0.000  0.00  0.00     0.374 A 
ATOM      7  N   UNL d   1       4.273  -0.241   0.000  0.00  0.00    -0.151 NA
ATOM      8  O   UNL d   1       5.573  -0.835   0.000  0.00  0.00    -0.242 OA
ATOM      9  C   UNL d   1       3.442  -0.328   0.000  0.00  0.00     0.289 A 
ATOM     10  O   UNL d   1       2.965   0.336   0.000  0.00  0.00    -0.265 OA
ENDBRANCH   1   2
BRANCH   1  11
ATOM     11  N   UNL d   1       1.806  -0.498   0.000  0.00  0.00    -0.304 N 
ATOM     12  C   UNL d   1       0.976  -0.498   0.000  0.00  0.00     0.064 A 
ATOM     13  C   UNL d   1       0.727   0.286   0.000  0.00  0.00     0.018 A 
ATOM     14  C   UNL d   1       0.428  -1.109   0.000  0.00  0.00     0.018 A 
ATOM     15  C   UNL d   1      -0.083   0.461   0.000  0.00  0.00     0.002 A 
ATOM     16  C   UNL d   1       1.387   0.772   0.000  0.00  0.00     0.021 A 
ATOM     17  C   UNL d   1      -0.631  -0.154   0.000  0.00  0.00     0.000 A 
ATOM     18  C   UNL d   1      -0.374  -0.939   0.000  0.00  0.00     0.002 A 
ATOM     19  C   UNL d   1       2.060   0.295   0.000  0.00  0.00     0.080 A 
ENDBRANCH   1  11
TORSDOF 2
