REMARK  7 active torsions:
REMARK  status: ('A' for Active; 'I' for Inactive)
REMARK    1  A    between atoms: N_2  and  S_1 
REMARK    2  A    between atoms: C_6  and  S_1 
REMARK    3  A    between atoms: C_11  and  C_3 
REMARK    4  A    between atoms: C_4  and  C_5 
REMARK       I    between atoms: N_7  and  C_4 
REMARK       I    between atoms: C_5  and  N_10 
REMARK    5  A    between atoms: C_19  and  N_7 
REMARK    6  A    between atoms: N_10  and  C_11 
REMARK    7  A    between atoms: O_23  and  C_18 
ROOT
ATOM      1  N   UNL d   1      -1.612   7.507   0.000  0.00  0.00    -0.209 N 
ATOM      2  C   UNL d   1      -1.604   6.680   0.000  0.00  0.00     0.197 A 
ATOM      3  O   UNL d   1      -0.898   6.266   0.000  0.00  0.00    -0.287 OA
ATOM      4  C   UNL d   1      -0.892   7.921   0.000  0.00  0.00     0.096 A 
ATOM      5  C   UNL d   1      -0.184   7.507   0.000  0.00  0.00     0.047 A 
ATOM      6  C   UNL d   1      -0.184   6.685   0.000  0.00  0.00     0.126 A 
ENDROOT
BRANCH   2   7
ATOM      7  C   UNL d   1      -2.326   6.263   0.000  0.00  0.00     0.146 C 
BRANCH   7   8
ATOM      8  N   UNL d   1      -2.326   5.439   0.000  0.00  0.00    -0.199 NA
ATOM      9  C   UNL d   1      -3.034   5.030   0.000  0.00  0.00     0.337 C 
ATOM     10  O   UNL d   1      -3.754   5.439   0.000  0.00  0.00    -0.260 OA
BRANCH   9  11
ATOM     11  C   UNL d   1      -3.034   4.205   0.000  0.00  0.00     0.337 C 
ATOM     12  N   UNL d   1      -3.745   3.792   0.000  0.00  0.00    -0.204 NA
ATOM     13  O   UNL d   1      -2.318   3.792   0.000  0.00  0.00    -0.260 OA
BRANCH  12  14
ATOM     14  C   UNL d   1      -3.745   2.964   0.000  0.00  0.00     0.085 A 
ATOM     15  C   UNL d   1      -4.497   2.645   0.000  0.00  0.00     0.019 A 
ATOM     16  C   UNL d   1      -4.408   1.823   0.000  0.00  0.00     0.002 A 
ATOM     17  C   UNL d   1      -3.608   1.644   0.000  0.00  0.00     0.002 A 
ATOM     18  C   UNL d   1      -3.188   2.366   0.000  0.00  0.00     0.019 A 
ENDBRANCH  12  14
ENDBRANCH   9  11
ENDBRANCH   7   8
ENDBRANCH   2   7
BRANCH   1  19
ATOM     19  S   UNL d   1      -2.329   7.913   0.000  0.00  0.00     0.273 S 
ATOM     20  O   UNL d   1      -1.915   8.632   0.000  0.00  0.00    -0.200 OA
ATOM     21  O   UNL d   1      -2.740   7.196   0.000  0.00  0.00    -0.200 OA
BRANCH  19  22
ATOM     22  C   UNL d   1      -3.042   8.327   0.000  0.00  0.00     0.104 A 
ATOM     23  C   UNL d   1      -3.754   7.913   0.000  0.00  0.00     0.015 A 
ATOM     24  C   UNL d   1      -4.470   8.327   0.000  0.00  0.00     0.025 A 
ATOM     25  C   UNL d   1      -4.473   9.146   0.000  0.00  0.00     0.094 A 
ATOM     26  C   UNL d   1      -3.762   9.573   0.000  0.00  0.00     0.025 A 
ATOM     27  C   UNL d   1      -3.042   9.160   0.000  0.00  0.00     0.015 A 
BRANCH  25  28
ATOM     28  O   UNL d   1      -5.192   9.560   0.000  0.00  0.00    -0.328 OA
ATOM     29  C   UNL d   1      -5.195  10.385   0.000  0.00  0.00     0.181 C 
ENDBRANCH  25  28
ENDBRANCH  19  22
ENDBRANCH   1  19
TORSDOF 7
