REMARK  8 active torsions:
REMARK  status: ('A' for Active; 'I' for Inactive)
REMARK    1  A    between atoms: N_2  and  S_1 
REMARK    2  A    between atoms: C_5  and  S_1 
REMARK    3  A    between atoms: C_11  and  C_3 
REMARK       I    between atoms: C_4  and  N_9 
REMARK    4  A    between atoms: C_6  and  C_4 
REMARK       I    between atoms: N_16  and  C_6 
REMARK    5  A    between atoms: N_9  and  C_11 
REMARK    6  A    between atoms: N_10  and  C_25 
REMARK    7  A    between atoms: C_24  and  N_16 
REMARK    8  A    between atoms: C_25  and  C_24 
ROOT
ATOM      1  N   UNL d   1      -1.621   7.506   0.000  0.00  0.00    -0.209 N 
ATOM      2  C   UNL d   1      -1.606   6.683   0.000  0.00  0.00     0.197 A 
ATOM      3  O   UNL d   1      -0.903   6.272   0.000  0.00  0.00    -0.287 OA
ATOM      4  C   UNL d   1      -0.903   7.933   0.000  0.00  0.00     0.096 A 
ATOM      5  C   UNL d   1      -0.179   7.514   0.000  0.00  0.00     0.047 A 
ATOM      6  C   UNL d   1      -0.184   6.691   0.000  0.00  0.00     0.126 A 
ENDROOT
BRANCH   2   7
ATOM      7  C   UNL d   1      -2.332   6.264   0.000  0.00  0.00     0.146 C 
BRANCH   7   8
ATOM      8  N   UNL d   1      -2.332   5.441   0.000  0.00  0.00    -0.199 NA
ATOM      9  C   UNL d   1      -3.035   5.022   0.000  0.00  0.00     0.337 C 
ATOM     10  O   UNL d   1      -3.748   5.439   0.000  0.00  0.00    -0.260 OA
BRANCH   9  11
ATOM     11  C   UNL d   1      -3.035   4.204   0.000  0.00  0.00     0.337 C 
ATOM     12  O   UNL d   1      -2.319   3.793   0.000  0.00  0.00    -0.260 OA
ATOM     13  N   UNL d   1      -3.743   3.793   0.000  0.00  0.00    -0.201 NA
BRANCH  13  14
ATOM     14  C   UNL d   1      -3.743   2.980   0.000  0.00  0.00     0.121 C 
BRANCH  14  15
ATOM     15  C   UNL d   1      -4.454   2.561   0.000  0.00  0.00     0.101 C 
BRANCH  15  16
ATOM     16  N   UNL d   1      -4.439   1.733   0.000  0.00  0.00    -0.298 N 
ATOM     17  C   UNL d   1      -5.142   1.314   0.000  0.00  0.00     0.107 A 
ATOM     18  C   UNL d   1      -5.140   0.479   0.000  0.00  0.00     0.142 A 
ATOM     19  O   UNL d   1      -4.421   0.080   0.000  0.00  0.00    -0.300 OA
ATOM     20  C   UNL d   1      -3.706   0.529   0.000  0.00  0.00     0.142 A 
ATOM     21  C   UNL d   1      -3.718   1.329   0.000  0.00  0.00     0.107 A 
ENDBRANCH  15  16
ENDBRANCH  14  15
ENDBRANCH  13  14
ENDBRANCH   9  11
ENDBRANCH   7   8
ENDBRANCH   2   7
BRANCH   1  22
ATOM     22  S   UNL d   1      -2.334   7.915   0.000  0.00  0.00     0.273 S 
ATOM     23  O   UNL d   1      -1.923   8.633   0.000  0.00  0.00    -0.200 OA
ATOM     24  O   UNL d   1      -2.743   7.199   0.000  0.00  0.00    -0.200 OA
BRANCH  22  25
ATOM     25  C   UNL d   1      -3.057   8.326   0.000  0.00  0.00     0.104 A 
ATOM     26  C   UNL d   1      -3.758   7.915   0.000  0.00  0.00     0.015 A 
ATOM     27  C   UNL d   1      -4.484   8.322   0.000  0.00  0.00     0.030 A 
ATOM     28  C   UNL d   1      -4.484   9.145   0.000  0.00  0.00     0.140 A 
ATOM     29  C   UNL d   1      -3.765   9.576   0.000  0.00  0.00     0.030 A 
ATOM     30  F   UNL d   1      -5.202   9.553   0.000  0.00  0.00    -0.204 F 
ATOM     31  C   UNL d   1      -3.057   9.159   0.000  0.00  0.00     0.015 A 
ENDBRANCH  22  25
ENDBRANCH   1  22
TORSDOF 8
