REMARK  2 active torsions:
REMARK  status: ('A' for Active; 'I' for Inactive)
REMARK    1  A    between atoms: N_7  and  C_3 
REMARK    2  A    between atoms: C_11  and  N_8 
ROOT
ATOM      1  N   UNL d   1      -3.720   3.683   0.000  0.00  0.00    -0.286 N 
ATOM      2  N   UNL d   1      -3.687   5.329   0.000  0.00  0.00    -0.301 N 
ATOM      3  C   UNL d   1      -2.995   4.079   0.000  0.00  0.00     0.101 A 
ATOM      4  C   UNL d   1      -4.420   4.104   0.000  0.00  0.00     0.101 A 
ATOM      5  C   UNL d   1      -2.983   4.904   0.000  0.00  0.00     0.100 A 
ATOM      6  C   UNL d   1      -4.408   4.929   0.000  0.00  0.00     0.100 A 
ENDROOT
BRANCH   1   7
ATOM      7  C   UNL d   1      -3.733   2.862   0.000  0.00  0.00     0.154 A 
ATOM      8  C   UNL d   1      -3.033   2.446   0.000  0.00  0.00     0.091 A 
ATOM      9  C   UNL d   1      -3.046   1.625   0.000  0.00  0.00     0.170 A 
ATOM     10  C   UNL d   1      -2.245   2.696   0.000  0.00  0.00     0.127 A 
ATOM     11  N   UNL d   1      -2.262   1.362   0.000  0.00  0.00    -0.209 N 
ATOM     12  N   UNL d   1      -3.758   1.225   0.000  0.00  0.00    -0.205 NA
ATOM     13  C   UNL d   1      -2.021   0.571   0.000  0.00  0.00     0.123 C 
ATOM     14  N   UNL d   1      -1.771   2.021   0.000  0.00  0.00    -0.162 NA
ATOM     15  C   UNL d   1      -4.458   1.646   0.000  0.00  0.00     0.202 A 
ATOM     16  N   UNL d   1      -4.445   2.470   0.000  0.00  0.00    -0.206 NA
ENDBRANCH   1   7
BRANCH   2  17
ATOM     17  C   UNL d   1      -3.670   6.154   0.000  0.00  0.00     0.065 A 
ATOM     18  C   UNL d   1      -4.375   6.574   0.000  0.00  0.00     0.030 A 
ATOM     19  C   UNL d   1      -4.370   7.399   0.000  0.00  0.00     0.070 A 
ATOM     20 CL   UNL d   1      -5.083   7.816   0.000  0.00  0.00    -0.081 Cl
ATOM     21  C   UNL d   1      -3.645   7.803   0.000  0.00  0.00     0.068 A 
ATOM     22  C   UNL d   1      -2.933   7.378   0.000  0.00  0.00     0.014 A 
ATOM     23 CL   UNL d   1      -3.633   8.628   0.000  0.00  0.00    -0.082 Cl
ATOM     24  C   UNL d   1      -2.946   6.553   0.000  0.00  0.00     0.018 A 
ENDBRANCH   2  17
TORSDOF 2
