REMARK  2 active torsions:
REMARK  status: ('A' for Active; 'I' for Inactive)
REMARK    1  A    between atoms: C_10  and  C_1 
REMARK    2  A    between atoms: N_6  and  C_10 
ROOT
ATOM      1  C   UNL d   1       3.105  -1.892   0.000  0.00  0.00     0.025 A 
ATOM      2  C   UNL d   1       2.392  -1.475   0.000  0.00  0.00     0.025 A 
ATOM      3  C   UNL d   1       1.679  -1.867   0.000  0.00  0.00     0.013 A 
ATOM      4  C   UNL d   1       2.413  -0.654   0.000  0.00  0.00     0.103 A 
ATOM      5  O   UNL d   1       3.130  -0.242   0.000  0.00  0.00    -0.273 OA
ATOM      6  C   UNL d   1       0.979  -1.450   0.000  0.00  0.00     0.058 A 
ATOM      7  C   UNL d   1       3.838  -0.667   0.000  0.00  0.00     0.300 A 
ATOM      8  C   UNL d   1       3.830  -1.488   0.000  0.00  0.00     0.070 A 
ATOM      9  C   UNL d   1       0.992  -0.625   0.000  0.00  0.00     0.013 A 
ATOM     10  C   UNL d   1       1.713  -0.229   0.000  0.00  0.00     0.026 A 
ATOM     11  O   UNL d   1       4.555  -0.267   0.000  0.00  0.00    -0.259 OA
ATOM     12 CL   UNL d   1       0.254  -1.850   0.000  0.00  0.00    -0.082 Cl
ATOM     13  C   UNL d   1       1.667  -2.692   0.000  0.00  0.00     0.001 C 
ATOM     14  C   UNL d   1       0.279  -0.200   0.000  0.00  0.00     0.001 C 
ENDROOT
BRANCH   1  15
ATOM     15  C   UNL d   1       3.092  -2.717   0.000  0.00  0.00     0.080 C 
BRANCH  15  16
ATOM     16  N   UNL d   1       3.805  -3.142   0.000  0.00  0.00    -0.304 N 
ATOM     17  C   UNL d   1       3.792  -3.967   0.000  0.00  0.00     0.064 A 
ATOM     18  C   UNL d   1       3.076  -4.376   0.000  0.00  0.00     0.019 C 
ATOM     19  C   UNL d   1       4.501  -4.380   0.000  0.00  0.00     0.018 A 
ATOM     20  C   UNL d   1       5.218  -3.980   0.000  0.00  0.00     0.003 A 
ATOM     21  C   UNL d   1       5.230  -3.155   0.000  0.00  0.00     0.019 A 
ATOM     22  C   UNL d   1       4.526  -2.730   0.000  0.00  0.00     0.080 A 
ENDBRANCH  15  16
ENDBRANCH   1  15
TORSDOF 2
