REMARK  5 active torsions:
REMARK  status: ('A' for Active; 'I' for Inactive)
REMARK    1  A    between atoms: C_2  and  C_1 
REMARK    2  A    between atoms: C_7  and  C_2 
REMARK    3  A    between atoms: C_9  and  N_3 
REMARK    4  A    between atoms: N_5  and  C_7 
REMARK    5  A    between atoms: O_24  and  C_20 
ROOT
ATOM      1  N   UNL d   1      10.267  -4.567   0.000  0.00  0.00    -0.301 N 
ATOM      2  N   UNL d   1       8.829  -3.742   0.000  0.00  0.00    -0.297 N 
ATOM      3  C   UNL d   1       9.554  -4.979   0.000  0.00  0.00     0.100 A 
ATOM      4  C   UNL d   1      10.262  -3.742   0.000  0.00  0.00     0.100 A 
ATOM      5  C   UNL d   1       8.829  -4.567   0.000  0.00  0.00     0.100 A 
ATOM      6  C   UNL d   1       9.542  -3.337   0.000  0.00  0.00     0.100 A 
ENDROOT
BRANCH   2   7
ATOM      7  C   UNL d   1       8.113  -3.337   0.000  0.00  0.00     0.123 C 
BRANCH   7   8
ATOM      8  C   UNL d   1       7.400  -3.750   0.000  0.00  0.00     0.216 C 
ATOM      9  O   UNL d   1       7.400  -4.575   0.000  0.00  0.00    -0.285 OA
BRANCH   8  10
ATOM     10  C   UNL d   1       6.679  -3.337   0.000  0.00  0.00     0.080 A 
ATOM     11  C   UNL d   1       5.975  -3.742   0.000  0.00  0.00     0.202 A 
ATOM     12  C   UNL d   1       5.263  -3.337   0.000  0.00  0.00     0.084 A 
ATOM     13  O   UNL d   1       5.979  -4.567   0.000  0.00  0.00    -0.286 OA
ATOM     14  C   UNL d   1       5.254  -2.504   0.000  0.00  0.00     0.199 A 
ATOM     15  C   UNL d   1       5.975  -2.092   0.000  0.00  0.00     0.042 A 
ATOM     16  O   UNL d   1       4.542  -2.100   0.000  0.00  0.00    -0.286 OA
ATOM     17  C   UNL d   1       6.688  -2.504   0.000  0.00  0.00     0.010 A 
ENDBRANCH   8  10
ENDBRANCH   7   8
ENDBRANCH   2   7
BRANCH   1  18
ATOM     18  C   UNL d   1      10.979  -4.975   0.000  0.00  0.00     0.064 A 
ATOM     19  C   UNL d   1      10.979  -5.792   0.000  0.00  0.00     0.020 A 
ATOM     20  C   UNL d   1      11.700  -6.204   0.000  0.00  0.00     0.026 A 
ATOM     21  C   UNL d   1      12.412  -5.787   0.000  0.00  0.00     0.094 A 
ATOM     22  C   UNL d   1      12.404  -4.954   0.000  0.00  0.00     0.026 A 
ATOM     23  C   UNL d   1      11.688  -4.554   0.000  0.00  0.00     0.020 A 
BRANCH  21  24
ATOM     24  O   UNL d   1      13.129  -6.200   0.000  0.00  0.00    -0.328 OA
ATOM     25  C   UNL d   1      13.838  -5.779   0.000  0.00  0.00     0.181 C 
ENDBRANCH  21  24
ENDBRANCH   1  18
TORSDOF 5
