REMARK  4 active torsions:
REMARK  status: ('A' for Active; 'I' for Inactive)
REMARK    1  A    between atoms: C_9  and  C_2 
REMARK    2  A    between atoms: N_11  and  C_9 
REMARK    3  A    between atoms: C_14  and  N_11 
REMARK    4  A    between atoms: C_17  and  C_14 
ROOT
ATOM      1  C   UNL d   1       4.517  -1.387   0.000  0.00  0.00     0.106 A 
ATOM      2  C   UNL d   1       5.229  -2.625   0.000  0.00  0.00     0.025 A 
ATOM      3  C   UNL d   1       4.517  -2.212   0.000  0.00  0.00     0.025 A 
ATOM      4  O   UNL d   1       5.229  -0.975   0.000  0.00  0.00    -0.273 OA
ATOM      5  C   UNL d   1       3.804  -0.975   0.000  0.00  0.00     0.062 A 
ATOM      6  C   UNL d   1       5.950  -1.387   0.000  0.00  0.00     0.300 A 
ATOM      7  C   UNL d   1       5.950  -2.212   0.000  0.00  0.00     0.070 A 
ATOM      8  C   UNL d   1       3.804  -2.625   0.000  0.00  0.00     0.005 A 
ATOM      9  C   UNL d   1       3.092  -1.392   0.000  0.00  0.00     0.198 A 
ATOM     10  O   UNL d   1       6.667  -0.967   0.000  0.00  0.00    -0.259 OA
ATOM     11  C   UNL d   1       3.092  -2.212   0.000  0.00  0.00     0.042 A 
ATOM     12  O   UNL d   1       2.375  -0.979   0.000  0.00  0.00    -0.286 OA
ATOM     13  C   UNL d   1       3.804  -0.150   0.000  0.00  0.00     0.005 C 
ENDROOT
BRANCH   2  14
ATOM     14  C   UNL d   1       5.229  -3.442   0.000  0.00  0.00     0.081 C 
BRANCH  14  15
ATOM     15  N   UNL d   1       5.950  -3.854   0.000  0.00  0.00    -0.301 N 
ATOM     16  C   UNL d   1       5.942  -4.679   0.000  0.00  0.00     0.100 C 
BRANCH  15  17
ATOM     17  C   UNL d   1       6.667  -3.442   0.000  0.00  0.00     0.080 C 
BRANCH  17  18
ATOM     18  C   UNL d   1       7.379  -3.854   0.000  0.00  0.00     0.018 A 
ATOM     19  C   UNL d   1       8.079  -3.450   0.000  0.00  0.00     0.002 A 
ATOM     20  C   UNL d   1       8.800  -3.854   0.000  0.00  0.00     0.000 A 
ATOM     21  C   UNL d   1       8.804  -4.692   0.000  0.00  0.00     0.000 A 
ATOM     22  C   UNL d   1       8.079  -5.092   0.000  0.00  0.00     0.000 A 
ATOM     23  C   UNL d   1       7.375  -4.679   0.000  0.00  0.00     0.002 A 
ENDBRANCH  17  18
ENDBRANCH  15  17
ENDBRANCH  14  15
ENDBRANCH   2  14
TORSDOF 4
