REMARK  3 active torsions:
REMARK  status: ('A' for Active; 'I' for Inactive)
REMARK    1  A    between atoms: C_6  and  C_1 
REMARK    2  A    between atoms: O_19  and  C_9 
REMARK    3  A    between atoms: O_20  and  C_13 
ROOT
ATOM      1  C   UNL d   1       4.350   1.200   0.000  0.00  0.00     0.064 A 
ATOM      2  C   UNL d   1       3.629   0.787   0.000  0.00  0.00     0.007 A 
ATOM      3  C   UNL d   1       4.350   2.033   0.000  0.00  0.00     0.300 A 
ATOM      4  C   UNL d   1       2.913   1.200   0.000  0.00  0.00     0.026 A 
ATOM      5  O   UNL d   1       3.629   2.458   0.000  0.00  0.00    -0.273 OA
ATOM      6  C   UNL d   1       2.913   2.033   0.000  0.00  0.00     0.103 A 
ATOM      7  O   UNL d   1       5.067   2.446   0.000  0.00  0.00    -0.259 OA
ATOM      8  C   UNL d   1       2.192   0.796   0.000  0.00  0.00     0.044 A 
ATOM      9  C   UNL d   1       2.204   2.446   0.000  0.00  0.00     0.028 A 
ATOM     10  C   UNL d   1       1.492   1.208   0.000  0.00  0.00     0.196 A 
ATOM     11  C   UNL d   1       3.629  -0.029   0.000  0.00  0.00     0.000 C 
ATOM     12  C   UNL d   1       1.492   2.033   0.000  0.00  0.00     0.044 A 
ATOM     13  O   UNL d   1       0.775   0.796   0.000  0.00  0.00    -0.287 OA
ENDROOT
BRANCH   1  14
ATOM     14  C   UNL d   1       5.062   0.787   0.000  0.00  0.00     0.007 A 
ATOM     15  C   UNL d   1       5.775   1.200   0.000  0.00  0.00     0.026 A 
ATOM     16  C   UNL d   1       6.487   0.796   0.000  0.00  0.00     0.116 A 
ATOM     17  C   UNL d   1       6.492  -0.029   0.000  0.00  0.00     0.116 A 
ATOM     18  C   UNL d   1       5.775  -0.450   0.000  0.00  0.00     0.026 A 
ATOM     19  C   UNL d   1       5.062  -0.029   0.000  0.00  0.00     0.002 A 
BRANCH  16  20
ATOM     20  O   UNL d   1       7.204   1.200   0.000  0.00  0.00    -0.326 OA
ATOM     21  C   UNL d   1       7.204   2.025   0.000  0.00  0.00     0.181 C 
ENDBRANCH  16  20
BRANCH  17  22
ATOM     22  O   UNL d   1       7.200  -0.450   0.000  0.00  0.00    -0.326 OA
ATOM     23  C   UNL d   1       7.917  -0.029   0.000  0.00  0.00     0.181 C 
ENDBRANCH  17  22
ENDBRANCH   1  14
TORSDOF 3
