REMARK  5 active torsions:
REMARK  status: ('A' for Active; 'I' for Inactive)
REMARK    1  A    between atoms: C_4  and  C_1 
REMARK    2  A    between atoms: C_9  and  C_4 
REMARK    3  A    between atoms: N_5  and  C_9 
REMARK    4  A    between atoms: C_19  and  N_6 
REMARK    5  A    between atoms: C_18  and  C_19 
ROOT
ATOM      1  N   UNL d   1       8.829  -3.742   0.000  0.00  0.00    -0.297 N 
ATOM      2  N   UNL d   1      10.267  -4.567   0.000  0.00  0.00    -0.300 N 
ATOM      3  C   UNL d   1       9.542  -3.337   0.000  0.00  0.00     0.100 A 
ATOM      4  C   UNL d   1       8.829  -4.575   0.000  0.00  0.00     0.100 A 
ATOM      5  C   UNL d   1       9.554  -4.979   0.000  0.00  0.00     0.100 A 
ATOM      6  C   UNL d   1      10.267  -3.742   0.000  0.00  0.00     0.100 A 
ENDROOT
BRANCH   1   7
ATOM      7  C   UNL d   1       8.113  -3.337   0.000  0.00  0.00     0.123 C 
BRANCH   7   8
ATOM      8  C   UNL d   1       7.400  -3.750   0.000  0.00  0.00     0.216 C 
ATOM      9  O   UNL d   1       7.400  -4.575   0.000  0.00  0.00    -0.285 OA
BRANCH   8  10
ATOM     10  C   UNL d   1       6.679  -3.337   0.000  0.00  0.00     0.080 A 
ATOM     11  C   UNL d   1       5.975  -3.742   0.000  0.00  0.00     0.202 A 
ATOM     12  C   UNL d   1       5.263  -3.337   0.000  0.00  0.00     0.078 A 
ATOM     13  O   UNL d   1       5.979  -4.567   0.000  0.00  0.00    -0.286 OA
ATOM     14  C   UNL d   1       4.550  -3.754   0.000  0.00  0.00     0.007 C 
ATOM     15  C   UNL d   1       5.254  -2.504   0.000  0.00  0.00     0.199 A 
ATOM     16  C   UNL d   1       5.975  -2.092   0.000  0.00  0.00     0.042 A 
ATOM     17  O   UNL d   1       4.542  -2.100   0.000  0.00  0.00    -0.286 OA
ATOM     18  C   UNL d   1       6.688  -2.504   0.000  0.00  0.00     0.010 A 
ENDBRANCH   8  10
ENDBRANCH   7   8
ENDBRANCH   1   7
BRANCH   2  19
ATOM     19  C   UNL d   1      10.988  -4.975   0.000  0.00  0.00     0.080 C 
BRANCH  19  20
ATOM     20  C   UNL d   1      10.992  -5.800   0.000  0.00  0.00     0.020 A 
ATOM     21  C   UNL d   1      10.279  -6.217   0.000  0.00  0.00     0.028 A 
ATOM     22  C   UNL d   1      10.287  -7.037   0.000  0.00  0.00     0.119 A 
ATOM     23  O   UNL d   1       9.675  -7.588   0.000  0.00  0.00    -0.300 OA
ATOM     24  C   UNL d   1      11.004  -7.442   0.000  0.00  0.00     0.119 A 
ATOM     25  C   UNL d   1      10.004  -8.342   0.000  0.00  0.00     0.304 A 
ATOM     26  O   UNL d   1      10.829  -8.250   0.000  0.00  0.00    -0.300 OA
ATOM     27  C   UNL d   1      11.717  -7.029   0.000  0.00  0.00     0.026 A 
ATOM     28  C   UNL d   1      11.704  -6.200   0.000  0.00  0.00     0.004 A 
ENDBRANCH  19  20
ENDBRANCH   2  19
TORSDOF 5
