REMARK  5 active torsions:
REMARK  status: ('A' for Active; 'I' for Inactive)
REMARK    1  A    between atoms: C_7  and  C_2 
REMARK    2  A    between atoms: C_9  and  C_4 
REMARK    3  A    between atoms: C_16  and  C_7 
REMARK    4  A    between atoms: N_8  and  C_9 
REMARK    5  A    between atoms: C_23  and  C_14 
ROOT
ATOM      1  C   UNL d   1       3.712  -1.628   0.000  0.00  0.00     0.108 A 
ATOM      2  C   UNL d   1       4.989  -2.046   0.000  0.00  0.00     0.139 A 
ATOM      3  O   UNL d   1       4.501  -1.369   0.000  0.00  0.00    -0.304 OA
ATOM      4  C   UNL d   1       3.006  -1.219   0.000  0.00  0.00     0.079 A 
ATOM      5  C   UNL d   1       3.712  -2.455   0.000  0.00  0.00     0.064 A 
ATOM      6  C   UNL d   1       4.501  -2.710   0.000  0.00  0.00     0.220 A 
ATOM      7  C   UNL d   1       2.998  -2.868   0.000  0.00  0.00     0.009 A 
ATOM      8  C   UNL d   1       2.296  -1.633   0.000  0.00  0.00     0.199 A 
ATOM      9  O   UNL d   1       4.752  -3.499   0.000  0.00  0.00    -0.284 OA
ATOM     10  C   UNL d   1       2.292  -2.455   0.000  0.00  0.00     0.042 A 
ATOM     11  O   UNL d   1       1.583  -1.219   0.000  0.00  0.00    -0.286 OA
ENDROOT
BRANCH   2  12
ATOM     12  C   UNL d   1       5.816  -2.046   0.000  0.00  0.00     0.028 C 
BRANCH  12  13
ATOM     13  C   UNL d   1       6.230  -1.332   0.000  0.00  0.00     0.002 A 
ATOM     14  C   UNL d   1       7.056  -1.332   0.000  0.00  0.00     0.000 A 
ATOM     15  C   UNL d   1       7.470  -0.618   0.000  0.00  0.00     0.000 A 
ATOM     16  C   UNL d   1       7.056   0.096   0.000  0.00  0.00     0.000 A 
ATOM     17  C   UNL d   1       6.230   0.096   0.000  0.00  0.00     0.000 A 
ATOM     18  C   UNL d   1       5.816  -0.618   0.000  0.00  0.00     0.000 A 
BRANCH  16  19
ATOM     19  C   UNL d   1       7.470   0.810   0.000  0.00  0.00     0.000 C 
ATOM     20  C   UNL d   1       8.296   0.810   0.000  0.00  0.00     0.000 C 
ATOM     21  C   UNL d   1       7.056   1.528   0.000  0.00  0.00     0.000 C 
ENDBRANCH  16  19
ENDBRANCH  12  13
ENDBRANCH   2  12
BRANCH   4  22
ATOM     22  C   UNL d   1       2.998  -0.401   0.000  0.00  0.00     0.086 C 
BRANCH  22  23
ATOM     23  N   UNL d   1       2.334   0.084   0.000  0.00  0.00    -0.300 N 
ATOM     24  C   UNL d   1       2.422   0.898   0.000  0.00  0.00     0.100 A 
ATOM     25  C   UNL d   1       1.766   1.386   0.000  0.00  0.00     0.100 A 
ATOM     26  N   UNL d   1       1.019   1.048   0.000  0.00  0.00    -0.299 N 
ATOM     27  C   UNL d   1       0.931   0.234   0.000  0.00  0.00     0.100 A 
ATOM     28  C   UNL d   1       0.355   1.528   0.000  0.00  0.00     0.100 C 
ATOM     29  C   UNL d   1       1.595  -0.242   0.000  0.00  0.00     0.100 A 
ENDBRANCH  22  23
ENDBRANCH   4  22
TORSDOF 5
