REMARK  4 active torsions:
REMARK  status: ('A' for Active; 'I' for Inactive)
REMARK    1  A    between atoms: C_7  and  C_2 
REMARK    2  A    between atoms: C_9  and  C_4 
REMARK    3  A    between atoms: C_15  and  C_7 
REMARK    4  A    between atoms: N_8  and  C_9 
ROOT
ATOM      1  C   UNL d   1       3.775  -1.628   0.000  0.00  0.00     0.108 A 
ATOM      2  C   UNL d   1       5.048  -2.046   0.000  0.00  0.00     0.139 A 
ATOM      3  O   UNL d   1       4.564  -1.369   0.000  0.00  0.00    -0.304 OA
ATOM      4  C   UNL d   1       3.061  -1.219   0.000  0.00  0.00     0.079 A 
ATOM      5  C   UNL d   1       3.775  -2.455   0.000  0.00  0.00     0.064 A 
ATOM      6  C   UNL d   1       4.559  -2.710   0.000  0.00  0.00     0.220 A 
ATOM      7  C   UNL d   1       3.061  -2.868   0.000  0.00  0.00     0.009 A 
ATOM      8  C   UNL d   1       2.355  -1.633   0.000  0.00  0.00     0.199 A 
ATOM      9  O   UNL d   1       4.814  -3.499   0.000  0.00  0.00    -0.284 OA
ATOM     10  C   UNL d   1       2.347  -2.455   0.000  0.00  0.00     0.042 A 
ATOM     11  O   UNL d   1       1.641  -1.219   0.000  0.00  0.00    -0.286 OA
ENDROOT
BRANCH   2  12
ATOM     12  C   UNL d   1       5.875  -2.046   0.000  0.00  0.00     0.028 C 
BRANCH  12  13
ATOM     13  C   UNL d   1       6.292  -1.332   0.000  0.00  0.00     0.002 A 
ATOM     14  C   UNL d   1       5.879  -0.618   0.000  0.00  0.00     0.000 A 
ATOM     15  C   UNL d   1       6.288   0.096   0.000  0.00  0.00     0.000 A 
ATOM     16  C   UNL d   1       7.119   0.096   0.000  0.00  0.00     0.000 A 
ATOM     17  C   UNL d   1       7.532  -0.618   0.000  0.00  0.00     0.000 A 
ATOM     18  C   UNL d   1       7.532   0.810   0.000  0.00  0.00     0.000 C 
ATOM     19  C   UNL d   1       7.115  -1.332   0.000  0.00  0.00     0.000 A 
ENDBRANCH  12  13
ENDBRANCH   2  12
BRANCH   4  20
ATOM     20  C   UNL d   1       3.061  -0.401   0.000  0.00  0.00     0.086 C 
BRANCH  20  21
ATOM     21  N   UNL d   1       2.384   0.084   0.000  0.00  0.00    -0.300 N 
ATOM     22  C   UNL d   1       2.484   0.898   0.000  0.00  0.00     0.100 A 
ATOM     23  C   UNL d   1       1.821   1.386   0.000  0.00  0.00     0.100 A 
ATOM     24  N   UNL d   1       1.077   1.048   0.000  0.00  0.00    -0.299 N 
ATOM     25  C   UNL d   1       0.994   0.234   0.000  0.00  0.00     0.100 A 
ATOM     26  C   UNL d   1       0.418   1.528   0.000  0.00  0.00     0.100 C 
ATOM     27  C   UNL d   1       1.653  -0.242   0.000  0.00  0.00     0.100 A 
ENDBRANCH  20  21
ENDBRANCH   4  20
TORSDOF 4
