REMARK  4 active torsions:
REMARK  status: ('A' for Active; 'I' for Inactive)
REMARK    1  A    between atoms: C_9  and  N_1 
REMARK    2  A    between atoms: S_10  and  C_6 
REMARK    3  A    between atoms: C_16  and  S_10 
REMARK    4  A    between atoms: C_15  and  C_16 
ROOT
ATOM      1  N   UNL d   1      -4.395   1.865   0.000  0.00  0.00    -0.212 N 
ATOM      2  C   UNL d   1      -3.612   2.113   0.000  0.00  0.00     0.169 A 
ATOM      3  N   UNL d   1      -4.877   2.516   0.000  0.00  0.00    -0.162 NA
ATOM      4  C   UNL d   1      -3.612   2.938   0.000  0.00  0.00     0.081 A 
ATOM      5  C   UNL d   1      -4.395   3.190   0.000  0.00  0.00     0.126 A 
ATOM      6  C   UNL d   1      -2.901   3.350   0.000  0.00  0.00     0.117 A 
ATOM      7  N   UNL d   1      -2.901   1.700   0.000  0.00  0.00    -0.205 NA
ATOM      8  N   UNL d   1      -2.186   2.938   0.000  0.00  0.00    -0.217 NA
ATOM      9  C   UNL d   1      -2.186   2.113   0.000  0.00  0.00     0.201 A 
ENDROOT
BRANCH   6  10
ATOM     10  S   UNL d   1      -2.901   4.175   0.000  0.00  0.00    -0.067 SA
BRANCH  10  11
ATOM     11  C   UNL d   1      -2.195   4.583   0.000  0.00  0.00     0.038 C 
BRANCH  11  12
ATOM     12  C   UNL d   1      -2.195   5.408   0.000  0.00  0.00     0.026 A 
ATOM     13  C   UNL d   1      -2.910   5.821   0.000  0.00  0.00     0.099 A 
ATOM     14  N   UNL d   1      -2.910   6.646   0.000  0.00  0.00    -0.242 NA
ATOM     15  C   UNL d   1      -2.195   7.067   0.000  0.00  0.00     0.099 A 
ATOM     16  C   UNL d   1      -1.480   6.646   0.000  0.00  0.00     0.021 A 
ATOM     17  C   UNL d   1      -1.480   5.821   0.000  0.00  0.00     0.004 A 
ENDBRANCH  11  12
ENDBRANCH  10  11
ENDBRANCH   6  10
BRANCH   1  18
ATOM     18  C   UNL d   1      -4.574   1.054   0.000  0.00  0.00     0.085 A 
ATOM     19  C   UNL d   1      -5.358   0.807   0.000  0.00  0.00     0.021 A 
ATOM     20  C   UNL d   1      -5.537   0.009   0.000  0.00  0.00     0.031 A 
ATOM     21  C   UNL d   1      -4.932  -0.555   0.000  0.00  0.00     0.140 A 
ATOM     22  C   UNL d   1      -4.139  -0.293   0.000  0.00  0.00     0.031 A 
ATOM     23  F   UNL d   1      -5.110  -1.366   0.000  0.00  0.00    -0.204 F 
ATOM     24  C   UNL d   1      -3.969   0.504   0.000  0.00  0.00     0.021 A 
ENDBRANCH   1  18
TORSDOF 4
