REMARK  7 active torsions:
REMARK  status: ('A' for Active; 'I' for Inactive)
REMARK    1  A    between atoms: C_12  and  N_1 
REMARK    2  A    between atoms: C_2  and  N_6 
REMARK    3  A    between atoms: C_9  and  C_5 
REMARK       I    between atoms: N_6  and  C_9 
REMARK    4  A    between atoms: S_15  and  C_7 
REMARK    5  A    between atoms: C_14  and  C_20 
REMARK       I    between atoms: N_21  and  C_14 
REMARK    6  A    between atoms: C_20  and  S_15 
REMARK    7  A    between atoms: O_22  and  C_18 
ROOT
ATOM      1  N   UNL d   1       0.906   2.879   0.000  0.00  0.00    -0.271 N 
ATOM      2  C   UNL d   1       1.263   2.196   0.000  0.00  0.00     0.265 A 
ATOM      3  C   UNL d   1       0.028   1.985   0.000  0.00  0.00     0.080 A 
ATOM      4  C   UNL d   1       0.141   2.749   0.000  0.00  0.00     0.088 A 
ATOM      5  C   UNL d   1       0.722   1.635   0.000  0.00  0.00     0.067 A 
ATOM      6  O   UNL d   1       2.036   2.083   0.000  0.00  0.00    -0.267 OA
ENDROOT
BRANCH   3   7
ATOM      7  C   UNL d   1      -0.655   1.620   0.000  0.00  0.00     0.283 C 
ATOM      8  N   UNL d   1      -1.314   2.032   0.000  0.00  0.00    -0.181 NA
ATOM      9  O   UNL d   1      -0.682   0.843   0.000  0.00  0.00    -0.265 OA
BRANCH   8  10
ATOM     10  C   UNL d   1      -2.000   1.671   0.000  0.00  0.00     0.219 A 
ATOM     11  S   UNL d   1      -2.114   0.902   0.000  0.00  0.00    -0.019 SA
ATOM     12  C   UNL d   1      -2.871   0.773   0.000  0.00  0.00     0.165 A 
ATOM     13  N   UNL d   1      -3.244   1.455   0.000  0.00  0.00    -0.133 NA
ATOM     14  N   UNL d   1      -2.695   2.020   0.000  0.00  0.00    -0.120 NA
BRANCH  12  15
ATOM     15  S   UNL d   1      -3.373  -0.863   0.000  0.00  0.00    -0.054 SA
BRANCH  15  16
ATOM     16  C   UNL d   1      -4.185  -1.051   0.000  0.00  0.00     0.100 C 
BRANCH  16  17
ATOM     17  C   UNL d   1      -4.754  -0.439   0.000  0.00  0.00     0.286 C 
ATOM     18  O   UNL d   1      -5.573  -0.624   0.000  0.00  0.00    -0.265 OA
ATOM     19  N   UNL d   1      -4.503   0.361   0.000  0.00  0.00    -0.204 NA
ATOM     20  C   UNL d   1      -5.079   0.965   0.000  0.00  0.00     0.123 C 
ENDBRANCH  16  17
ENDBRANCH  15  16
ENDBRANCH  12  15
ENDBRANCH   8  10
ENDBRANCH   3   7
BRANCH   1  21
ATOM     21  C   UNL d   1       1.275   3.632   0.000  0.00  0.00     0.089 A 
ATOM     22  C   UNL d   1       2.110   3.691   0.000  0.00  0.00     0.110 A 
ATOM     23  C   UNL d   1       2.475   4.428   0.000  0.00  0.00     0.026 A 
ATOM     24  C   UNL d   1       2.004   5.122   0.000  0.00  0.00     0.002 A 
ATOM     25  C   UNL d   1       1.181   5.075   0.000  0.00  0.00     0.002 A 
ATOM     26  C   UNL d   1       0.804   4.322   0.000  0.00  0.00     0.020 A 
BRANCH  22  27
ATOM     27  O   UNL d   1       2.569   2.997   0.000  0.00  0.00    -0.327 OA
ATOM     28  C   UNL d   1       3.401   3.055   0.000  0.00  0.00     0.181 C 
ENDBRANCH  22  27
ENDBRANCH   1  21
TORSDOF 7
