REMARK  8 active torsions:
REMARK  status: ('A' for Active; 'I' for Inactive)
REMARK    1  A    between atoms: C_13  and  N_1 
REMARK    2  A    between atoms: C_2  and  N_6 
REMARK    3  A    between atoms: C_9  and  C_5 
REMARK       I    between atoms: N_6  and  C_9 
REMARK    4  A    between atoms: S_16  and  C_7 
REMARK    5  A    between atoms: C_14  and  C_27 
REMARK       I    between atoms: N_20  and  C_14 
REMARK    6  A    between atoms: C_15  and  C_28 
REMARK    7  A    between atoms: C_27  and  S_16 
REMARK    8  A    between atoms: C_28  and  N_20 
ROOT
ATOM      1  C   UNL d   1      -1.983   1.656   0.000  0.00  0.00     0.219 A 
ATOM      2  S   UNL d   1      -2.095   0.894   0.000  0.00  0.00    -0.019 SA
ATOM      3  C   UNL d   1      -2.846   0.766   0.000  0.00  0.00     0.165 A 
ATOM      4  N   UNL d   1      -2.671   2.002   0.000  0.00  0.00    -0.120 NA
ATOM      5  N   UNL d   1      -3.215   1.442   0.000  0.00  0.00    -0.133 NA
ENDROOT
BRANCH   1   6
ATOM      6  N   UNL d   1      -1.302   2.014   0.000  0.00  0.00    -0.181 NA
ATOM      7  C   UNL d   1      -0.649   1.605   0.000  0.00  0.00     0.283 C 
ATOM      8  O   UNL d   1      -0.676   0.836   0.000  0.00  0.00    -0.265 OA
BRANCH   7   9
ATOM      9  C   UNL d   1       0.027   1.967   0.000  0.00  0.00     0.080 A 
ATOM     10  C   UNL d   1       0.140   2.725   0.000  0.00  0.00     0.088 A 
ATOM     11  N   UNL d   1       0.898   2.853   0.000  0.00  0.00    -0.273 N 
ATOM     12  C   UNL d   1       1.252   2.177   0.000  0.00  0.00     0.265 A 
ATOM     13  C   UNL d   1       0.715   1.621   0.000  0.00  0.00     0.067 A 
ATOM     14  O   UNL d   1       2.018   2.064   0.000  0.00  0.00    -0.267 OA
BRANCH  11  15
ATOM     15  C   UNL d   1       1.263   3.600   0.000  0.00  0.00     0.067 A 
ATOM     16  C   UNL d   1       0.797   4.280   0.000  0.00  0.00     0.020 A 
ATOM     17  C   UNL d   1       1.170   5.019   0.000  0.00  0.00     0.031 A 
ATOM     18  C   UNL d   1       1.986   5.077   0.000  0.00  0.00     0.140 A 
ATOM     19  C   UNL d   1       2.449   4.389   0.000  0.00  0.00     0.031 A 
ATOM     20  F   UNL d   1       2.360   5.823   0.000  0.00  0.00    -0.204 F 
ATOM     21  C   UNL d   1       2.091   3.658   0.000  0.00  0.00     0.020 A 
ENDBRANCH  11  15
ENDBRANCH   7   9
ENDBRANCH   1   6
BRANCH   3  22
ATOM     22  S   UNL d   1      -3.343  -0.855   0.000  0.00  0.00    -0.054 SA
BRANCH  22  23
ATOM     23  C   UNL d   1      -4.148  -1.042   0.000  0.00  0.00     0.100 C 
BRANCH  23  24
ATOM     24  C   UNL d   1      -4.712  -0.435   0.000  0.00  0.00     0.286 C 
ATOM     25  N   UNL d   1      -5.512  -0.630   0.000  0.00  0.00    -0.204 NA
ATOM     26  O   UNL d   1      -4.474   0.358   0.000  0.00  0.00    -0.265 OA
BRANCH  25  27
ATOM     27  C   UNL d   1      -6.076  -0.027   0.000  0.00  0.00     0.127 C 
BRANCH  27  28
ATOM     28  C   UNL d   1      -6.881  -0.226   0.000  0.00  0.00     0.119 A 
ATOM     29  O   UNL d   1      -7.199  -0.991   0.000  0.00  0.00    -0.304 OA
ATOM     30  C   UNL d   1      -8.027  -0.921   0.000  0.00  0.00     0.123 A 
ATOM     31  C   UNL d   1      -8.226  -0.117   0.000  0.00  0.00     0.029 A 
ATOM     32  C   UNL d   1      -7.514   0.315   0.000  0.00  0.00     0.028 A 
ENDBRANCH  27  28
ENDBRANCH  25  27
ENDBRANCH  23  24
ENDBRANCH  22  23
ENDBRANCH   3  22
TORSDOF 8
