REMARK  7 active torsions:
REMARK  status: ('A' for Active; 'I' for Inactive)
REMARK    1  A    between atoms: C_13  and  N_1 
REMARK    2  A    between atoms: C_2  and  N_6 
REMARK    3  A    between atoms: C_8  and  C_5 
REMARK       I    between atoms: N_6  and  C_8 
REMARK    4  A    between atoms: S_20  and  C_9 
REMARK    5  A    between atoms: C_14  and  C_19 
REMARK    6  A    between atoms: C_19  and  C_23 
REMARK    7  A    between atoms: C_23  and  S_20 
ROOT
ATOM      1  N   UNL d   1      -1.302   2.014   0.000  0.00  0.00    -0.181 NA
ATOM      2  C   UNL d   1      -0.649   1.606   0.000  0.00  0.00     0.283 C 
ATOM      3  O   UNL d   1      -0.676   0.836   0.000  0.00  0.00    -0.265 OA
ENDROOT
BRANCH   2   4
ATOM      4  C   UNL d   1       0.027   1.967   0.000  0.00  0.00     0.080 A 
ATOM      5  C   UNL d   1       0.140   2.725   0.000  0.00  0.00     0.088 A 
ATOM      6  N   UNL d   1       0.898   2.854   0.000  0.00  0.00    -0.273 N 
ATOM      7  C   UNL d   1       1.252   2.177   0.000  0.00  0.00     0.265 A 
ATOM      8  C   UNL d   1       0.715   1.621   0.000  0.00  0.00     0.067 A 
ATOM      9  O   UNL d   1       2.018   2.064   0.000  0.00  0.00    -0.267 OA
BRANCH   6  10
ATOM     10  C   UNL d   1       1.264   3.600   0.000  0.00  0.00     0.067 A 
ATOM     11  C   UNL d   1       0.797   4.281   0.000  0.00  0.00     0.020 A 
ATOM     12  C   UNL d   1       1.170   5.019   0.000  0.00  0.00     0.031 A 
ATOM     13  C   UNL d   1       1.987   5.078   0.000  0.00  0.00     0.140 A 
ATOM     14  C   UNL d   1       2.449   4.389   0.000  0.00  0.00     0.031 A 
ATOM     15  F   UNL d   1       2.360   5.824   0.000  0.00  0.00    -0.204 F 
ATOM     16  C   UNL d   1       2.092   3.659   0.000  0.00  0.00     0.020 A 
ENDBRANCH   6  10
ENDBRANCH   2   4
BRANCH   1  17
ATOM     17  C   UNL d   1      -1.983   1.656   0.000  0.00  0.00     0.219 A 
ATOM     18  S   UNL d   1      -2.095   0.894   0.000  0.00  0.00    -0.019 SA
ATOM     19  C   UNL d   1      -2.846   0.766   0.000  0.00  0.00     0.165 A 
ATOM     20  N   UNL d   1      -3.215   1.442   0.000  0.00  0.00    -0.133 NA
ATOM     21  N   UNL d   1      -2.671   2.002   0.000  0.00  0.00    -0.120 NA
BRANCH  19  22
ATOM     22  S   UNL d   1      -3.344  -0.855   0.000  0.00  0.00    -0.059 SA
BRANCH  22  23
ATOM     23  C   UNL d   1      -4.148  -1.042   0.000  0.00  0.00     0.042 C 
BRANCH  23  24
ATOM     24  C   UNL d   1      -4.712  -0.435   0.000  0.00  0.00     0.058 C 
BRANCH  24  25
ATOM     25  C   UNL d   1      -5.513  -0.634   0.000  0.00  0.00     0.204 A 
ATOM     26  O   UNL d   1      -5.824  -1.404   0.000  0.00  0.00    -0.281 OA
ATOM     27  C   UNL d   1      -6.652  -1.341   0.000  0.00  0.00     0.152 A 
ATOM     28  C   UNL d   1      -6.847  -0.536   0.000  0.00  0.00     0.152 A 
ATOM     29  O   UNL d   1      -6.147  -0.097   0.000  0.00  0.00    -0.281 OA
ENDBRANCH  24  25
ENDBRANCH  23  24
ENDBRANCH  22  23
ENDBRANCH  19  22
ENDBRANCH   1  17
TORSDOF 7
