REMARK  8 active torsions:
REMARK  status: ('A' for Active; 'I' for Inactive)
REMARK    1  A    between atoms: C_9  and  N_1 
REMARK    2  A    between atoms: S_10  and  C_6 
REMARK    3  A    between atoms: C_19  and  S_10 
REMARK    4  A    between atoms: C_12  and  C_19 
REMARK       I    between atoms: N_14  and  C_12 
REMARK    5  A    between atoms: C_13  and  C_20 
REMARK    6  A    between atoms: O_24  and  C_13 
REMARK    7  A    between atoms: C_20  and  N_14 
REMARK    8  A    between atoms: C_26  and  O_24 
ROOT
ATOM      1  N   UNL d   1      -4.395   1.865   0.000  0.00  0.00    -0.212 N 
ATOM      2  C   UNL d   1      -3.612   2.113   0.000  0.00  0.00     0.169 A 
ATOM      3  N   UNL d   1      -4.877   2.516   0.000  0.00  0.00    -0.162 NA
ATOM      4  C   UNL d   1      -3.612   2.938   0.000  0.00  0.00     0.081 A 
ATOM      5  C   UNL d   1      -4.395   3.190   0.000  0.00  0.00     0.126 A 
ATOM      6  C   UNL d   1      -2.901   3.350   0.000  0.00  0.00     0.117 A 
ATOM      7  N   UNL d   1      -2.901   1.700   0.000  0.00  0.00    -0.205 NA
ATOM      8  N   UNL d   1      -2.186   2.938   0.000  0.00  0.00    -0.217 NA
ATOM      9  C   UNL d   1      -2.186   2.113   0.000  0.00  0.00     0.201 A 
ENDROOT
BRANCH   6  10
ATOM     10  S   UNL d   1      -2.901   4.175   0.000  0.00  0.00    -0.062 SA
BRANCH  10  11
ATOM     11  C   UNL d   1      -2.195   4.583   0.000  0.00  0.00     0.099 C 
BRANCH  11  12
ATOM     12  C   UNL d   1      -2.195   5.408   0.000  0.00  0.00     0.286 C 
ATOM     13  N   UNL d   1      -2.910   5.821   0.000  0.00  0.00    -0.200 NA
ATOM     14  O   UNL d   1      -1.480   5.821   0.000  0.00  0.00    -0.265 OA
BRANCH  13  15
ATOM     15  C   UNL d   1      -3.625   5.408   0.000  0.00  0.00     0.171 C 
BRANCH  15  16
ATOM     16  C   UNL d   1      -4.340   5.821   0.000  0.00  0.00     0.320 C 
ATOM     17  O   UNL d   1      -5.055   5.408   0.000  0.00  0.00    -0.257 OA
BRANCH  16  18
ATOM     18  O   UNL d   1      -4.340   6.646   0.000  0.00  0.00    -0.270 OA
BRANCH  18  19
ATOM     19  C   UNL d   1      -3.625   7.058   0.000  0.00  0.00     0.126 C 
ATOM     20  C   UNL d   1      -3.625   7.883   0.000  0.00  0.00     0.029 C 
ENDBRANCH  18  19
ENDBRANCH  16  18
ENDBRANCH  15  16
ENDBRANCH  13  15
ENDBRANCH  11  12
ENDBRANCH  10  11
ENDBRANCH   6  10
BRANCH   1  21
ATOM     21  C   UNL d   1      -4.574   1.054   0.000  0.00  0.00     0.085 A 
ATOM     22  C   UNL d   1      -5.358   0.807   0.000  0.00  0.00     0.020 A 
ATOM     23  C   UNL d   1      -5.537   0.009   0.000  0.00  0.00     0.013 A 
ATOM     24  C   UNL d   1      -4.932  -0.555   0.000  0.00  0.00     0.058 A 
ATOM     25  C   UNL d   1      -4.139  -0.293   0.000  0.00  0.00     0.013 A 
ATOM     26 CL   UNL d   1      -5.110  -1.366   0.000  0.00  0.00    -0.082 Cl
ATOM     27  C   UNL d   1      -3.969   0.504   0.000  0.00  0.00     0.020 A 
ENDBRANCH   1  21
TORSDOF 8
