REMARK  7 active torsions:
REMARK  status: ('A' for Active; 'I' for Inactive)
REMARK    1  A    between atoms: C_13  and  N_1 
REMARK    2  A    between atoms: C_2  and  N_6 
REMARK    3  A    between atoms: C_9  and  C_5 
REMARK       I    between atoms: N_6  and  C_9 
REMARK    4  A    between atoms: S_14  and  C_7 
REMARK    5  A    between atoms: C_21  and  S_14 
REMARK    6  A    between atoms: C_15  and  C_21 
REMARK    7  A    between atoms: O_25  and  C_15 
ROOT
ATOM      1  N   UNL d   1      -1.317   2.036   0.000  0.00  0.00    -0.181 NA
ATOM      2  C   UNL d   1      -0.656   1.623   0.000  0.00  0.00     0.283 C 
ATOM      3  O   UNL d   1      -0.684   0.845   0.000  0.00  0.00    -0.265 OA
ENDROOT
BRANCH   2   4
ATOM      4  C   UNL d   1       0.028   1.988   0.000  0.00  0.00     0.080 A 
ATOM      5  C   UNL d   1       0.141   2.755   0.000  0.00  0.00     0.088 A 
ATOM      6  N   UNL d   1       0.908   2.885   0.000  0.00  0.00    -0.273 N 
ATOM      7  C   UNL d   1       1.266   2.201   0.000  0.00  0.00     0.265 A 
ATOM      8  C   UNL d   1       0.723   1.639   0.000  0.00  0.00     0.067 A 
ATOM      9  O   UNL d   1       2.040   2.087   0.000  0.00  0.00    -0.267 OA
BRANCH   6  10
ATOM     10  C   UNL d   1       1.277   3.639   0.000  0.00  0.00     0.067 A 
ATOM     11  C   UNL d   1       0.806   4.327   0.000  0.00  0.00     0.020 A 
ATOM     12  C   UNL d   1       1.183   5.074   0.000  0.00  0.00     0.031 A 
ATOM     13  C   UNL d   1       2.008   5.133   0.000  0.00  0.00     0.140 A 
ATOM     14  C   UNL d   1       2.476   4.437   0.000  0.00  0.00     0.031 A 
ATOM     15  F   UNL d   1       2.385   5.887   0.000  0.00  0.00    -0.204 F 
ATOM     16  C   UNL d   1       2.114   3.698   0.000  0.00  0.00     0.020 A 
ENDBRANCH   6  10
ENDBRANCH   2   4
BRANCH   1  17
ATOM     17  C   UNL d   1      -2.004   1.674   0.000  0.00  0.00     0.219 A 
ATOM     18  S   UNL d   1      -2.118   0.904   0.000  0.00  0.00    -0.019 SA
ATOM     19  C   UNL d   1      -2.877   0.774   0.000  0.00  0.00     0.165 A 
ATOM     20  N   UNL d   1      -3.250   1.458   0.000  0.00  0.00    -0.133 NA
ATOM     21  N   UNL d   1      -2.700   2.024   0.000  0.00  0.00    -0.120 NA
BRANCH  19  22
ATOM     22  S   UNL d   1      -3.380  -0.865   0.000  0.00  0.00    -0.053 SA
BRANCH  22  23
ATOM     23  C   UNL d   1      -4.193  -1.053   0.000  0.00  0.00     0.106 C 
BRANCH  23  24
ATOM     24  C   UNL d   1      -4.771  -0.436   0.000  0.00  0.00     0.303 C 
ATOM     25  O   UNL d   1      -4.535   0.365   0.000  0.00  0.00    -0.259 OA
BRANCH  24  26
ATOM     26  O   UNL d   1      -5.588  -0.648   0.000  0.00  0.00    -0.295 OA
ATOM     27  C   UNL d   1      -6.158  -0.039   0.000  0.00  0.00     0.185 C 
ENDBRANCH  24  26
ENDBRANCH  23  24
ENDBRANCH  22  23
ENDBRANCH  19  22
ENDBRANCH   1  17
TORSDOF 7
