REMARK  7 active torsions:
REMARK  status: ('A' for Active; 'I' for Inactive)
REMARK    1  A    between atoms: N_15  and  C_4 
REMARK    2  A    between atoms: C_17  and  N_5 
REMARK    3  A    between atoms: C_19  and  N_10 
REMARK    4  A    between atoms: C_11  and  S_16 
REMARK    5  A    between atoms: S_16  and  C_28 
REMARK    6  A    between atoms: C_27  and  C_17 
REMARK    7  A    between atoms: C_28  and  C_27 
ROOT
ATOM      1  C   UNL d   1       0.952  -3.093   0.000  0.00  0.00     0.191 A 
ATOM      2  C   UNL d   1       0.939  -2.267   0.000  0.00  0.00     0.174 A 
ATOM      3  N   UNL d   1       1.741  -3.356   0.000  0.00  0.00    -0.042 NA
ATOM      4  C   UNL d   1       2.217  -2.667   0.000  0.00  0.00     0.722 A 
ATOM      5  N   UNL d   1       1.741  -2.004   0.000  0.00  0.00    -0.136 N 
ATOM      6  N   UNL d   1       0.225  -3.531   0.000  0.00  0.00    -0.239 N 
ATOM      7  C   UNL d   1      -0.513  -3.093   0.000  0.00  0.00     0.358 A 
ATOM      8  N   UNL d   1      -0.488  -2.267   0.000  0.00  0.00    -0.152 NA
ATOM      9  C   UNL d   1       0.251  -1.853   0.000  0.00  0.00     0.303 A 
ATOM     10  O   UNL d   1      -1.252  -3.494   0.000  0.00  0.00    -0.244 OA
ATOM     11  O   UNL d   1       0.238  -1.014   0.000  0.00  0.00    -0.263 OA
ATOM     12  C   UNL d   1       0.225  -4.358   0.000  0.00  0.00     0.105 C 
ENDROOT
BRANCH   5  13
ATOM     13  C   UNL d   1       2.133  -1.290   0.000  0.00  0.00     0.072 C 
BRANCH  13  14
ATOM     14  C   UNL d   1       2.968  -1.290   0.000  0.00  0.00     0.052 C 
ATOM     15  C   UNL d   1       2.755  -0.493   0.000  0.00  0.00     0.007 C 
BRANCH  14  16
ATOM     16  C   UNL d   1       3.381  -0.576   0.000  0.00  0.00     0.071 C 
BRANCH  16  17
ATOM     17  S   UNL d   1       4.195  -0.564   0.000  0.00  0.00    -0.073 SA
BRANCH  17  18
ATOM     18  C   UNL d   1       4.608   0.150   0.000  0.00  0.00     0.215 A 
ATOM     19  N   UNL d   1       5.427   0.238   0.000  0.00  0.00    -0.186 N 
ATOM     20  N   UNL d   1       5.602   1.039   0.000  0.00  0.00    -0.038 NA
ATOM     21  N   UNL d   1       4.888   1.453   0.000  0.00  0.00    -0.022 NA
ATOM     22  N   UNL d   1       4.274   0.902   0.000  0.00  0.00    -0.101 NA
BRANCH  19  23
ATOM     23  C   UNL d   1       5.978  -0.376   0.000  0.00  0.00     0.087 A 
ATOM     24  C   UNL d   1       5.715  -1.156   0.000  0.00  0.00     0.019 A 
ATOM     25  C   UNL d   1       6.266  -1.770   0.000  0.00  0.00     0.002 A 
ATOM     26  C   UNL d   1       7.075  -1.603   0.000  0.00  0.00     0.000 A 
ATOM     27  C   UNL d   1       7.330  -0.814   0.000  0.00  0.00     0.002 A 
ATOM     28  C   UNL d   1       6.779  -0.200   0.000  0.00  0.00     0.019 A 
ENDBRANCH  19  23
ENDBRANCH  17  18
ENDBRANCH  16  17
ENDBRANCH  14  16
ENDBRANCH  13  14
ENDBRANCH   5  13
BRANCH   4  29
ATOM     29  N   UNL d   1       3.043  -2.655   0.000  0.00  0.00    -0.136 N 
ATOM     30  C   UNL d   1       3.444  -1.929   0.000  0.00  0.00     0.117 A 
ATOM     31  C   UNL d   1       4.270  -1.929   0.000  0.00  0.00     0.100 A 
ATOM     32  N   UNL d   1       4.696  -2.642   0.000  0.00  0.00    -0.299 N 
ATOM     33  C   UNL d   1       4.283  -3.356   0.000  0.00  0.00     0.100 A 
ATOM     34  C   UNL d   1       5.523  -2.630   0.000  0.00  0.00     0.100 C 
ATOM     35  C   UNL d   1       3.461  -3.369   0.000  0.00  0.00     0.117 A 
ENDBRANCH   4  29
TORSDOF 7
