REMARK  4 active torsions:
REMARK  status: ('A' for Active; 'I' for Inactive)
REMARK    1  A    between atoms: C_4  and  C_1 
REMARK    2  A    between atoms: N_5  and  C_2 
REMARK       I    between atoms: N_9  and  C_4 
REMARK       I    between atoms: C_7  and  N_5 
REMARK    3  A    between atoms: C_13  and  C_7 
REMARK    4  A    between atoms: C_11  and  N_9 
ROOT
ATOM      1  C   UNL d   1      -2.486   1.315   0.000  0.00  0.00     0.175 A 
ATOM      2  C   UNL d   1      -2.249   2.050   0.000  0.00  0.00     0.114 A 
ATOM      3  O   UNL d   1      -3.257   1.315   0.000  0.00  0.00    -0.301 OA
ATOM      4  C   UNL d   1      -2.871   2.506   0.000  0.00  0.00     0.043 A 
ATOM      5  C   UNL d   1      -3.498   2.050   0.000  0.00  0.00     0.102 A 
ATOM      6  C   UNL d   1      -2.953   3.268   0.000  0.00  0.00     0.004 A 
ATOM      7  C   UNL d   1      -4.198   2.358   0.000  0.00  0.00     0.025 A 
ATOM      8  C   UNL d   1      -3.661   3.579   0.000  0.00  0.00     0.000 A 
ATOM      9  C   UNL d   1      -4.280   3.124   0.000  0.00  0.00     0.002 A 
ENDROOT
BRANCH   1  10
ATOM     10  C   UNL d   1      -2.039   0.696   0.000  0.00  0.00     0.303 C 
ATOM     11  N   UNL d   1      -2.763  -0.611   0.000  0.00  0.00    -0.206 NA
ATOM     12  O   UNL d   1      -1.272   0.673   0.000  0.00  0.00    -0.263 OA
BRANCH  11  13
ATOM     13  C   UNL d   1      -3.591  -0.623   0.000  0.00  0.00     0.085 A 
ATOM     14  C   UNL d   1      -4.015   0.089   0.000  0.00  0.00     0.019 A 
ATOM     15  C   UNL d   1      -4.844   0.078   0.000  0.00  0.00     0.002 A 
ATOM     16  C   UNL d   1      -5.272   0.790   0.000  0.00  0.00     0.000 C 
ATOM     17  C   UNL d   1      -5.260  -0.646   0.000  0.00  0.00     0.000 A 
ATOM     18  C   UNL d   1      -4.829  -1.366   0.000  0.00  0.00     0.002 A 
ATOM     19  C   UNL d   1      -6.085  -0.658   0.000  0.00  0.00     0.000 C 
ATOM     20  C   UNL d   1      -3.988  -1.346   0.000  0.00  0.00     0.019 A 
ENDBRANCH  11  13
ENDBRANCH   1  10
BRANCH   2  21
ATOM     21  N   UNL d   1      -1.514   2.284   0.000  0.00  0.00    -0.204 NA
ATOM     22  C   UNL d   1      -0.899   1.728   0.000  0.00  0.00     0.302 C 
ATOM     23  O   UNL d   1      -1.074   0.910   0.000  0.00  0.00    -0.263 OA
BRANCH  22  24
ATOM     24  C   UNL d   1      -0.105   1.984   0.000  0.00  0.00     0.158 A 
ATOM     25  O   UNL d   1       0.576   1.502   0.000  0.00  0.00    -0.300 OA
ATOM     26  C   UNL d   1       1.241   1.992   0.000  0.00  0.00     0.123 A 
ATOM     27  C   UNL d   1       0.984   2.786   0.000  0.00  0.00     0.029 A 
ATOM     28  C   UNL d   1       0.163   2.786   0.000  0.00  0.00     0.032 A 
ENDBRANCH  22  24
ENDBRANCH   2  21
TORSDOF 4
