REMARK  4 active torsions:
REMARK  status: ('A' for Active; 'I' for Inactive)
REMARK    1  A    between atoms: C_4  and  C_1 
REMARK    2  A    between atoms: N_7  and  C_2 
REMARK       I    between atoms: N_8  and  C_4 
REMARK       I    between atoms: C_11  and  N_7 
REMARK    3  A    between atoms: C_13  and  N_8 
REMARK    4  A    between atoms: C_22  and  C_11 
ROOT
ATOM      1  C   UNL d   1      -2.490   1.317   0.000  0.00  0.00     0.175 A 
ATOM      2  C   UNL d   1      -2.252   2.054   0.000  0.00  0.00     0.114 A 
ATOM      3  O   UNL d   1      -3.262   1.317   0.000  0.00  0.00    -0.301 OA
ATOM      4  C   UNL d   1      -2.876   2.510   0.000  0.00  0.00     0.043 A 
ATOM      5  C   UNL d   1      -3.503   2.054   0.000  0.00  0.00     0.102 A 
ATOM      6  C   UNL d   1      -2.958   3.273   0.000  0.00  0.00     0.004 A 
ATOM      7  C   UNL d   1      -4.205   2.362   0.000  0.00  0.00     0.025 A 
ATOM      8  C   UNL d   1      -3.667   3.585   0.000  0.00  0.00     0.000 A 
ATOM      9  C   UNL d   1      -4.287   3.129   0.000  0.00  0.00     0.002 A 
ENDROOT
BRANCH   1  10
ATOM     10  C   UNL d   1      -2.042   0.698   0.000  0.00  0.00     0.303 C 
ATOM     11  N   UNL d   1      -2.767  -0.612   0.000  0.00  0.00    -0.206 NA
ATOM     12  O   UNL d   1      -1.274   0.674   0.000  0.00  0.00    -0.263 OA
BRANCH  11  13
ATOM     13  C   UNL d   1      -3.597  -0.624   0.000  0.00  0.00     0.087 A 
ATOM     14  C   UNL d   1      -4.022   0.090   0.000  0.00  0.00     0.046 A 
ATOM     15  C   UNL d   1      -4.848   0.078   0.000  0.00  0.00     0.124 A 
ATOM     16  O   UNL d   1      -5.280   0.791   0.000  0.00  0.00    -0.301 OA
ATOM     17  C   UNL d   1      -5.269  -0.647   0.000  0.00  0.00     0.123 A 
ATOM     18  C   UNL d   1      -6.107   0.779   0.000  0.00  0.00     0.149 A 
ATOM     19  C   UNL d   1      -6.516   0.059   0.000  0.00  0.00     0.149 A 
ATOM     20  O   UNL d   1      -6.083  -0.666   0.000  0.00  0.00    -0.301 OA
ATOM     21  C   UNL d   1      -4.836  -1.360   0.000  0.00  0.00     0.028 A 
ATOM     22  C   UNL d   1      -3.994  -1.348   0.000  0.00  0.00     0.021 A 
ENDBRANCH  11  13
ENDBRANCH   1  10
BRANCH   2  23
ATOM     23  N   UNL d   1      -1.516   2.288   0.000  0.00  0.00    -0.206 NA
ATOM     24  C   UNL d   1      -0.900   1.730   0.000  0.00  0.00     0.279 C 
ATOM     25  O   UNL d   1      -1.076   0.912   0.000  0.00  0.00    -0.265 OA
BRANCH  24  26
ATOM     26  C   UNL d   1      -0.105   1.988   0.000  0.00  0.00     0.062 C 
ATOM     27  C   UNL d   1       0.507   1.434   0.000  0.00  0.00     0.005 C 
ENDBRANCH  24  26
ENDBRANCH   2  23
TORSDOF 4
