REMARK  4 active torsions:
REMARK  status: ('A' for Active; 'I' for Inactive)
REMARK    1  A    between atoms: C_16  and  N_3 
REMARK    2  A    between atoms: S_12  and  C_6 
REMARK    3  A    between atoms: C_10  and  C_14 
REMARK       I    between atoms: N_11  and  C_10 
REMARK    4  A    between atoms: C_14  and  S_12 
ROOT
ATOM      1  C   UNL d   1      -1.980  -0.461   0.000  0.00  0.00     0.155 A 
ATOM      2  C   UNL d   1      -2.126   0.357   0.000  0.00  0.00     0.107 A 
ATOM      3  N   UNL d   1      -0.581  -0.216   0.000  0.00  0.00    -0.252 N 
ATOM      4  C   UNL d   1      -1.216  -0.739   0.000  0.00  0.00     0.285 A 
ATOM      5  N   UNL d   1      -1.490   0.880   0.000  0.00  0.00    -0.220 NA
ATOM      6  C   UNL d   1      -0.718   0.594   0.000  0.00  0.00     0.182 A 
ATOM      7  N   UNL d   1      -2.711  -0.839   0.000  0.00  0.00    -0.239 NA
ATOM      8  C   UNL d   1      -2.935   0.469   0.000  0.00  0.00     0.037 A 
ATOM      9  C   UNL d   1      -3.301  -0.266   0.000  0.00  0.00     0.083 A 
ATOM     10  O   UNL d   1      -1.079  -1.557   0.000  0.00  0.00    -0.265 OA
ATOM     11  C   UNL d   1      -3.388   1.154   0.000  0.00  0.00     0.003 A 
ATOM     12  C   UNL d   1      -4.119  -0.316   0.000  0.00  0.00     0.019 A 
ATOM     13  C   UNL d   1      -4.206   1.104   0.000  0.00  0.00     0.000 A 
ATOM     14  C   UNL d   1      -4.567   0.361   0.000  0.00  0.00     0.002 A 
ENDROOT
BRANCH   6  15
ATOM     15  S   UNL d   1      -0.822   3.321   0.000  0.00  0.00    -0.044 SA
BRANCH  15  16
ATOM     16  C   UNL d   1      -0.037   3.820   0.000  0.00  0.00     0.099 C 
BRANCH  16  17
ATOM     17  C   UNL d   1       0.785   3.384   0.000  0.00  0.00     0.272 C 
ATOM     18  N   UNL d   1       1.569   3.870   0.000  0.00  0.00    -0.267 N 
ATOM     19  C   UNL d   1       2.371   3.446   0.000  0.00  0.00     0.110 A 
ATOM     20  C   UNL d   1       1.524   4.787   0.000  0.00  0.00     0.110 A 
ATOM     21  C   UNL d   1       3.164   3.932   0.000  0.00  0.00     0.142 A 
ATOM     22  O   UNL d   1       3.131   4.849   0.000  0.00  0.00    -0.300 OA
ATOM     23  C   UNL d   1       2.308   5.285   0.000  0.00  0.00     0.142 A 
ATOM     24  O   UNL d   1       0.826   2.462   0.000  0.00  0.00    -0.266 OA
ENDBRANCH  16  17
ENDBRANCH  15  16
ENDBRANCH   6  15
BRANCH   3  25
ATOM     25  C   UNL d   1       0.291  -0.540   0.000  0.00  0.00     0.085 C 
ATOM     26  C   UNL d   1       1.001   0.050   0.000  0.00  0.00     0.021 C 
ENDBRANCH   3  25
TORSDOF 4
