REMARK  7 active torsions:
REMARK  status: ('A' for Active; 'I' for Inactive)
REMARK    1  A    between atoms: C_10  and  N_3 
REMARK    2  A    between atoms: C_12  and  C_10 
REMARK    3  A    between atoms: C_16  and  N_11 
REMARK    4  A    between atoms: O_29  and  C_15 
REMARK    5  A    between atoms: C_27  and  C_16 
REMARK    6  A    between atoms: O_30  and  C_17 
REMARK    7  A    between atoms: C_23  and  C_27 
ROOT
ATOM      1  C   UNL d   1       2.641  -1.623   0.000  0.00  0.00     0.191 A 
ATOM      2  C   UNL d   1       2.641  -0.786   0.000  0.00  0.00     0.173 A 
ATOM      3  N   UNL d   1       1.204  -0.786   0.000  0.00  0.00    -0.224 N 
ATOM      4  N   UNL d   1       3.423  -1.888   0.000  0.00  0.00    -0.042 NA
ATOM      5  C   UNL d   1       4.092  -1.218   0.000  0.00  0.00     0.722 A 
ATOM      6  N   UNL d   1       1.930  -2.055   0.000  0.00  0.00    -0.240 N 
ATOM      7  C   UNL d   1       1.204  -1.623   0.000  0.00  0.00     0.343 A 
ATOM      8  C   UNL d   1       1.930  -0.381   0.000  0.00  0.00     0.288 A 
ATOM      9  N   UNL d   1       3.423  -0.549   0.000  0.00  0.00    -0.132 N 
ATOM     10  N   UNL d   1       4.874  -0.967   0.000  0.00  0.00    -0.139 N 
ATOM     11  O   UNL d   1       0.479  -2.055   0.000  0.00  0.00    -0.245 OA
ATOM     12  O   UNL d   1       1.930   0.456   0.000  0.00  0.00    -0.265 OA
ATOM     13  C   UNL d   1       3.674   0.233   0.000  0.00  0.00     0.100 A 
ATOM     14  C   UNL d   1       1.930  -2.893   0.000  0.00  0.00     0.105 C 
ATOM     15  C   UNL d   1       4.483   0.456   0.000  0.00  0.00     0.039 A 
ATOM     16  C   UNL d   1       5.097  -0.158   0.000  0.00  0.00     0.100 A 
ENDROOT
BRANCH  10  17
ATOM     17  C   UNL d   1       5.664  -1.177   0.000  0.00  0.00     0.098 C 
BRANCH  17  18
ATOM     18  C   UNL d   1       5.873  -1.967   0.000  0.00  0.00     0.020 C 
BRANCH  18  19
ATOM     19  C   UNL d   1       6.659  -2.176   0.000  0.00  0.00     0.004 A 
ATOM     20  C   UNL d   1       7.231  -1.595   0.000  0.00  0.00     0.026 A 
ATOM     21  C   UNL d   1       8.022  -1.800   0.000  0.00  0.00     0.116 A 
ATOM     22  C   UNL d   1       8.236  -2.595   0.000  0.00  0.00     0.116 A 
ATOM     23  C   UNL d   1       7.664  -3.172   0.000  0.00  0.00     0.026 A 
ATOM     24  C   UNL d   1       6.869  -2.962   0.000  0.00  0.00     0.002 A 
BRANCH  21  25
ATOM     25  O   UNL d   1       8.598  -1.218   0.000  0.00  0.00    -0.326 OA
ATOM     26  C   UNL d   1       8.389  -0.437   0.000  0.00  0.00     0.181 C 
ENDBRANCH  21  25
BRANCH  22  27
ATOM     27  O   UNL d   1       9.054  -2.595   0.000  0.00  0.00    -0.326 OA
ATOM     28  C   UNL d   1       9.463  -3.297   0.000  0.00  0.00     0.181 C 
ENDBRANCH  22  27
ENDBRANCH  18  19
ENDBRANCH  17  18
ENDBRANCH  10  17
BRANCH   3  29
ATOM     29  C   UNL d   1       0.781  -0.060   0.000  0.00  0.00     0.090 C 
BRANCH  29  30
ATOM     30  C   UNL d   1      -0.051  -0.070   0.000  0.00  0.00     0.045 A 
ATOM     31  C   UNL d   1      -0.470   0.656   0.000  0.00  0.00     0.141 A 
ATOM     32  F   UNL d   1      -0.056   1.381   0.000  0.00  0.00    -0.204 F 
ATOM     33  C   UNL d   1      -1.307   0.651   0.000  0.00  0.00     0.030 A 
ATOM     34  C   UNL d   1      -1.716  -0.074   0.000  0.00  0.00     0.002 A 
ATOM     35  C   UNL d   1      -1.293  -0.795   0.000  0.00  0.00     0.000 A 
ATOM     36  C   UNL d   1      -0.460  -0.786   0.000  0.00  0.00     0.004 A 
ENDBRANCH  29  30
ENDBRANCH   3  29
TORSDOF 7
