REMARK  3 active torsions:
REMARK  status: ('A' for Active; 'I' for Inactive)
REMARK    1  A    between atoms: C_12  and  C_4 
REMARK       I    between atoms: C_6  and  N_11 
REMARK    2  A    between atoms: C_7  and  C_6 
REMARK    3  A    between atoms: N_11  and  C_18 
ROOT
ATOM      1  C   UNL d   1      -2.976   7.541   0.000  0.00  0.00     0.019 A 
ATOM      2  C   UNL d   1      -3.591   6.990   0.000  0.00  0.00     0.003 A 
ATOM      3  C   UNL d   1      -2.200   7.288   0.000  0.00  0.00     0.003 A 
ATOM      4  C   UNL d   1      -2.645   5.929   0.000  0.00  0.00     0.085 A 
ATOM      5  C   UNL d   1      -2.034   6.480   0.000  0.00  0.00     0.019 A 
ATOM      6  C   UNL d   1      -3.426   6.191   0.000  0.00  0.00     0.019 A 
ENDROOT
BRANCH   1   7
ATOM      7  C   UNL d   1      -3.141   8.354   0.000  0.00  0.00     0.101 A 
ATOM      8  N   UNL d   1      -3.894   8.657   0.000  0.00  0.00    -0.221 NA
ATOM      9  C   UNL d   1      -3.844   9.479   0.000  0.00  0.00     0.179 A 
ATOM     10  N   UNL d   1      -3.054   9.690   0.000  0.00  0.00    -0.282 N 
ATOM     11  S   UNL d   1      -4.294  10.172   0.000  0.00  0.00    -0.048 SA
ATOM     12  C   UNL d   1      -2.613   8.988   0.000  0.00  0.00     0.101 A 
ATOM     13  C   UNL d   1      -3.003  10.512   0.000  0.00  0.00     0.089 A 
ATOM     14  C   UNL d   1      -3.775  10.806   0.000  0.00  0.00     0.057 A 
ENDBRANCH   1   7
BRANCH   4  15
ATOM     15  N   UNL d   1      -2.480   5.116   0.000  0.00  0.00    -0.208 NA
ATOM     16  C   UNL d   1      -1.695   4.854   0.000  0.00  0.00     0.279 C 
ATOM     17  O   UNL d   1      -1.529   4.051   0.000  0.00  0.00    -0.265 OA
BRANCH  16  18
ATOM     18  C   UNL d   1      -1.084   5.405   0.000  0.00  0.00     0.058 A 
ATOM     19  C   UNL d   1      -0.298   5.144   0.000  0.00  0.00     0.005 A 
ATOM     20  C   UNL d   1      -0.464   5.957   0.000  0.00  0.00     0.005 A 
ENDBRANCH  16  18
ENDBRANCH   4  15
TORSDOF 3
