REMARK  5 active torsions:
REMARK  status: ('A' for Active; 'I' for Inactive)
REMARK    1  A    between atoms: S_6  and  C_3 
REMARK    2  A    between atoms: C_10  and  C_4 
REMARK    3  A    between atoms: C_5  and  C_7 
REMARK    4  A    between atoms: C_9  and  C_5 
REMARK    5  A    between atoms: C_7  and  S_6 
ROOT
ATOM      1  N   UNL d   1      -3.883   6.280   0.000  0.00  0.00    -0.148 NA
ATOM      2  N   UNL d   1      -3.879   5.453   0.000  0.00  0.00    -0.141 NA
ATOM      3  C   UNL d   1      -3.165   5.040   0.000  0.00  0.00     0.133 A 
ATOM      4  C   UNL d   1      -3.165   6.693   0.000  0.00  0.00     0.103 A 
ATOM      5  C   UNL d   1      -2.451   6.288   0.000  0.00  0.00     0.023 A 
ATOM      6  C   UNL d   1      -2.443   5.465   0.000  0.00  0.00     0.029 A 
ENDROOT
BRANCH   3   7
ATOM      7  S   UNL d   1      -3.165   4.221   0.000  0.00  0.00    -0.062 SA
BRANCH   7   8
ATOM      8  C   UNL d   1      -3.879   3.808   0.000  0.00  0.00     0.079 C 
BRANCH   8   9
ATOM      9  C   UNL d   1      -4.605   4.225   0.000  0.00  0.00     0.202 C 
ATOM     10  O   UNL d   1      -4.605   5.040   0.000  0.00  0.00    -0.286 OA
BRANCH   9  11
ATOM     11  C   UNL d   1      -5.311   3.808   0.000  0.00  0.00     0.040 A 
ATOM     12  C   UNL d   1      -6.029   4.213   0.000  0.00  0.00     0.003 A 
ATOM     13  C   UNL d   1      -6.743   3.804   0.000  0.00  0.00     0.000 A 
ATOM     14  C   UNL d   1      -6.731   2.969   0.000  0.00  0.00     0.000 A 
ATOM     15  C   UNL d   1      -6.012   2.564   0.000  0.00  0.00     0.000 A 
ATOM     16  C   UNL d   1      -5.307   2.990   0.000  0.00  0.00     0.003 A 
ENDBRANCH   9  11
ENDBRANCH   8   9
ENDBRANCH   7   8
ENDBRANCH   3   7
BRANCH   4  17
ATOM     17  C   UNL d   1      -3.169   7.520   0.000  0.00  0.00     0.019 A 
ATOM     18  C   UNL d   1      -2.451   7.941   0.000  0.00  0.00     0.002 A 
ATOM     19  C   UNL d   1      -2.455   8.772   0.000  0.00  0.00     0.000 A 
ATOM     20  C   UNL d   1      -3.177   9.186   0.000  0.00  0.00     0.000 A 
ATOM     21  C   UNL d   1      -3.883   8.772   0.000  0.00  0.00     0.000 A 
ATOM     22  C   UNL d   1      -3.891   7.941   0.000  0.00  0.00     0.002 A 
ENDBRANCH   4  17
TORSDOF 5
