REMARK  3 active torsions:
REMARK  status: ('A' for Active; 'I' for Inactive)
REMARK    1  A    between atoms: C_9  and  C_4 
REMARK       I    between atoms: C_6  and  N_8 
REMARK    2  A    between atoms: C_13  and  C_6 
REMARK    3  A    between atoms: N_8  and  C_16 
ROOT
ATOM      1  C   UNL d   1      -2.982   7.556   0.000  0.00  0.00     0.019 A 
ATOM      2  C   UNL d   1      -3.598   7.017   0.000  0.00  0.00     0.003 A 
ATOM      3  C   UNL d   1      -2.204   7.302   0.000  0.00  0.00     0.003 A 
ATOM      4  C   UNL d   1      -2.650   5.950   0.000  0.00  0.00     0.085 A 
ATOM      5  C   UNL d   1      -2.038   6.493   0.000  0.00  0.00     0.019 A 
ATOM      6  C   UNL d   1      -3.433   6.212   0.000  0.00  0.00     0.019 A 
ENDROOT
BRANCH   1   7
ATOM      7  C   UNL d   1      -3.147   8.370   0.000  0.00  0.00     0.101 A 
ATOM      8  N   UNL d   1      -3.902   8.674   0.000  0.00  0.00    -0.221 NA
ATOM      9  C   UNL d   1      -3.851   9.497   0.000  0.00  0.00     0.179 A 
ATOM     10  N   UNL d   1      -3.060   9.709   0.000  0.00  0.00    -0.282 N 
ATOM     11  S   UNL d   1      -4.302  10.192   0.000  0.00  0.00    -0.048 SA
ATOM     12  C   UNL d   1      -2.618   9.005   0.000  0.00  0.00     0.101 A 
ATOM     13  C   UNL d   1      -3.009  10.533   0.000  0.00  0.00     0.089 A 
ATOM     14  C   UNL d   1      -3.782  10.827   0.000  0.00  0.00     0.057 A 
ENDBRANCH   1   7
BRANCH   4  15
ATOM     15  N   UNL d   1      -2.485   5.135   0.000  0.00  0.00    -0.208 NA
ATOM     16  C   UNL d   1      -1.698   4.864   0.000  0.00  0.00     0.279 C 
ATOM     17  O   UNL d   1      -1.532   4.068   0.000  0.00  0.00    -0.265 OA
BRANCH  16  18
ATOM     18  C   UNL d   1      -1.086   5.416   0.000  0.00  0.00     0.058 A 
ATOM     19  C   UNL d   1      -1.252   6.226   0.000  0.00  0.00     0.005 A 
ATOM     20  C   UNL d   1      -0.534   6.631   0.000  0.00  0.00     0.000 A 
ATOM     21  C   UNL d   1       0.074   6.088   0.000  0.00  0.00     0.000 A 
ATOM     22  C   UNL d   1      -0.262   5.328   0.000  0.00  0.00     0.005 A 
ENDBRANCH  16  18
ENDBRANCH   4  15
TORSDOF 3
