REMARK  4 active torsions:
REMARK  status: ('A' for Active; 'I' for Inactive)
REMARK    1  A    between atoms: C_4  and  S_1 
REMARK    2  A    between atoms: N_8  and  S_1 
REMARK    3  A    between atoms: C_5  and  C_11 
REMARK    4  A    between atoms: C_16  and  N_8 
ROOT
ATOM      1  C   UNL d   1      -3.869   6.276   0.000  0.00  0.00     0.021 A 
ATOM      2  C   UNL d   1      -3.157   5.027   0.000  0.00  0.00     0.094 A 
ATOM      3  C   UNL d   1      -3.869   5.439   0.000  0.00  0.00     0.021 A 
ATOM      4  C   UNL d   1      -3.157   6.684   0.000  0.00  0.00     0.002 A 
ATOM      5  C   UNL d   1      -2.432   6.276   0.000  0.00  0.00     0.002 A 
ATOM      6  C   UNL d   1      -2.432   5.439   0.000  0.00  0.00     0.020 A 
ENDROOT
BRANCH   2   7
ATOM      7  N   UNL d   1      -3.157   4.210   0.000  0.00  0.00    -0.158 NA
BRANCH   7   8
ATOM      8  S   UNL d   1      -3.869   3.798   0.000  0.00  0.00     0.287 S 
ATOM      9  O   UNL d   1      -4.281   4.502   0.000  0.00  0.00    -0.198 OA
ATOM     10  O   UNL d   1      -4.593   3.394   0.000  0.00  0.00    -0.198 OA
BRANCH   8  11
ATOM     11  C   UNL d   1      -3.461   3.082   0.000  0.00  0.00     0.133 A 
ATOM     12  C   UNL d   1      -3.881   2.374   0.000  0.00  0.00     0.155 A 
ATOM     13  C   UNL d   1      -3.482   1.657   0.000  0.00  0.00     0.060 A 
ATOM     14  F   UNL d   1      -4.706   2.382   0.000  0.00  0.00    -0.203 F 
ATOM     15  C   UNL d   1      -2.649   1.645   0.000  0.00  0.00     0.142 A 
ATOM     16  C   UNL d   1      -2.232   2.357   0.000  0.00  0.00     0.030 A 
ATOM     17  F   UNL d   1      -2.245   0.924   0.000  0.00  0.00    -0.204 F 
ATOM     18  C   UNL d   1      -2.632   3.069   0.000  0.00  0.00     0.018 A 
ENDBRANCH   8  11
ENDBRANCH   7   8
ENDBRANCH   2   7
BRANCH   1  19
ATOM     19  C   UNL d   1      -4.581   6.688   0.000  0.00  0.00     0.101 A 
ATOM     20  N   UNL d   1      -5.331   6.351   0.000  0.00  0.00    -0.221 NA
ATOM     21  C   UNL d   1      -5.893   6.963   0.000  0.00  0.00     0.179 A 
ATOM     22  S   UNL d   1      -6.688   7.138   0.000  0.00  0.00    -0.048 SA
ATOM     23  N   UNL d   1      -5.468   7.684   0.000  0.00  0.00    -0.282 N 
ATOM     24  C   UNL d   1      -6.776   7.959   0.000  0.00  0.00     0.057 A 
ATOM     25  C   UNL d   1      -6.022   8.300   0.000  0.00  0.00     0.089 A 
ATOM     26  C   UNL d   1      -4.660   7.500   0.000  0.00  0.00     0.101 A 
ENDBRANCH   1  19
TORSDOF 4
