REMARK  3 active torsions:
REMARK  status: ('A' for Active; 'I' for Inactive)
REMARK    1  A    between atoms: C_11  and  C_3 
REMARK       I    between atoms: C_7  and  N_9 
REMARK    2  A    between atoms: C_8  and  C_7 
REMARK    3  A    between atoms: N_9  and  C_13 
ROOT
ATOM      1  C   UNL d   1      -4.258   6.412   0.000  0.00  0.00     0.021 A 
ATOM      2  C   UNL d   1      -3.543   5.175   0.000  0.00  0.00     0.085 A 
ATOM      3  C   UNL d   1      -4.258   5.587   0.000  0.00  0.00     0.021 A 
ATOM      4  C   UNL d   1      -3.543   6.825   0.000  0.00  0.00     0.002 A 
ATOM      5  C   UNL d   1      -2.828   6.412   0.000  0.00  0.00     0.002 A 
ATOM      6  C   UNL d   1      -2.828   5.587   0.000  0.00  0.00     0.019 A 
ENDROOT
BRANCH   2   7
ATOM      7  N   UNL d   1      -3.543   4.354   0.000  0.00  0.00    -0.207 NA
ATOM      8  C   UNL d   1      -4.249   3.942   0.000  0.00  0.00     0.297 C 
ATOM      9  O   UNL d   1      -4.973   4.354   0.000  0.00  0.00    -0.264 OA
BRANCH   8  10
ATOM     10  C   UNL d   1      -4.249   3.117   0.000  0.00  0.00     0.139 A 
ATOM     11  N   UNL d   1      -3.543   2.704   0.000  0.00  0.00    -0.241 NA
ATOM     12  C   UNL d   1      -3.543   1.879   0.000  0.00  0.00     0.082 A 
ATOM     13  C   UNL d   1      -2.828   1.467   0.000  0.00  0.00     0.019 A 
ATOM     14  C   UNL d   1      -4.249   1.467   0.000  0.00  0.00     0.018 A 
ATOM     15  C   UNL d   1      -2.828   0.642   0.000  0.00  0.00     0.002 A 
ATOM     16  C   UNL d   1      -3.543   0.229   0.000  0.00  0.00     0.000 A 
ATOM     17  C   UNL d   1      -4.249   0.642   0.000  0.00  0.00     0.002 A 
ATOM     18  C   UNL d   1      -4.973   1.879   0.000  0.00  0.00     0.003 A 
ATOM     19  C   UNL d   1      -4.973   2.704   0.000  0.00  0.00     0.024 A 
ENDBRANCH   8  10
ENDBRANCH   2   7
BRANCH   1  20
ATOM     20  C   UNL d   1      -4.973   6.825   0.000  0.00  0.00     0.101 A 
ATOM     21  N   UNL d   1      -5.743   6.522   0.000  0.00  0.00    -0.221 NA
ATOM     22  C   UNL d   1      -6.252   7.155   0.000  0.00  0.00     0.179 A 
ATOM     23  N   UNL d   1      -5.812   7.851   0.000  0.00  0.00    -0.282 N 
ATOM     24  S   UNL d   1      -7.045   7.361   0.000  0.00  0.00    -0.048 SA
ATOM     25  C   UNL d   1      -5.014   7.645   0.000  0.00  0.00     0.101 A 
ATOM     26  C   UNL d   1      -6.348   8.488   0.000  0.00  0.00     0.089 A 
ATOM     27  C   UNL d   1      -7.100   8.181   0.000  0.00  0.00     0.057 A 
ENDBRANCH   1  20
TORSDOF 3
