REMARK  4 active torsions:
REMARK  status: ('A' for Active; 'I' for Inactive)
REMARK       I    between atoms: N_2  and  C_3 
REMARK    1  A    between atoms: C_3  and  C_8 
REMARK    2  A    between atoms: S_7  and  C_5 
REMARK    3  A    between atoms: C_10  and  C_6 
REMARK    4  A    between atoms: C_8  and  S_7 
ROOT
ATOM      1  N   UNL d   1      -3.875   6.266   0.000  0.00  0.00    -0.148 NA
ATOM      2  N   UNL d   1      -3.870   5.441   0.000  0.00  0.00    -0.141 NA
ATOM      3  C   UNL d   1      -3.158   5.029   0.000  0.00  0.00     0.133 A 
ATOM      4  C   UNL d   1      -3.158   6.678   0.000  0.00  0.00     0.103 A 
ATOM      5  C   UNL d   1      -2.446   6.274   0.000  0.00  0.00     0.023 A 
ATOM      6  C   UNL d   1      -2.437   5.454   0.000  0.00  0.00     0.029 A 
ENDROOT
BRANCH   3   7
ATOM      7  S   UNL d   1      -3.158   4.212   0.000  0.00  0.00    -0.061 SA
BRANCH   7   8
ATOM      8  C   UNL d   1      -3.870   3.800   0.000  0.00  0.00     0.098 C 
BRANCH   8   9
ATOM      9  C   UNL d   1      -4.583   4.212   0.000  0.00  0.00     0.271 C 
ATOM     10  N   UNL d   1      -5.295   3.795   0.000  0.00  0.00    -0.272 N 
ATOM     11  C   UNL d   1      -6.003   4.199   0.000  0.00  0.00     0.083 A 
ATOM     12  C   UNL d   1      -5.283   2.970   0.000  0.00  0.00     0.083 A 
ATOM     13  C   UNL d   1      -6.712   3.795   0.000  0.00  0.00     0.019 A 
ATOM     14  C   UNL d   1      -6.716   2.962   0.000  0.00  0.00     0.003 A 
ATOM     15  C   UNL d   1      -5.995   2.558   0.000  0.00  0.00     0.019 A 
ATOM     16  O   UNL d   1      -4.595   5.029   0.000  0.00  0.00    -0.266 OA
ENDBRANCH   8   9
ENDBRANCH   7   8
ENDBRANCH   3   7
BRANCH   4  17
ATOM     17  C   UNL d   1      -3.162   7.503   0.000  0.00  0.00     0.019 A 
ATOM     18  C   UNL d   1      -2.446   7.924   0.000  0.00  0.00     0.002 A 
ATOM     19  C   UNL d   1      -2.450   8.753   0.000  0.00  0.00     0.000 A 
ATOM     20  C   UNL d   1      -3.170   9.166   0.000  0.00  0.00     0.000 A 
ATOM     21  C   UNL d   1      -3.875   8.753   0.000  0.00  0.00     0.000 A 
ATOM     22  C   UNL d   1      -3.883   7.924   0.000  0.00  0.00     0.002 A 
ENDBRANCH   4  17
TORSDOF 4
