REMARK  3 active torsions:
REMARK  status: ('A' for Active; 'I' for Inactive)
REMARK    1  A    between atoms: C_12  and  C_3 
REMARK       I    between atoms: C_6  and  N_9 
REMARK    2  A    between atoms: C_7  and  C_6 
REMARK    3  A    between atoms: N_9  and  C_22 
ROOT
ATOM      1  C   UNL d   1      -3.557   6.811   0.000  0.00  0.00     0.019 A 
ATOM      2  C   UNL d   1      -4.272   6.398   0.000  0.00  0.00     0.003 A 
ATOM      3  C   UNL d   1      -2.842   6.398   0.000  0.00  0.00     0.003 A 
ATOM      4  C   UNL d   1      -3.557   5.161   0.000  0.00  0.00     0.085 A 
ATOM      5  C   UNL d   1      -2.842   5.573   0.000  0.00  0.00     0.019 A 
ATOM      6  C   UNL d   1      -4.272   5.573   0.000  0.00  0.00     0.019 A 
ENDROOT
BRANCH   4   7
ATOM      7  N   UNL d   1      -3.557   4.340   0.000  0.00  0.00    -0.208 NA
ATOM      8  C   UNL d   1      -4.263   3.928   0.000  0.00  0.00     0.279 C 
ATOM      9  O   UNL d   1      -4.987   4.340   0.000  0.00  0.00    -0.265 OA
BRANCH   8  10
ATOM     10  C   UNL d   1      -4.263   3.103   0.000  0.00  0.00     0.060 A 
ATOM     11  C   UNL d   1      -4.973   2.690   0.000  0.00  0.00     0.031 A 
ATOM     12  C   UNL d   1      -4.973   1.865   0.000  0.00  0.00     0.119 A 
ATOM     13  O   UNL d   1      -5.592   1.315   0.000  0.00  0.00    -0.300 OA
ATOM     14  C   UNL d   1      -4.263   1.453   0.000  0.00  0.00     0.119 A 
ATOM     15  C   UNL d   1      -5.262   0.559   0.000  0.00  0.00     0.304 A 
ATOM     16  O   UNL d   1      -4.437   0.642   0.000  0.00  0.00    -0.300 OA
ATOM     17  C   UNL d   1      -3.547   1.865   0.000  0.00  0.00     0.026 A 
ATOM     18  C   UNL d   1      -3.547   2.690   0.000  0.00  0.00     0.007 A 
ENDBRANCH   8  10
ENDBRANCH   4   7
BRANCH   1  19
ATOM     19  C   UNL d   1      -3.557   7.636   0.000  0.00  0.00     0.101 A 
ATOM     20  N   UNL d   1      -4.194   8.145   0.000  0.00  0.00    -0.221 NA
ATOM     21  C   UNL d   1      -3.900   8.924   0.000  0.00  0.00     0.179 A 
ATOM     22  N   UNL d   1      -3.094   8.896   0.000  0.00  0.00    -0.282 N 
ATOM     23  S   UNL d   1      -4.134   9.712   0.000  0.00  0.00    -0.048 SA
ATOM     24  C   UNL d   1      -2.869   8.099   0.000  0.00  0.00     0.101 A 
ATOM     25  C   UNL d   1      -2.819   9.671   0.000  0.00  0.00     0.089 A 
ATOM     26  C   UNL d   1      -3.447  10.166   0.000  0.00  0.00     0.057 A 
ENDBRANCH   1  19
TORSDOF 3
