REMARK  5 active torsions:
REMARK  status: ('A' for Active; 'I' for Inactive)
REMARK    1  A    between atoms: C_2  and  C_4 
REMARK    2  A    between atoms: C_4  and  C_10 
REMARK    3  A    between atoms: S_8  and  C_6 
REMARK    4  A    between atoms: C_14  and  C_7 
REMARK    5  A    between atoms: C_10  and  S_8 
ROOT
ATOM      1  N   UNL d   1      -3.875   6.267   0.000  0.00  0.00    -0.148 NA
ATOM      2  N   UNL d   1      -3.871   5.442   0.000  0.00  0.00    -0.141 NA
ATOM      3  C   UNL d   1      -3.158   5.029   0.000  0.00  0.00     0.133 A 
ATOM      4  C   UNL d   1      -3.158   6.679   0.000  0.00  0.00     0.103 A 
ATOM      5  C   UNL d   1      -2.446   6.275   0.000  0.00  0.00     0.023 A 
ATOM      6  C   UNL d   1      -2.438   5.454   0.000  0.00  0.00     0.029 A 
ENDROOT
BRANCH   3   7
ATOM      7  S   UNL d   1      -3.158   4.213   0.000  0.00  0.00    -0.062 SA
BRANCH   7   8
ATOM      8  C   UNL d   1      -3.871   3.800   0.000  0.00  0.00     0.079 C 
BRANCH   8   9
ATOM      9  C   UNL d   1      -4.583   4.204   0.000  0.00  0.00     0.208 C 
ATOM     10  O   UNL d   1      -4.583   5.029   0.000  0.00  0.00    -0.285 OA
BRANCH   9  11
ATOM     11  C   UNL d   1      -5.296   3.800   0.000  0.00  0.00     0.069 A 
ATOM     12  S   UNL d   1      -5.383   2.983   0.000  0.00  0.00    -0.083 SA
ATOM     13  C   UNL d   1      -6.188   2.812   0.000  0.00  0.00     0.035 A 
ATOM     14  C   UNL d   1      -6.592   3.533   0.000  0.00  0.00     0.008 A 
ATOM     15  C   UNL d   1      -6.042   4.138   0.000  0.00  0.00     0.010 A 
ENDBRANCH   9  11
ENDBRANCH   8   9
ENDBRANCH   7   8
ENDBRANCH   3   7
BRANCH   4  16
ATOM     16  C   UNL d   1      -3.163   7.504   0.000  0.00  0.00     0.019 A 
ATOM     17  C   UNL d   1      -2.446   7.925   0.000  0.00  0.00     0.002 A 
ATOM     18  C   UNL d   1      -2.450   8.754   0.000  0.00  0.00     0.000 A 
ATOM     19  C   UNL d   1      -3.171   9.167   0.000  0.00  0.00     0.000 A 
ATOM     20  C   UNL d   1      -3.875   8.754   0.000  0.00  0.00     0.000 A 
ATOM     21  C   UNL d   1      -3.883   7.925   0.000  0.00  0.00     0.002 A 
ENDBRANCH   4  16
TORSDOF 5
