REMARK  5 active torsions:
REMARK  status: ('A' for Active; 'I' for Inactive)
REMARK    1  A    between atoms: C_5  and  C_18 
REMARK       I    between atoms: N_9  and  C_5 
REMARK    2  A    between atoms: S_12  and  C_6 
REMARK    3  A    between atoms: C_15  and  C_7 
REMARK    4  A    between atoms: C_10  and  N_9 
REMARK    5  A    between atoms: C_18  and  S_12 
ROOT
ATOM      1  C   UNL d   1      -3.870   3.799   0.000  0.00  0.00     0.099 C 
ENDROOT
BRANCH   1   2
ATOM      2  C   UNL d   1      -4.595   4.212   0.000  0.00  0.00     0.286 C 
ATOM      3  N   UNL d   1      -5.299   3.799   0.000  0.00  0.00    -0.207 NA
ATOM      4  O   UNL d   1      -4.595   5.028   0.000  0.00  0.00    -0.265 OA
BRANCH   3   5
ATOM      5  C   UNL d   1      -6.003   4.203   0.000  0.00  0.00     0.087 A 
ATOM      6  C   UNL d   1      -6.003   5.028   0.000  0.00  0.00     0.046 A 
ATOM      7  C   UNL d   1      -6.715   5.441   0.000  0.00  0.00     0.124 A 
ATOM      8  O   UNL d   1      -6.728   6.261   0.000  0.00  0.00    -0.301 OA
ATOM      9  C   UNL d   1      -7.436   5.016   0.000  0.00  0.00     0.123 A 
ATOM     10  C   UNL d   1      -7.453   6.665   0.000  0.00  0.00     0.149 A 
ATOM     11  C   UNL d   1      -8.165   6.240   0.000  0.00  0.00     0.149 A 
ATOM     12  O   UNL d   1      -8.152   5.415   0.000  0.00  0.00    -0.301 OA
ATOM     13  C   UNL d   1      -7.415   4.191   0.000  0.00  0.00     0.028 A 
ATOM     14  C   UNL d   1      -6.711   3.795   0.000  0.00  0.00     0.021 A 
ENDBRANCH   3   5
ENDBRANCH   1   2
BRANCH   1  15
ATOM     15  S   UNL d   1      -3.158   4.212   0.000  0.00  0.00    -0.061 SA
BRANCH  15  16
ATOM     16  C   UNL d   1      -3.158   5.028   0.000  0.00  0.00     0.133 A 
ATOM     17  N   UNL d   1      -3.870   5.441   0.000  0.00  0.00    -0.141 NA
ATOM     18  N   UNL d   1      -3.874   6.265   0.000  0.00  0.00    -0.148 NA
ATOM     19  C   UNL d   1      -3.158   6.678   0.000  0.00  0.00     0.103 A 
ATOM     20  C   UNL d   1      -2.445   6.274   0.000  0.00  0.00     0.023 A 
ATOM     21  C   UNL d   1      -2.437   5.453   0.000  0.00  0.00     0.029 A 
BRANCH  19  22
ATOM     22  C   UNL d   1      -3.162   7.503   0.000  0.00  0.00     0.019 A 
ATOM     23  C   UNL d   1      -2.445   7.923   0.000  0.00  0.00     0.002 A 
ATOM     24  C   UNL d   1      -2.450   8.752   0.000  0.00  0.00     0.000 A 
ATOM     25  C   UNL d   1      -3.170   9.165   0.000  0.00  0.00     0.000 A 
ATOM     26  C   UNL d   1      -3.874   8.752   0.000  0.00  0.00     0.000 A 
ATOM     27  C   UNL d   1      -3.882   7.923   0.000  0.00  0.00     0.002 A 
ENDBRANCH  19  22
ENDBRANCH  15  16
ENDBRANCH   1  15
TORSDOF 5
