REMARK  5 active torsions:
REMARK  status: ('A' for Active; 'I' for Inactive)
REMARK    1  A    between atoms: C_11  and  N_4 
REMARK    2  A    between atoms: C_12  and  N_10 
REMARK    3  A    between atoms: C_14  and  C_11 
REMARK    4  A    between atoms: O_26  and  C_13 
REMARK    5  A    between atoms: O_28  and  C_24 
ROOT
ATOM      1  C   UNL d   1       2.001  -1.588   0.000  0.00  0.00     0.191 A 
ATOM      2  C   UNL d   1       2.001  -0.762   0.000  0.00  0.00     0.173 A 
ATOM      3  C   UNL d   1       3.434  -1.189   0.000  0.00  0.00     0.722 A 
ATOM      4  N   UNL d   1       0.583  -0.762   0.000  0.00  0.00    -0.224 N 
ATOM      5  N   UNL d   1       2.773  -1.850   0.000  0.00  0.00    -0.042 NA
ATOM      6  N   UNL d   1       2.773  -0.528   0.000  0.00  0.00    -0.132 N 
ATOM      7  N   UNL d   1       1.299  -2.015   0.000  0.00  0.00    -0.240 N 
ATOM      8  C   UNL d   1       0.583  -1.588   0.000  0.00  0.00     0.343 A 
ATOM      9  C   UNL d   1       1.299  -0.363   0.000  0.00  0.00     0.288 A 
ATOM     10  N   UNL d   1       4.205  -0.941   0.000  0.00  0.00    -0.138 N 
ATOM     11  C   UNL d   1       3.021   0.243   0.000  0.00  0.00     0.100 A 
ATOM     12  C   UNL d   1       4.425  -0.142   0.000  0.00  0.00     0.100 A 
ATOM     13  O   UNL d   1      -0.133  -2.015   0.000  0.00  0.00    -0.245 OA
ATOM     14  O   UNL d   1       1.299   0.464   0.000  0.00  0.00    -0.265 OA
ATOM     15  C   UNL d   1       3.819   0.464   0.000  0.00  0.00     0.036 A 
ATOM     16  C   UNL d   1       1.299  -2.841   0.000  0.00  0.00     0.105 C 
ATOM     17  C   UNL d   1       4.026   1.267   0.000  0.00  0.00     0.003 C 
ENDROOT
BRANCH  10  18
ATOM     18  C   UNL d   1       4.783  -1.533   0.000  0.00  0.00     0.104 A 
ATOM     19  C   UNL d   1       5.582  -1.327   0.000  0.00  0.00     0.113 A 
ATOM     20  C   UNL d   1       6.174  -1.877   0.000  0.00  0.00     0.050 A 
ATOM     21  C   UNL d   1       5.981  -2.690   0.000  0.00  0.00     0.096 A 
ATOM     22  C   UNL d   1       5.169  -2.910   0.000  0.00  0.00     0.026 A 
ATOM     23  C   UNL d   1       4.590  -2.332   0.000  0.00  0.00     0.022 A 
BRANCH  19  24
ATOM     24  O   UNL d   1       5.788  -0.528   0.000  0.00  0.00    -0.327 OA
ATOM     25  C   UNL d   1       6.573  -0.321   0.000  0.00  0.00     0.181 C 
ENDBRANCH  19  24
BRANCH  21  26
ATOM     26  O   UNL d   1       6.573  -3.282   0.000  0.00  0.00    -0.328 OA
ATOM     27  C   UNL d   1       7.372  -3.071   0.000  0.00  0.00     0.181 C 
ENDBRANCH  21  26
ENDBRANCH  10  18
BRANCH   4  28
ATOM     28  C   UNL d   1      -0.243  -0.762   0.000  0.00  0.00     0.090 C 
BRANCH  28  29
ATOM     29  C   UNL d   1      -0.656  -0.046   0.000  0.00  0.00     0.045 A 
ATOM     30  C   UNL d   1      -1.474  -0.055   0.000  0.00  0.00     0.141 A 
ATOM     31  F   UNL d   1      -1.882  -0.771   0.000  0.00  0.00    -0.204 F 
ATOM     32  C   UNL d   1      -1.887   0.656   0.000  0.00  0.00     0.030 A 
ATOM     33  C   UNL d   1      -1.483   1.373   0.000  0.00  0.00     0.002 A 
ATOM     34  C   UNL d   1      -0.656   1.373   0.000  0.00  0.00     0.000 A 
ATOM     35  C   UNL d   1      -0.243   0.661   0.000  0.00  0.00     0.004 A 
ENDBRANCH  28  29
ENDBRANCH   4  28
TORSDOF 5
