REMARK  3 active torsions:
REMARK  status: ('A' for Active; 'I' for Inactive)
REMARK    1  A    between atoms: C_15  and  N_4 
REMARK    2  A    between atoms: C_11  and  N_10 
REMARK    3  A    between atoms: C_19  and  C_15 
ROOT
ATOM      1  C   UNL d   1       2.176  -1.430   0.000  0.00  0.00     0.191 A 
ATOM      2  C   UNL d   1       2.163  -0.600   0.000  0.00  0.00     0.173 A 
ATOM      3  C   UNL d   1       3.451  -1.000   0.000  0.00  0.00     0.722 A 
ATOM      4  N   UNL d   1       0.729  -0.600   0.000  0.00  0.00    -0.224 N 
ATOM      5  N   UNL d   1       2.963  -1.688   0.000  0.00  0.00    -0.042 NA
ATOM      6  N   UNL d   1       2.963  -0.338   0.000  0.00  0.00    -0.131 N 
ATOM      7  N   UNL d   1       1.450  -1.863   0.000  0.00  0.00    -0.240 N 
ATOM      8  C   UNL d   1       0.713  -1.430   0.000  0.00  0.00     0.343 A 
ATOM      9  C   UNL d   1       1.475  -0.188   0.000  0.00  0.00     0.288 A 
ATOM     10  N   UNL d   1       4.230  -0.742   0.000  0.00  0.00    -0.139 N 
ATOM     11  C   UNL d   1       3.443   0.333   0.000  0.00  0.00     0.118 A 
ATOM     12  C   UNL d   1       4.226   0.075   0.000  0.00  0.00     0.117 A 
ATOM     13  O   UNL d   1      -0.033  -1.830   0.000  0.00  0.00    -0.245 OA
ATOM     14  O   UNL d   1       1.463   0.658   0.000  0.00  0.00    -0.265 OA
ATOM     15  C   UNL d   1       1.450  -2.701   0.000  0.00  0.00     0.105 C 
ENDROOT
BRANCH  10  16
ATOM     16  C   UNL d   1       4.901  -1.225   0.000  0.00  0.00     0.082 A 
ATOM     17  C   UNL d   1       5.643  -0.879   0.000  0.00  0.00     0.027 A 
ATOM     18  C   UNL d   1       6.306  -1.355   0.000  0.00  0.00     0.059 A 
ATOM     19  C   UNL d   1       5.726  -0.054   0.000  0.00  0.00     0.002 C 
ATOM     20 CL   UNL d   1       7.019  -0.938   0.000  0.00  0.00    -0.082 Cl
ATOM     21  C   UNL d   1       6.231  -2.180   0.000  0.00  0.00     0.011 A 
ATOM     22  C   UNL d   1       5.481  -2.526   0.000  0.00  0.00     0.002 A 
ATOM     23  C   UNL d   1       4.814  -2.042   0.000  0.00  0.00     0.018 A 
ENDBRANCH  10  16
BRANCH   4  24
ATOM     24  C   UNL d   1      -0.096  -0.600   0.000  0.00  0.00     0.087 C 
BRANCH  24  25
ATOM     25  C   UNL d   1      -0.500   0.113   0.000  0.00  0.00     0.018 C 
ATOM     26  C   UNL d   1      -1.325   0.113   0.000  0.00  0.00     0.002 C 
ATOM     27  C   UNL d   1      -0.100   0.825   0.000  0.00  0.00     0.002 C 
ENDBRANCH  24  25
ENDBRANCH   4  24
TORSDOF 3
