REMARK  2 active torsions:
REMARK  status: ('A' for Active; 'I' for Inactive)
REMARK    1  A    between atoms: C_2  and  S_1 
REMARK    2  A    between atoms: C_7  and  C_3 
ROOT
ATOM      1  C   UNL d   1       1.042  -0.525   0.000  0.00  0.00     0.117 A 
ATOM      2  C   UNL d   1       1.754   0.721   0.000  0.00  0.00     0.076 A 
ATOM      3  C   UNL d   1       1.042   0.300   0.000  0.00  0.00     0.021 A 
ATOM      4  C   UNL d   1       1.754  -0.938   0.000  0.00  0.00     0.071 A 
ATOM      5  C   UNL d   1       2.467   0.308   0.000  0.00  0.00     0.065 A 
ATOM      6  C   UNL d   1       2.467  -0.525   0.000  0.00  0.00     0.024 A 
ATOM      7 CL   UNL d   1       3.179   0.721   0.000  0.00  0.00    -0.082 Cl
ATOM      8 CL   UNL d   1       1.754  -1.762   0.000  0.00  0.00    -0.082 Cl
ENDROOT
BRANCH   1   9
ATOM      9  S   UNL d   1       0.325  -0.938   0.000  0.00  0.00     0.303 S 
ATOM     10  O   UNL d   1       0.729  -1.650   0.000  0.00  0.00    -0.197 OA
ATOM     11  O   UNL d   1      -0.096  -0.217   0.000  0.00  0.00    -0.197 OA
ATOM     12  N   UNL d   1      -0.396  -1.342   0.000  0.00  0.00    -0.043 N 
ENDBRANCH   1   9
BRANCH   2  13
ATOM     13  C   UNL d   1       1.750   1.546   0.000  0.00  0.00     0.212 C 
ATOM     14  O   UNL d   1       1.038   1.958   0.000  0.00  0.00    -0.644 OA
ATOM     15  O   UNL d   1       2.467   1.958   0.000  0.00  0.00    -0.644 OA
ENDBRANCH   2  13
TORSDOF 2
