REMARK  2 active torsions:
REMARK  status: ('A' for Active; 'I' for Inactive)
REMARK    1  A    between atoms: C_5  and  C_1 
REMARK    2  A    between atoms: C_7  and  N_2 
ROOT
ATOM      1  C   UNL d   1       1.227   0.869   0.000  0.00  0.00     0.129 A 
ATOM      2  N   UNL d   1       0.736   0.196   0.000  0.00  0.00    -0.302 N 
ATOM      3  C   UNL d   1       0.736   1.535   0.000  0.00  0.00     0.025 A 
ATOM      4  C   UNL d   1      -0.050   0.449   0.000  0.00  0.00     0.064 A 
ATOM      5  C   UNL d   1      -0.050   1.281   0.000  0.00  0.00     0.018 A 
ATOM      6  C   UNL d   1      -0.770   0.037   0.000  0.00  0.00     0.018 A 
ATOM      7  C   UNL d   1      -0.770   1.693   0.000  0.00  0.00     0.002 A 
ATOM      8  C   UNL d   1      -1.481   0.449   0.000  0.00  0.00     0.002 A 
ATOM      9  C   UNL d   1      -1.481   1.273   0.000  0.00  0.00     0.000 A 
ENDROOT
BRANCH   2  10
ATOM     10  C   UNL d   1       0.990  -0.591   0.000  0.00  0.00     0.064 A 
ATOM     11  C   UNL d   1       1.797  -0.753   0.000  0.00  0.00     0.018 A 
ATOM     12  C   UNL d   1       2.051  -1.535   0.000  0.00  0.00     0.002 A 
ATOM     13  C   UNL d   1       1.502  -2.151   0.000  0.00  0.00     0.000 A 
ATOM     14  C   UNL d   1       0.691  -1.984   0.000  0.00  0.00     0.002 A 
ATOM     15  C   UNL d   1       0.441  -1.198   0.000  0.00  0.00     0.018 A 
ENDBRANCH   2  10
BRANCH   1  16
ATOM     16  C   UNL d   1       2.051   0.869   0.000  0.00  0.00     0.228 C 
ATOM     17  O   UNL d   1       2.463   1.581   0.000  0.00  0.00    -0.643 OA
ATOM     18  O   UNL d   1       2.463   0.150   0.000  0.00  0.00    -0.643 OA
ENDBRANCH   1  16
TORSDOF 2
