REMARK  1 active torsions:
REMARK  status: ('A' for Active; 'I' for Inactive)
REMARK    1  A    between atoms: C_7  and  N_1 
ROOT
ATOM      1  N   UNL d   1       1.119   1.010   0.000  0.00  0.00    -0.226 N 
ATOM      2  C   UNL d   1       0.405   1.424   0.000  0.00  0.00     0.359 A 
ATOM      3  C   UNL d   1       1.119   0.184   0.000  0.00  0.00     0.273 A 
ATOM      4  N   UNL d   1      -0.309   1.010   0.000  0.00  0.00    -0.153 NA
ATOM      5  C   UNL d   1      -0.309   0.184   0.000  0.00  0.00     0.288 A 
ATOM      6  C   UNL d   1       0.405  -0.230   0.000  0.00  0.00     0.124 A 
ATOM      7  O   UNL d   1       0.401   2.251   0.000  0.00  0.00    -0.244 OA
ATOM      8  O   UNL d   1       1.833  -0.230   0.000  0.00  0.00    -0.266 OA
ATOM      9  O   UNL d   1      -1.023  -0.230   0.000  0.00  0.00    -0.265 OA
ENDROOT
BRANCH   1  10
ATOM     10  C   UNL d   1       1.833   1.424   0.000  0.00  0.00     0.071 A 
ATOM     11  C   UNL d   1       2.555   1.002   0.000  0.00  0.00     0.016 A 
ATOM     12  C   UNL d   1       2.547   0.175   0.000  0.00  0.00     0.002 C 
ATOM     13  C   UNL d   1       3.269   1.411   0.000  0.00  0.00     0.001 A 
ATOM     14  C   UNL d   1       3.273   2.238   0.000  0.00  0.00     0.000 A 
ATOM     15  C   UNL d   1       2.559   2.651   0.000  0.00  0.00     0.002 A 
ATOM     16  C   UNL d   1       1.833   2.242   0.000  0.00  0.00     0.018 A 
ENDBRANCH   1  10
TORSDOF 1
