REMARK  2 active torsions:
REMARK  status: ('A' for Active; 'I' for Inactive)
REMARK    1  A    between atoms: C_4  and  C_1 
REMARK    2  A    between atoms: N_6  and  C_5 
ROOT
ATOM      1  C   UNL d   1       0.496  -0.149   0.000  0.00  0.00     0.024 A 
ATOM      2  C   UNL d   1       1.611  -1.368   0.000  0.00  0.00     0.064 A 
ATOM      3  C   UNL d   1       0.250  -0.940   0.000  0.00  0.00     0.004 A 
ATOM      4  C   UNL d   1       1.301   0.030   0.000  0.00  0.00     0.004 A 
ATOM      5  C   UNL d   1       0.805  -1.547   0.000  0.00  0.00     0.018 A 
ATOM      6  C   UNL d   1       1.861  -0.582   0.000  0.00  0.00     0.018 A 
ENDROOT
BRANCH   1   7
ATOM      7  C   UNL d   1      -0.056   0.459   0.000  0.00  0.00     0.111 A 
ATOM      8  N   UNL d   1       0.089   1.264   0.000  0.00  0.00    -0.237 NA
ATOM      9  C   UNL d   1      -0.645   1.641   0.000  0.00  0.00     0.106 A 
ATOM     10  C   UNL d   1      -1.219   1.085   0.000  0.00  0.00     0.058 A 
ATOM     11  S   UNL d   1      -0.861   0.354   0.000  0.00  0.00    -0.066 SA
ENDBRANCH   1   7
BRANCH   2  12
ATOM     12  N   UNL d   1       2.148  -1.995   0.000  0.00  0.00    -0.301 N 
ATOM     13  C   UNL d   1       1.861  -2.763   0.000  0.00  0.00     0.100 C 
ATOM     14  C   UNL d   1       2.953  -1.849   0.000  0.00  0.00     0.100 C 
ENDBRANCH   2  12
TORSDOF 2
