REMARK  1 active torsions:
REMARK  status: ('A' for Active; 'I' for Inactive)
REMARK    1  A    between atoms: C_5  and  N_1 
ROOT
ATOM      1  N   UNL d   1       2.131  -0.962   0.000  0.00  0.00    -0.226 N 
ATOM      2  C   UNL d   1       1.418  -0.551   0.000  0.00  0.00     0.359 A 
ATOM      3  C   UNL d   1       2.131  -1.791   0.000  0.00  0.00     0.273 A 
ATOM      4  N   UNL d   1       0.701  -0.962   0.000  0.00  0.00    -0.153 NA
ATOM      5  C   UNL d   1       0.701  -1.791   0.000  0.00  0.00     0.288 A 
ATOM      6  C   UNL d   1       1.418  -2.206   0.000  0.00  0.00     0.124 A 
ATOM      7  O   UNL d   1       1.410   0.270   0.000  0.00  0.00    -0.244 OA
ATOM      8  O   UNL d   1       2.840  -2.206   0.000  0.00  0.00    -0.266 OA
ATOM      9  O   UNL d   1      -0.008  -2.206   0.000  0.00  0.00    -0.265 OA
ENDROOT
BRANCH   1  10
ATOM     10  C   UNL d   1       2.840  -0.551   0.000  0.00  0.00     0.072 A 
ATOM     11  C   UNL d   1       3.562  -0.974   0.000  0.00  0.00     0.029 A 
ATOM     12  C   UNL d   1       4.271  -0.564   0.000  0.00  0.00     0.059 A 
ATOM     13 CL   UNL d   1       4.980  -0.987   0.000  0.00  0.00    -0.082 Cl
ATOM     14  C   UNL d   1       4.279   0.257   0.000  0.00  0.00     0.011 A 
ATOM     15  C   UNL d   1       3.562   0.672   0.000  0.00  0.00     0.002 A 
ATOM     16  C   UNL d   1       4.992   0.672   0.000  0.00  0.00     0.001 C 
ATOM     17  C   UNL d   1       2.840   0.261   0.000  0.00  0.00     0.018 A 
ENDBRANCH   1  10
TORSDOF 1
