REMARK  1 active torsions:
REMARK  status: ('A' for Active; 'I' for Inactive)
REMARK    1  A    between atoms: C_4  and  C_1 
ROOT
ATOM      1  C   UNL d   1       0.623   0.009   0.000  0.00  0.00     0.024 A 
ATOM      2  C   UNL d   1       0.619  -0.816   0.000  0.00  0.00     0.002 A 
ATOM      3  C   UNL d   1       1.334   0.422   0.000  0.00  0.00     0.002 A 
ATOM      4  C   UNL d   1       1.325  -1.228   0.000  0.00  0.00     0.000 A 
ATOM      5  C   UNL d   1       2.049   0.009   0.000  0.00  0.00     0.000 A 
ATOM      6  C   UNL d   1       2.039  -0.816   0.000  0.00  0.00     0.000 A 
ATOM      7  C   UNL d   1       2.755  -1.237   0.000  0.00  0.00     0.000 C 
ENDROOT
BRANCH   1   8
ATOM      8  C   UNL d   1      -0.092   0.422   0.000  0.00  0.00     0.111 A 
ATOM      9  N   UNL d   1      -0.092   1.247   0.000  0.00  0.00    -0.237 NA
ATOM     10  C   UNL d   1      -1.522   1.247   0.000  0.00  0.00     0.106 A 
ATOM     11  C   UNL d   1      -1.522   0.422   0.000  0.00  0.00     0.058 A 
ATOM     12  S   UNL d   1      -0.807   0.009   0.000  0.00  0.00    -0.066 SA
ENDBRANCH   1   8
TORSDOF 1
