REMARK  1 active torsions:
REMARK  status: ('A' for Active; 'I' for Inactive)
REMARK    1  A    between atoms: C_6  and  C_2 
ROOT
ATOM      1  C   UNL d   1       2.814   1.819   0.000  0.00  0.00     0.019 A 
ATOM      2  C   UNL d   1       3.625   1.723   0.000  0.00  0.00     0.001 A 
ATOM      3  C   UNL d   1       2.472   2.560   0.000  0.00  0.00     0.001 A 
ATOM      4  C   UNL d   1       2.951   3.230   0.000  0.00  0.00     0.000 A 
ATOM      5  C   UNL d   1       4.112   2.393   0.000  0.00  0.00     0.000 A 
ATOM      6  C   UNL d   1       3.775   3.142   0.000  0.00  0.00     0.000 A 
ENDROOT
BRANCH   1   7
ATOM      7  C   UNL d   1       2.327   1.145   0.000  0.00  0.00     0.102 A 
ATOM      8  N   UNL d   1       1.503   1.145   0.000  0.00  0.00    -0.222 NA
ATOM      9  C   UNL d   1       1.249   0.358   0.000  0.00  0.00     0.199 A 
ATOM     10  N   UNL d   1       1.915  -0.125   0.000  0.00  0.00    -0.221 NA
ATOM     11  C   UNL d   1       2.585   0.358   0.000  0.00  0.00     0.120 A 
ENDBRANCH   1   7
TORSDOF 1
