REMARK  1 active torsions:
REMARK  status: ('A' for Active; 'I' for Inactive)
REMARK    1  A    between atoms: C_11  and  C_9 
ROOT
ATOM      1  C   UNL d   1       4.630  -0.887   0.000  0.00  0.00     0.215 A 
ATOM      2  N   UNL d   1       4.151  -1.552   0.000  0.00  0.00    -0.219 NA
ATOM      3  S   UNL d   1       4.151  -0.222   0.000  0.00  0.00    -0.045 SA
ATOM      4  C   UNL d   1       3.362  -0.479   0.000  0.00  0.00     0.050 A 
ATOM      5  C   UNL d   1       3.362  -1.299   0.000  0.00  0.00     0.090 A 
ATOM      6  C   UNL d   1       2.650  -0.062   0.000  0.00  0.00     0.008 A 
ATOM      7  N   UNL d   1       5.460  -0.887   0.000  0.00  0.00    -0.120 N 
ATOM      8  C   UNL d   1       2.650  -1.717   0.000  0.00  0.00     0.020 A 
ATOM      9  C   UNL d   1       1.954  -0.479   0.000  0.00  0.00     0.001 A 
ATOM     10  C   UNL d   1       1.954  -1.304   0.000  0.00  0.00     0.002 A 
ENDROOT
BRANCH   9  11
ATOM     11  C   UNL d   1       1.237  -0.067   0.000  0.00  0.00     0.000 C 
ATOM     12  C   UNL d   1       1.237   0.753   0.000  0.00  0.00     0.000 C 
ENDBRANCH   9  11
TORSDOF 1
