REMARK  4 active torsions:
REMARK  status: ('A' for Active; 'I' for Inactive)
REMARK    1  A    between atoms: C_6  and  N_1 
REMARK    2  A    between atoms: N_7  and  C_5 
REMARK    3  A    between atoms: C_8  and  C_6 
REMARK    4  A    between atoms: C_12  and  N_7 
ROOT
ATOM      1  N   UNL d   1      -0.518   0.627   0.000  0.00  0.00    -0.227 N 
ATOM      2  C   UNL d   1      -0.518  -0.197   0.000  0.00  0.00     0.300 A 
ATOM      3  S   UNL d   1       0.192  -0.609   0.000  0.00  0.00    -0.003 SA
ATOM      4  C   UNL d   1       0.907   0.627   0.000  0.00  0.00     0.292 A 
ATOM      5  C   UNL d   1       0.907  -0.197   0.000  0.00  0.00     0.172 A 
ATOM      6  O   UNL d   1      -1.232  -0.609   0.000  0.00  0.00    -0.259 OA
ATOM      7  O   UNL d   1       1.544   1.264   0.000  0.00  0.00    -0.264 OA
ENDROOT
BRANCH   5   8
ATOM      8  N   UNL d   1       1.622  -0.609   0.000  0.00  0.00    -0.234 NA
BRANCH   8   9
ATOM      9  C   UNL d   1       1.622  -1.434   0.000  0.00  0.00     0.082 A 
ATOM     10  C   UNL d   1       0.898  -1.846   0.000  0.00  0.00     0.019 A 
ATOM     11  C   UNL d   1       0.898  -2.666   0.000  0.00  0.00     0.002 A 
ATOM     12  C   UNL d   1       1.613  -3.083   0.000  0.00  0.00     0.000 A 
ATOM     13  C   UNL d   1       2.336  -2.666   0.000  0.00  0.00     0.002 A 
ATOM     14  C   UNL d   1       1.622  -3.907   0.000  0.00  0.00     0.000 C 
ATOM     15  C   UNL d   1       2.327  -1.841   0.000  0.00  0.00     0.019 A 
ENDBRANCH   8   9
ENDBRANCH   5   8
BRANCH   1  16
ATOM     16  C   UNL d   1      -1.163   1.264   0.000  0.00  0.00     0.157 C 
BRANCH  16  17
ATOM     17  C   UNL d   1      -0.930   2.153   0.000  0.00  0.00     0.230 C 
ATOM     18  O   UNL d   1      -0.050   2.377   0.000  0.00  0.00    -0.643 OA
ATOM     19  O   UNL d   1      -1.567   2.785   0.000  0.00  0.00    -0.643 OA
ENDBRANCH  16  17
ENDBRANCH   1  16
TORSDOF 4
