REMARK  1 active torsions:
REMARK  status: ('A' for Active; 'I' for Inactive)
REMARK    1  A    between atoms: C_8  and  CA_5 
ROOT
ATOM      1  N   UNL d   1       6.925  -4.440   0.000  0.00  0.00    -0.224 NA
ATOM      2  C   UNL d   1       6.214  -4.035   0.000  0.00  0.00     0.162 A 
ATOM      3  N   UNL d   1       5.508  -4.449   0.000  0.00  0.00    -0.225 NA
ATOM      4  C   UNL d   1       6.214  -3.210   0.000  0.00  0.00     0.036 A 
ATOM      5  CA  UNL d   1       7.640  -4.035   0.000  0.00  0.00     0.125 A 
ATOM      6  C   UNL d   1       6.925  -2.795   0.000  0.00  0.00     0.005 A 
ATOM      7  C   UNL d   1       7.640  -3.210   0.000  0.00  0.00     0.023 A 
ATOM      8  C   UNL d   1       4.793  -4.035   0.000  0.00  0.00     0.101 A 
ATOM      9  C   UNL d   1       5.508  -2.795   0.000  0.00  0.00     0.005 A 
ATOM     10  C   UNL d   1       4.793  -3.210   0.000  0.00  0.00     0.021 A 
ENDROOT
BRANCH   5  11
ATOM     11  C   UNL d   1       8.346  -4.440   0.000  0.00  0.00     0.253 C 
ATOM     12  O   UNL d   1       8.346  -5.265   0.000  0.00  0.00    -0.281 OA
ENDBRANCH   5  11
TORSDOF 1
