REMARK  2 active torsions:
REMARK  status: ('A' for Active; 'I' for Inactive)
REMARK    1  A    between atoms: C_11  and  C_1 
REMARK    2  A    between atoms: C_13  and  C_11 
ROOT
ATOM      1  C   UNL d   1       2.523  -1.259   0.000  0.00  0.00     0.058 A 
ATOM      2  C   UNL d   1       1.221  -1.636   0.000  0.00  0.00    -0.008 A 
ATOM      3  C   UNL d   1       1.063  -1.178   0.000  0.00  0.00    -0.008 A 
ATOM      4  C   UNL d   1       1.779  -0.134   0.000  0.00  0.00     0.045 A 
ATOM      5  C   UNL d   1       1.774  -1.435   0.000  0.00  0.00    -0.019 A 
ATOM      6  C   UNL d   1       1.974  -1.936   0.000  0.00  0.00    -0.019 A 
ATOM      7  C   UNL d   1       2.523  -0.434   0.000  0.00  0.00     0.021 A 
ATOM      8  C   UNL d   1       0.420  -1.865   0.000  0.00  0.00    -0.001 A 
ATOM      9  C   UNL d   1       1.059  -0.391   0.000  0.00  0.00    -0.022 A 
ATOM     10  C   UNL d   1       1.221  -0.792   0.000  0.00  0.00    -0.022 A 
ENDROOT
BRANCH   1  11
ATOM     11  C   UNL d   1       3.348  -1.221   0.000  0.00  0.00     0.004 C 
BRANCH  11  12
ATOM     12  C   UNL d   1       3.782  -1.922   0.000  0.00  0.00     0.118 C 
ATOM     13  N   UNL d   1       4.612  -1.893   0.000  0.00  0.00    -0.147 N 
ENDBRANCH  11  12
ENDBRANCH   1  11
TORSDOF 2
