REMARK  7 active torsions:
REMARK  status: ('A' for Active; 'I' for Inactive)
REMARK       I    between atoms: C_3  and  N_1 
REMARK    1  A    between atoms: C_4  and  N_2 
REMARK    2  A    between atoms: C_15  and  C_3 
REMARK    3  A    between atoms: C_12  and  C_4 
REMARK    4  A    between atoms: C_13  and  C_4 
REMARK    5  A    between atoms: C_5  and  C_17 
REMARK    6  A    between atoms: C_16  and  C_15 
REMARK    7  A    between atoms: C_17  and  C_16 
ROOT
ATOM      1  N   UNL d   1       9.730  -5.652   0.000  0.00  0.00    -0.269 N 
ATOM      2  N   UNL d   1       8.063  -5.658   0.000  0.00  0.00    -0.301 N 
ATOM      3  C   UNL d   1      10.555  -5.641   0.000  0.00  0.00     0.265 C 
ATOM      4  C   UNL d   1       9.309  -4.932   0.000  0.00  0.00     0.102 A 
ATOM      5  C   UNL d   1       9.309  -6.372   0.000  0.00  0.00     0.102 A 
ATOM      6  C   UNL d   1       8.478  -6.372   0.000  0.00  0.00     0.100 A 
ATOM      7  C   UNL d   1       8.466  -4.932   0.000  0.00  0.00     0.100 A 
ATOM      8  O   UNL d   1      10.959  -6.354   0.000  0.00  0.00    -0.267 OA
ENDROOT
BRANCH   2   9
ATOM      9  C   UNL d   1       7.238  -5.658   0.000  0.00  0.00     0.064 C 
BRANCH   9  10
ATOM     10  C   UNL d   1       6.816  -4.938   0.000  0.00  0.00     0.016 A 
ATOM     11  C   UNL d   1       5.992  -4.950   0.000  0.00  0.00     0.001 A 
ATOM     12  C   UNL d   1       5.588  -4.236   0.000  0.00  0.00     0.000 A 
ATOM     13  C   UNL d   1       5.992  -3.517   0.000  0.00  0.00     0.000 A 
ATOM     14  C   UNL d   1       6.816  -3.517   0.000  0.00  0.00     0.000 A 
ATOM     15  C   UNL d   1       7.238  -4.230   0.000  0.00  0.00     0.001 A 
ENDBRANCH   9  10
BRANCH   9  16
ATOM     16  C   UNL d   1       6.828  -6.372   0.000  0.00  0.00     0.016 A 
ATOM     17  C   UNL d   1       7.238  -7.080   0.000  0.00  0.00     0.001 A 
ATOM     18  C   UNL d   1       6.834  -7.800   0.000  0.00  0.00     0.000 A 
ATOM     19  C   UNL d   1       6.003  -7.800   0.000  0.00  0.00     0.000 A 
ATOM     20  C   UNL d   1       5.588  -7.080   0.000  0.00  0.00     0.000 A 
ATOM     21  C   UNL d   1       6.003  -6.372   0.000  0.00  0.00     0.001 A 
ENDBRANCH   9  16
ENDBRANCH   2   9
BRANCH   3  22
ATOM     22  C   UNL d   1      10.959  -4.932   0.000  0.00  0.00     0.061 C 
BRANCH  22  23
ATOM     23  C   UNL d   1      11.778  -4.932   0.000  0.00  0.00     0.011 C 
BRANCH  23  24
ATOM     24  C   UNL d   1      12.188  -5.641   0.000  0.00  0.00     0.070 C 
BRANCH  24  25
ATOM     25  C   UNL d   1      13.007  -5.641   0.000  0.00  0.00     0.211 C 
ATOM     26  O   UNL d   1      13.416  -6.343   0.000  0.00  0.00    -0.644 OA
ATOM     27  O   UNL d   1      13.416  -4.921   0.000  0.00  0.00    -0.644 OA
ENDBRANCH  24  25
ENDBRANCH  23  24
ENDBRANCH  22  23
ENDBRANCH   3  22
TORSDOF 7
