REMARK  3 active torsions:
REMARK  status: ('A' for Active; 'I' for Inactive)
REMARK    1  A    between atoms: C_10  and  C_3 
REMARK    2  A    between atoms: O_13  and  C_10 
REMARK    3  A    between atoms: C_12  and  O_13 
ROOT
ATOM      1  C   UNL d   1      -0.183  -0.178   0.000  0.00  0.00     0.002 A 
ATOM      2  C   UNL d   1       0.533   0.231   0.000  0.00  0.00     0.025 A 
ATOM      3  C   UNL d   1      -0.183  -1.014   0.000  0.00  0.00     0.000 A 
ATOM      4  C   UNL d   1       0.533  -1.427   0.000  0.00  0.00     0.002 A 
ATOM      5  C   UNL d   1       1.245  -0.178   0.000  0.00  0.00     0.100 A 
ATOM      6  C   UNL d   1       1.245  -1.014   0.000  0.00  0.00     0.025 A 
ATOM      7  C   UNL d   1      -0.894   0.226   0.000  0.00  0.00     0.000 A 
ATOM      8  C   UNL d   1      -0.894  -1.427   0.000  0.00  0.00     0.000 A 
ATOM      9  C   UNL d   1      -1.610  -0.178   0.000  0.00  0.00     0.000 A 
ATOM     10  C   UNL d   1      -1.610  -1.014   0.000  0.00  0.00     0.000 A 
ENDROOT
BRANCH   5  11
ATOM     11  O   UNL d   1       1.965   0.231   0.000  0.00  0.00    -0.304 OA
BRANCH  11  12
ATOM     12  C   UNL d   1       1.961   1.062   0.000  0.00  0.00     0.142 C 
BRANCH  12  13
ATOM     13  C   UNL d   1       2.672   1.480   0.000  0.00  0.00     0.115 A 
ATOM     14  N   UNL d   1       2.758   2.302   0.000  0.00  0.00    -0.217 NA
ATOM     15  C   UNL d   1       3.566   2.475   0.000  0.00  0.00     0.215 A 
ATOM     16  S   UNL d   1       3.979   1.754   0.000  0.00  0.00    -0.045 SA
ATOM     17  N   UNL d   1       3.897   3.229   0.000  0.00  0.00    -0.120 N 
ATOM     18  C   UNL d   1       3.431   1.139   0.000  0.00  0.00     0.060 A 
ENDBRANCH  12  13
ENDBRANCH  11  12
ENDBRANCH   5  11
TORSDOF 3
