REMARK  2 active torsions:
REMARK  status: ('A' for Active; 'I' for Inactive)
REMARK    1  A    between atoms: C_4  and  N_1 
REMARK    2  A    between atoms: C_3  and  C_4 
ROOT
ATOM      1  N   UNL d   1       2.699  -0.292   0.000  0.00  0.00    -0.295 N 
ATOM      2  N   UNL d   1       1.037  -0.254   0.000  0.00  0.00    -0.299 N 
ATOM      3  C   UNL d   1       2.291   0.433   0.000  0.00  0.00     0.100 A 
ATOM      4  C   UNL d   1       2.254  -1.004   0.000  0.00  0.00     0.100 A 
ATOM      5  C   UNL d   1       1.454   0.446   0.000  0.00  0.00     0.100 A 
ATOM      6  C   UNL d   1       1.429  -0.987   0.000  0.00  0.00     0.100 A 
ATOM      7  C   UNL d   1       0.217  -0.242   0.000  0.00  0.00     0.100 C 
ENDROOT
BRANCH   1   8
ATOM      8  C   UNL d   1       3.516  -0.304   0.000  0.00  0.00     0.152 C 
BRANCH   8   9
ATOM      9  C   UNL d   1       3.903  -1.029   0.000  0.00  0.00     0.230 C 
ATOM     10  O   UNL d   1       3.478  -1.737   0.000  0.00  0.00    -0.643 OA
ATOM     11  O   UNL d   1       4.741  -1.042   0.000  0.00  0.00    -0.643 OA
ENDBRANCH   8   9
ENDBRANCH   1   8
TORSDOF 2
