REMARK  4 active torsions:
REMARK  status: ('A' for Active; 'I' for Inactive)
REMARK    1  A    between atoms: C_7  and  C_4 
REMARK    2  A    between atoms: C_11  and  C_7 
REMARK    3  A    between atoms: C_9  and  O_16 
REMARK    4  A    between atoms: O_16  and  C_11 
ROOT
ATOM      1  C   UNL d   1       2.177  -0.062   0.000  0.00  0.00     0.124 C 
ENDROOT
BRANCH   1   2
ATOM      2  C   UNL d   1       2.897   0.355   0.000  0.00  0.00     0.046 C 
BRANCH   2   3
ATOM      3  C   UNL d   1       3.611  -0.058   0.000  0.00  0.00     0.092 A 
ATOM      4  N   UNL d   1       4.359   0.283   0.000  0.00  0.00    -0.219 NA
ATOM      5  C   UNL d   1       4.911  -0.331   0.000  0.00  0.00     0.215 A 
ATOM      6  S   UNL d   1       4.503  -1.041   0.000  0.00  0.00    -0.045 SA
ATOM      7  N   UNL d   1       5.731  -0.245   0.000  0.00  0.00    -0.120 N 
ATOM      8  C   UNL d   1       3.697  -0.878   0.000  0.00  0.00     0.058 A 
ENDBRANCH   2   3
ENDBRANCH   1   2
BRANCH   1   9
ATOM      9  O   UNL d   1       2.187  -0.882   0.000  0.00  0.00    -0.305 OA
BRANCH   9  10
ATOM     10  C   UNL d   1       1.472  -1.300   0.000  0.00  0.00     0.100 A 
ATOM     11  C   UNL d   1       0.762  -0.892   0.000  0.00  0.00     0.027 A 
ATOM     12  C   UNL d   1       0.048  -1.309   0.000  0.00  0.00     0.032 A 
ATOM     13  C   UNL d   1       0.048  -2.134   0.000  0.00  0.00     0.140 A 
ATOM     14  C   UNL d   1       0.762  -2.547   0.000  0.00  0.00     0.032 A 
ATOM     15  F   UNL d   1      -0.671  -2.547   0.000  0.00  0.00    -0.204 F 
ATOM     16  C   UNL d   1       1.472  -2.134   0.000  0.00  0.00     0.027 A 
ENDBRANCH   9  10
ENDBRANCH   1   9
TORSDOF 4
