REMARK  2 active torsions:
REMARK  status: ('A' for Active; 'I' for Inactive)
REMARK    1  A    between atoms: C_11  and  C_2 
REMARK    2  A    between atoms: C_9  and  C_6 
ROOT
ATOM      1  C   UNL d   1       3.612  -2.434   0.000  0.00  0.00     0.045 A 
ATOM      2  C   UNL d   1       4.388  -2.179   0.000  0.00  0.00     0.127 A 
ATOM      3  C   UNL d   1       2.898  -2.021   0.000  0.00  0.00     0.010 A 
ATOM      4  O   UNL d   1       4.877  -2.835   0.000  0.00  0.00    -0.211 OA
ATOM      5  N   UNL d   1       4.401  -3.511   0.000  0.00  0.00    -0.126 NA
ATOM      6  C   UNL d   1       2.184  -2.434   0.000  0.00  0.00     0.065 A 
ATOM      7  C   UNL d   1       3.612  -3.261   0.000  0.00  0.00     0.110 A 
ATOM      8  C   UNL d   1       2.184  -3.261   0.000  0.00  0.00     0.008 A 
ATOM      9  C   UNL d   1       2.898  -3.674   0.000  0.00  0.00     0.022 A 
ENDROOT
BRANCH   2  10
ATOM     10  C   UNL d   1       4.647  -1.390   0.000  0.00  0.00     0.025 A 
ATOM     11  C   UNL d   1       4.088  -0.781   0.000  0.00  0.00     0.002 A 
ATOM     12  C   UNL d   1       4.338   0.008   0.000  0.00  0.00     0.000 A 
ATOM     13  C   UNL d   1       5.148   0.184   0.000  0.00  0.00     0.000 A 
ATOM     14  C   UNL d   1       5.704  -0.430   0.000  0.00  0.00     0.000 A 
ATOM     15  C   UNL d   1       5.453  -1.215   0.000  0.00  0.00     0.002 A 
ENDBRANCH   2  10
BRANCH   6  16
ATOM     16  C   UNL d   1       1.470  -2.021   0.000  0.00  0.00     0.211 C 
ATOM     17  O   UNL d   1       1.466  -1.194   0.000  0.00  0.00    -0.644 OA
ATOM     18  O   UNL d   1       0.756  -2.443   0.000  0.00  0.00    -0.644 OA
ENDBRANCH   6  16
TORSDOF 2
