REMARK  1 active torsions:
REMARK  status: ('A' for Active; 'I' for Inactive)
REMARK    1  A    between atoms: O_8  and  C_4 
ROOT
ATOM      1  C   UNL d   1       1.950  -0.748   0.000  0.00  0.00     0.065 A 
ATOM      2  C   UNL d   1       1.950  -1.575   0.000  0.00  0.00     0.186 A 
ATOM      3  N   UNL d   1       1.235  -1.987   0.000  0.00  0.00    -0.224 NA
ATOM      4  C   UNL d   1       1.235  -0.337   0.000  0.00  0.00     0.099 A 
ATOM      5  N   UNL d   1       2.660  -1.987   0.000  0.00  0.00    -0.127 N 
ATOM      6  C   UNL d   1       0.524  -1.575   0.000  0.00  0.00     0.103 A 
ATOM      7  C   UNL d   1       0.524  -0.748   0.000  0.00  0.00     0.045 A 
ENDROOT
BRANCH   4   8
ATOM      8  O   UNL d   1       1.235   0.482   0.000  0.00  0.00    -0.328 OA
ATOM      9  C   UNL d   1       0.524   0.894   0.000  0.00  0.00     0.181 C 
ENDBRANCH   4   8
TORSDOF 1
