REMARK  2 active torsions:
REMARK  status: ('A' for Active; 'I' for Inactive)
REMARK    1  A    between atoms: C_4  and  C_2 
REMARK    2  A    between atoms: C_8  and  C_3 
ROOT
ATOM      1  S   UNL d   1       3.917  -0.803   0.000  0.00  0.00    -0.081 SA
ATOM      2  C   UNL d   1       3.091  -0.803   0.000  0.00  0.00     0.031 A 
ATOM      3  C   UNL d   1       4.177  -0.006   0.000  0.00  0.00     0.094 A 
ATOM      4  C   UNL d   1       2.831  -0.006   0.000  0.00  0.00     0.007 A 
ATOM      5  C   UNL d   1       3.507   0.479   0.000  0.00  0.00     0.013 A 
ENDROOT
BRANCH   2   6
ATOM      6  C   UNL d   1       2.606  -1.462   0.000  0.00  0.00     0.025 A 
ATOM      7  C   UNL d   1       1.785  -1.375   0.000  0.00  0.00     0.005 A 
ATOM      8  C   UNL d   1       1.300  -2.034   0.000  0.00  0.00     0.038 A 
ATOM      9  C   UNL d   1       0.485  -1.947   0.000  0.00  0.00     0.003 C 
ATOM     10  C   UNL d   1       1.635  -2.791   0.000  0.00  0.00     0.184 A 
ATOM     11  N   UNL d   1       2.461  -2.877   0.000  0.00  0.00    -0.224 NA
ATOM     12  N   UNL d   1       1.150  -3.455   0.000  0.00  0.00    -0.127 N 
ATOM     13  C   UNL d   1       2.935  -2.207   0.000  0.00  0.00     0.101 A 
ENDBRANCH   2   6
BRANCH   3  14
ATOM     14  C   UNL d   1       4.963   0.237   0.000  0.00  0.00     0.217 C 
ATOM     15  O   UNL d   1       5.136   1.051   0.000  0.00  0.00    -0.643 OA
ATOM     16  O   UNL d   1       5.569  -0.300   0.000  0.00  0.00    -0.643 OA
ENDBRANCH   3  14
TORSDOF 2
