REMARK  1 active torsions:
REMARK  status: ('A' for Active; 'I' for Inactive)
REMARK    1  A    between atoms: C_2  and  CA_3 
ROOT
ATOM      1  N   UNL d   1      -0.560  -1.282   0.000  0.00  0.00    -0.237 NA
ATOM      2  CA  UNL d   1       0.146  -0.874   0.000  0.00  0.00     0.145 A 
ATOM      3  C   UNL d   1       0.146  -0.041   0.000  0.00  0.00     0.026 A 
ATOM      4  C   UNL d   1      -1.271  -0.874   0.000  0.00  0.00     0.106 A 
ATOM      5  C   UNL d   1      -1.271  -0.041   0.000  0.00  0.00     0.054 A 
ATOM      6  C   UNL d   1      -0.560   0.361   0.000  0.00  0.00     0.010 A 
ATOM      7 BR   UNL d   1      -1.988   0.361   0.000  0.00  0.00    -0.048 Br
ENDROOT
BRANCH   2   8
ATOM      8  C   UNL d   1       0.863  -1.282   0.000  0.00  0.00     0.229 C 
ATOM      9  O   UNL d   1       1.580  -0.874   0.000  0.00  0.00    -0.643 OA
ATOM     10  OXT UNL d   1       0.874  -2.104   0.000  0.00  0.00    -0.643 OA
ENDBRANCH   2   8
TORSDOF 1
