REMARK  3 active torsions:
REMARK  status: ('A' for Active; 'I' for Inactive)
REMARK    1  A    between atoms: C_3  and  C_5 
REMARK    2  A    between atoms: O_13  and  C_6 
REMARK    3  A    between atoms: O_15  and  C_8 
ROOT
ATOM      1  C   UNL d   1       2.217  -0.338   0.000  0.00  0.00     0.021 A 
ATOM      2  C   UNL d   1       1.504  -0.742   0.000  0.00  0.00     0.028 A 
ATOM      3  C   UNL d   1       0.792  -0.338   0.000  0.00  0.00     0.116 A 
ATOM      4  C   UNL d   1       0.792   0.487   0.000  0.00  0.00     0.116 A 
ATOM      5  C   UNL d   1       2.217   0.496   0.000  0.00  0.00     0.004 A 
ATOM      6  C   UNL d   1       1.504   0.908   0.000  0.00  0.00     0.026 A 
ENDROOT
BRANCH   1   7
ATOM      7  C   UNL d   1       2.929  -0.750   0.000  0.00  0.00     0.103 A 
ATOM      8  N   UNL d   1       2.929  -1.575   0.000  0.00  0.00    -0.145 NA
ATOM      9  N   UNL d   1       3.642  -1.988   0.000  0.00  0.00    -0.106 NA
ATOM     10  C   UNL d   1       4.354  -1.575   0.000  0.00  0.00     0.297 A 
ATOM     11  O   UNL d   1       5.075  -1.988   0.000  0.00  0.00    -0.264 OA
ATOM     12  C   UNL d   1       4.354  -0.742   0.000  0.00  0.00     0.066 A 
ATOM     13  C   UNL d   1       3.642  -0.329   0.000  0.00  0.00     0.026 A 
ENDBRANCH   1   7
BRANCH   3  14
ATOM     14  O   UNL d   1       0.079  -0.754   0.000  0.00  0.00    -0.326 OA
ATOM     15  C   UNL d   1      -0.637  -0.342   0.000  0.00  0.00     0.181 C 
ENDBRANCH   3  14
BRANCH   4  16
ATOM     16  O   UNL d   1       0.075   0.900   0.000  0.00  0.00    -0.326 OA
ATOM     17  C   UNL d   1      -0.637   0.487   0.000  0.00  0.00     0.181 C 
ENDBRANCH   4  16
TORSDOF 3
