REMARK  3 active torsions:
REMARK  status: ('A' for Active; 'I' for Inactive)
REMARK    1  A    between atoms: C_2  and  O_3 
REMARK    2  A    between atoms: O_3  and  C_5 
REMARK    3  A    between atoms: C_5  and  C_4 
ROOT
ATOM      1  C   UNL d   1       4.417  -3.492   0.000  0.00  0.00     0.100 A 
ATOM      2  C   UNL d   1       4.417  -4.317   0.000  0.00  0.00     0.025 A 
ATOM      3  C   UNL d   1       3.704  -3.079   0.000  0.00  0.00     0.025 A 
ATOM      4  C   UNL d   1       3.704  -4.737   0.000  0.00  0.00     0.002 A 
ATOM      5  C   UNL d   1       2.992  -3.500   0.000  0.00  0.00     0.002 A 
ATOM      6  C   UNL d   1       2.992  -4.317   0.000  0.00  0.00     0.000 A 
ENDROOT
BRANCH   1   7
ATOM      7  O   UNL d   1       5.129  -3.079   0.000  0.00  0.00    -0.303 OA
BRANCH   7   8
ATOM      8  C   UNL d   1       5.850  -3.487   0.000  0.00  0.00     0.145 C 
BRANCH   8   9
ATOM      9  C   UNL d   1       6.562  -3.075   0.000  0.00  0.00     0.149 C 
ATOM     10  N   UNL d   1       7.279  -3.479   0.000  0.00  0.00    -0.144 N 
ENDBRANCH   8   9
ENDBRANCH   7   8
ENDBRANCH   1   7
TORSDOF 3
