REMARK  0 active torsions:
REMARK  status: ('A' for Active; 'I' for Inactive)
ROOT
ATOM      1  N   UNL d   1       1.169  -1.958   0.000  0.00  0.00    -0.270 NA
ATOM      2  C   UNL d   1       1.169  -0.305   0.000  0.00  0.00    -0.001 A 
ATOM      3  C   UNL d   1       1.883  -0.718   0.000  0.00  0.00    -0.004 A 
ATOM      4  C   UNL d   1       0.464  -1.545   0.000  0.00  0.00     0.076 A 
ATOM      5  C   UNL d   1       1.883  -1.545   0.000  0.00  0.00     0.103 A 
ATOM      6  C   UNL d   1       0.464  -0.718   0.000  0.00  0.00     0.017 A 
ATOM      7  C   UNL d   1       1.169   0.522   0.000  0.00  0.00    -0.000 C 
ATOM      8  C   UNL d   1      -0.251  -1.958   0.000  0.00  0.00     0.019 A 
ATOM      9  C   UNL d   1       2.597  -1.131   0.000  0.00  0.00     0.029 C 
ATOM     10  C   UNL d   1       1.883  -2.372   0.000  0.00  0.00     0.029 C 
ATOM     11  C   UNL d   1      -0.246  -0.305   0.000  0.00  0.00     0.002 A 
ATOM     12  C   UNL d   1      -0.960  -1.545   0.000  0.00  0.00     0.002 A 
ATOM     13  C   UNL d   1      -0.965  -0.718   0.000  0.00  0.00     0.000 A 
ENDROOT
TORSDOF 0
