REMARK  4 active torsions:
REMARK  status: ('A' for Active; 'I' for Inactive)
REMARK    1  A    between atoms: C_6  and  C_1 
REMARK       I    between atoms: N_9  and  C_6 
REMARK    2  A    between atoms: C_13  and  N_9 
REMARK    3  A    between atoms: O_12  and  C_14 
REMARK    4  A    between atoms: C_14  and  C_13 
ROOT
ATOM      1  C   UNL d   1      -0.459  -4.309   0.000  0.00  0.00     0.084 A 
ATOM      2  C   UNL d   1      -0.713  -5.097   0.000  0.00  0.00     0.137 A 
ATOM      3  S   UNL d   1      -1.539  -5.097   0.000  0.00  0.00    -0.066 SA
ATOM      4  C   UNL d   1      -1.126  -3.829   0.000  0.00  0.00     0.013 A 
ATOM      5  C   UNL d   1      -1.790  -4.309   0.000  0.00  0.00     0.031 A 
ATOM      6  N   UNL d   1      -0.225  -5.769   0.000  0.00  0.00    -0.141 N 
ATOM      7  C   UNL d   1      -1.214  -3.007   0.000  0.00  0.00     0.001 A 
ATOM      8  C   UNL d   1      -2.549  -3.983   0.000  0.00  0.00     0.006 A 
ATOM      9  C   UNL d   1      -1.973  -2.678   0.000  0.00  0.00     0.000 A 
ATOM     10  C   UNL d   1      -2.636  -3.166   0.000  0.00  0.00     0.001 A 
ENDROOT
BRANCH   1  11
ATOM     11  C   UNL d   1       0.330  -4.059   0.000  0.00  0.00     0.281 C 
ATOM     12  O   UNL d   1       0.505  -3.254   0.000  0.00  0.00    -0.265 OA
ATOM     13  N   UNL d   1       0.943  -4.609   0.000  0.00  0.00    -0.204 NA
BRANCH  13  14
ATOM     14  C   UNL d   1       1.731  -4.359   0.000  0.00  0.00     0.128 C 
BRANCH  14  15
ATOM     15  C   UNL d   1       2.344  -4.910   0.000  0.00  0.00     0.137 C 
BRANCH  15  16
ATOM     16  O   UNL d   1       3.128  -4.659   0.000  0.00  0.00    -0.325 OA
ATOM     17  C   UNL d   1       3.742  -5.210   0.000  0.00  0.00     0.182 C 
ENDBRANCH  15  16
ENDBRANCH  14  15
ENDBRANCH  13  14
ENDBRANCH   1  11
TORSDOF 4
