REMARK  2 active torsions:
REMARK  status: ('A' for Active; 'I' for Inactive)
REMARK    1  A    between atoms: C_2  and  S_1 
REMARK    2  A    between atoms: N_4  and  S_1 
ROOT
ATOM      1  S   UNL d   1      -0.695   0.632   0.000  0.00  0.00     0.275 S 
ATOM      2  O   UNL d   1      -0.462   1.419   0.000  0.00  0.00    -0.199 OA
ATOM      3  O   UNL d   1      -0.932  -0.154   0.000  0.00  0.00    -0.199 OA
ENDROOT
BRANCH   1   4
ATOM      4  C   UNL d   1       0.087   0.383   0.000  0.00  0.00     0.143 A 
ATOM      5  C   UNL d   1       0.337  -0.404   0.000  0.00  0.00     0.117 A 
ATOM      6  N   UNL d   1       1.161  -0.404   0.000  0.00  0.00    -0.147 NA
ATOM      7  C   UNL d   1      -0.146  -1.073   0.000  0.00  0.00     0.023 C 
ATOM      8  N   UNL d   1       1.415   0.383   0.000  0.00  0.00    -0.147 NA
ATOM      9  C   UNL d   1       0.749   0.861   0.000  0.00  0.00     0.117 A 
ATOM     10  C   UNL d   1       0.749   1.685   0.000  0.00  0.00     0.023 C 
ENDBRANCH   1   4
BRANCH   1  11
ATOM     11  N   UNL d   1      -1.494   0.849   0.000  0.00  0.00    -0.225 N 
ATOM     12  C   UNL d   1      -1.706   1.656   0.000  0.00  0.00     0.118 A 
ATOM     13  C   UNL d   1      -2.505   1.872   0.000  0.00  0.00     0.142 A 
ATOM     14  O   UNL d   1      -3.091   1.294   0.000  0.00  0.00    -0.300 OA
ATOM     15  C   UNL d   1      -2.883   0.495   0.000  0.00  0.00     0.142 A 
ATOM     16  C   UNL d   1      -2.084   0.270   0.000  0.00  0.00     0.118 A 
ENDBRANCH   1  11
TORSDOF 2
