REMARK  6 active torsions:
REMARK  status: ('A' for Active; 'I' for Inactive)
REMARK    1  A    between atoms: N_5  and  C_1 
REMARK       I    between atoms: C_9  and  N_5 
REMARK    2  A    between atoms: C_20  and  C_6 
REMARK    3  A    between atoms: C_17  and  C_9 
REMARK    4  A    between atoms: C_12  and  C_10 
REMARK    5  A    between atoms: C_11  and  S_13 
REMARK    6  A    between atoms: S_13  and  C_17 
ROOT
ATOM      1  N   UNL d   1      -1.015   5.453   0.000  0.00  0.00    -0.148 NA
ATOM      2  N   UNL d   1      -1.729   5.040   0.000  0.00  0.00    -0.141 NA
ATOM      3  C   UNL d   1      -0.296   5.040   0.000  0.00  0.00     0.104 A 
ATOM      4  C   UNL d   1      -1.737   4.221   0.000  0.00  0.00     0.133 A 
ATOM      5  C   UNL d   1      -0.301   4.213   0.000  0.00  0.00     0.023 A 
ATOM      6  C   UNL d   1      -1.015   3.804   0.000  0.00  0.00     0.029 A 
ENDROOT
BRANCH   4   7
ATOM      7  S   UNL d   1      -2.451   3.808   0.000  0.00  0.00    -0.061 SA
BRANCH   7   8
ATOM      8  C   UNL d   1      -3.165   4.213   0.000  0.00  0.00     0.099 C 
BRANCH   8   9
ATOM      9  C   UNL d   1      -3.165   5.040   0.000  0.00  0.00     0.288 C 
ATOM     10  N   UNL d   1      -3.879   5.449   0.000  0.00  0.00    -0.181 NA
ATOM     11  O   UNL d   1      -2.455   5.453   0.000  0.00  0.00    -0.265 OA
BRANCH  10  12
ATOM     12  C   UNL d   1      -3.883   6.267   0.000  0.00  0.00     0.219 A 
ATOM     13  S   UNL d   1      -4.555   6.752   0.000  0.00  0.00    -0.026 SA
ATOM     14  C   UNL d   1      -4.305   7.528   0.000  0.00  0.00     0.135 A 
ATOM     15  N   UNL d   1      -3.482   7.532   0.000  0.00  0.00    -0.139 NA
ATOM     16  N   UNL d   1      -3.228   6.756   0.000  0.00  0.00    -0.121 NA
BRANCH  14  17
ATOM     17  C   UNL d   1      -4.793   8.196   0.000  0.00  0.00     0.028 C 
ATOM     18  C   UNL d   1      -4.468   8.948   0.000  0.00  0.00     0.002 C 
ENDBRANCH  14  17
ENDBRANCH  10  12
ENDBRANCH   8   9
ENDBRANCH   7   8
ENDBRANCH   4   7
BRANCH   3  19
ATOM     19  C   UNL d   1       0.418   5.453   0.000  0.00  0.00     0.039 A 
ATOM     20  C   UNL d   1       0.413   6.267   0.000  0.00  0.00     0.101 A 
ATOM     21  N   UNL d   1       1.119   6.681   0.000  0.00  0.00    -0.242 NA
ATOM     22  C   UNL d   1       1.841   6.267   0.000  0.00  0.00     0.099 A 
ATOM     23  C   UNL d   1       1.841   5.449   0.000  0.00  0.00     0.021 A 
ATOM     24  C   UNL d   1       1.131   5.027   0.000  0.00  0.00     0.005 A 
ENDBRANCH   3  19
TORSDOF 6
