REMARK  6 active torsions:
REMARK  status: ('A' for Active; 'I' for Inactive)
REMARK    1  A    between atoms: C_5  and  N_1 
REMARK    2  A    between atoms: C_10  and  C_4 
REMARK    3  A    between atoms: C_6  and  S_13 
REMARK    4  A    between atoms: C_8  and  C_11 
REMARK    5  A    between atoms: C_14  and  C_8 
REMARK    6  A    between atoms: S_13  and  C_14 
ROOT
ATOM      1  S   UNL d   1       1.054  -2.504   0.000  0.00  0.00    -0.062 SA
ENDROOT
BRANCH   1   2
ATOM      2  C   UNL d   1       1.775  -2.087   0.000  0.00  0.00     0.133 A 
ATOM      3  N   UNL d   1       1.775  -1.254   0.000  0.00  0.00    -0.141 NA
ATOM      4  N   UNL d   1       2.492  -0.842   0.000  0.00  0.00    -0.146 NA
ATOM      5  C   UNL d   1       3.204  -1.254   0.000  0.00  0.00     0.121 A 
ATOM      6  C   UNL d   1       3.204  -2.087   0.000  0.00  0.00     0.025 A 
ATOM      7  C   UNL d   1       2.492  -2.500   0.000  0.00  0.00     0.029 A 
BRANCH   5   8
ATOM      8  C   UNL d   1       3.917  -0.842   0.000  0.00  0.00     0.101 A 
ATOM      9  N   UNL d   1       3.917  -0.017   0.000  0.00  0.00    -0.242 NA
ATOM     10  C   UNL d   1       4.629   0.396   0.000  0.00  0.00     0.099 A 
ATOM     11  C   UNL d   1       5.354  -0.017   0.000  0.00  0.00     0.021 A 
ATOM     12  C   UNL d   1       5.354  -0.842   0.000  0.00  0.00     0.003 A 
ATOM     13  C   UNL d   1       4.638  -1.254   0.000  0.00  0.00     0.021 A 
ENDBRANCH   5   8
ENDBRANCH   1   2
BRANCH   1  14
ATOM     14  C   UNL d   1       1.054  -3.337   0.000  0.00  0.00     0.079 C 
BRANCH  14  15
ATOM     15  C   UNL d   1       0.342  -3.750   0.000  0.00  0.00     0.202 C 
ATOM     16  O   UNL d   1      -0.371  -3.337   0.000  0.00  0.00    -0.286 OA
BRANCH  15  17
ATOM     17  C   UNL d   1       0.342  -4.579   0.000  0.00  0.00     0.040 A 
ATOM     18  C   UNL d   1      -0.371  -4.992   0.000  0.00  0.00     0.005 A 
ATOM     19  C   UNL d   1      -0.371  -5.817   0.000  0.00  0.00     0.024 A 
ATOM     20  C   UNL d   1       0.342  -6.229   0.000  0.00  0.00     0.127 A 
ATOM     21  C   UNL d   1       1.054  -5.817   0.000  0.00  0.00     0.024 A 
ATOM     22  C   UNL d   1       1.054  -4.992   0.000  0.00  0.00     0.005 A 
BRANCH  20  23
ATOM     23  N   UNL d   1       0.342  -7.054   0.000  0.00  0.00    -0.114 N 
ATOM     24  O   UNL d   1      -0.371  -7.467   0.000  0.00  0.00    -0.532 OA
ATOM     25  O   UNL d   1       1.062  -7.467   0.000  0.00  0.00    -0.532 OA
ENDBRANCH  20  23
ENDBRANCH  15  17
ENDBRANCH  14  15
ENDBRANCH   1  14
TORSDOF 6
