REMARK  6 active torsions:
REMARK  status: ('A' for Active; 'I' for Inactive)
REMARK    1  A    between atoms: C_3  and  N_4 
REMARK       I    between atoms: N_4  and  C_6 
REMARK    2  A    between atoms: C_9  and  C_5 
REMARK    3  A    between atoms: C_6  and  C_16 
REMARK    4  A    between atoms: S_12  and  C_7 
REMARK    5  A    between atoms: O_20  and  C_8 
REMARK    6  A    between atoms: C_16  and  S_12 
ROOT
ATOM      1  S   UNL d   1       1.050  -2.692   0.000  0.00  0.00    -0.061 SA
ENDROOT
BRANCH   1   2
ATOM      2  C   UNL d   1       1.767  -2.279   0.000  0.00  0.00     0.133 A 
ATOM      3  N   UNL d   1       1.775  -1.454   0.000  0.00  0.00    -0.141 NA
ATOM      4  N   UNL d   1       2.492  -1.042   0.000  0.00  0.00    -0.146 NA
ATOM      5  C   UNL d   1       3.212  -1.462   0.000  0.00  0.00     0.121 A 
ATOM      6  C   UNL d   1       3.204  -2.288   0.000  0.00  0.00     0.025 A 
ATOM      7  C   UNL d   1       2.492  -2.700   0.000  0.00  0.00     0.029 A 
BRANCH   5   8
ATOM      8  C   UNL d   1       3.929  -1.042   0.000  0.00  0.00     0.101 A 
ATOM      9  N   UNL d   1       3.925  -0.217   0.000  0.00  0.00    -0.242 NA
ATOM     10  C   UNL d   1       4.629   0.183   0.000  0.00  0.00     0.099 A 
ATOM     11  C   UNL d   1       5.354  -0.229   0.000  0.00  0.00     0.021 A 
ATOM     12  C   UNL d   1       5.354  -1.050   0.000  0.00  0.00     0.003 A 
ATOM     13  C   UNL d   1       4.642  -1.467   0.000  0.00  0.00     0.021 A 
ENDBRANCH   5   8
ENDBRANCH   1   2
BRANCH   1  14
ATOM     14  C   UNL d   1       0.338  -2.288   0.000  0.00  0.00     0.099 C 
BRANCH  14  15
ATOM     15  C   UNL d   1       0.338  -1.467   0.000  0.00  0.00     0.286 C 
ATOM     16  N   UNL d   1       1.042  -1.050   0.000  0.00  0.00    -0.206 NA
ATOM     17  O   UNL d   1      -0.375  -1.050   0.000  0.00  0.00    -0.265 OA
BRANCH  16  18
ATOM     18  C   UNL d   1       1.042  -0.217   0.000  0.00  0.00     0.107 A 
ATOM     19  C   UNL d   1       1.754   0.196   0.000  0.00  0.00     0.112 A 
ATOM     20  C   UNL d   1       1.754   1.012   0.000  0.00  0.00     0.026 A 
ATOM     21  C   UNL d   1       1.038   1.433   0.000  0.00  0.00     0.002 A 
ATOM     22  C   UNL d   1       0.317   1.021   0.000  0.00  0.00     0.002 A 
ATOM     23  C   UNL d   1       0.325   0.196   0.000  0.00  0.00     0.021 A 
ATOM     24  C   UNL d   1      -0.388   1.433   0.000  0.00  0.00     0.000 C 
BRANCH  19  25
ATOM     25  O   UNL d   1       2.462  -0.125   0.000  0.00  0.00    -0.327 OA
ATOM     26  C   UNL d   1       3.150   0.312   0.000  0.00  0.00     0.181 C 
ENDBRANCH  19  25
ENDBRANCH  16  18
ENDBRANCH  14  15
ENDBRANCH   1  14
TORSDOF 6
