REMARK  8 active torsions:
REMARK  status: ('A' for Active; 'I' for Inactive)
REMARK    1  A    between atoms: C_2  and  C_4 
REMARK    2  A    between atoms: S_9  and  C_6 
REMARK    3  A    between atoms: C_7  and  C_17 
REMARK       I    between atoms: N_16  and  C_7 
REMARK    4  A    between atoms: C_17  and  S_9 
REMARK    5  A    between atoms: O_19  and  C_14 
REMARK    6  A    between atoms: C_15  and  C_21 
REMARK    7  A    between atoms: C_20  and  N_16 
REMARK    8  A    between atoms: C_21  and  C_20 
ROOT
ATOM      1  C   UNL d   1      -3.165   5.040   0.000  0.00  0.00     0.286 C 
ATOM      2  O   UNL d   1      -3.879   5.449   0.000  0.00  0.00    -0.265 OA
ATOM      3  N   UNL d   1      -2.463   5.453   0.000  0.00  0.00    -0.206 NA
ENDROOT
BRANCH   1   4
ATOM      4  C   UNL d   1      -3.165   4.213   0.000  0.00  0.00     0.099 C 
BRANCH   4   5
ATOM      5  S   UNL d   1      -2.451   3.808   0.000  0.00  0.00    -0.061 SA
BRANCH   5   6
ATOM      6  C   UNL d   1      -1.737   4.221   0.000  0.00  0.00     0.133 A 
ATOM      7  N   UNL d   1      -1.729   5.040   0.000  0.00  0.00    -0.141 NA
ATOM      8  N   UNL d   1      -1.023   5.453   0.000  0.00  0.00    -0.147 NA
ATOM      9  C   UNL d   1      -0.309   5.040   0.000  0.00  0.00     0.109 A 
ATOM     10  C   UNL d   1      -0.309   4.213   0.000  0.00  0.00     0.024 A 
ATOM     11  C   UNL d   1      -1.015   3.808   0.000  0.00  0.00     0.029 A 
BRANCH   9  12
ATOM     12  C   UNL d   1       0.405   5.449   0.000  0.00  0.00     0.049 A 
ATOM     13  S   UNL d   1       0.501   6.267   0.000  0.00  0.00    -0.085 SA
ATOM     14  C   UNL d   1       1.307   6.442   0.000  0.00  0.00     0.035 A 
ATOM     15  C   UNL d   1       1.720   5.716   0.000  0.00  0.00     0.007 A 
ATOM     16  C   UNL d   1       1.165   5.102   0.000  0.00  0.00     0.009 A 
ENDBRANCH   9  12
ENDBRANCH   5   6
ENDBRANCH   4   5
ENDBRANCH   1   4
BRANCH   3  17
ATOM     17  C   UNL d   1      -2.463   6.280   0.000  0.00  0.00     0.102 C 
BRANCH  17  18
ATOM     18  C   UNL d   1      -1.754   6.693   0.000  0.00  0.00     0.023 C 
BRANCH  18  19
ATOM     19  C   UNL d   1      -1.754   7.520   0.000  0.00  0.00     0.024 A 
ATOM     20  C   UNL d   1      -1.048   7.933   0.000  0.00  0.00     0.094 A 
ATOM     21  C   UNL d   1      -1.048   8.747   0.000  0.00  0.00     0.024 A 
ATOM     22  C   UNL d   1      -1.766   9.161   0.000  0.00  0.00     0.002 A 
ATOM     23  C   UNL d   1      -2.480   8.743   0.000  0.00  0.00     0.000 A 
ATOM     24  C   UNL d   1      -2.468   7.921   0.000  0.00  0.00     0.002 A 
BRANCH  20  25
ATOM     25  O   UNL d   1      -0.334   7.528   0.000  0.00  0.00    -0.328 OA
ATOM     26  C   UNL d   1      -0.334   6.706   0.000  0.00  0.00     0.181 C 
ENDBRANCH  20  25
ENDBRANCH  18  19
ENDBRANCH  17  18
ENDBRANCH   3  17
TORSDOF 8
