REMARK  2 active torsions:
REMARK  status: ('A' for Active; 'I' for Inactive)
REMARK    1  A    between atoms: C_4  and  C_3 
REMARK    2  A    between atoms: S_11  and  C_6 
ROOT
ATOM      1  N   UNL d   1      -3.165   6.693   0.000  0.00  0.00    -0.146 NA
ATOM      2  N   UNL d   1      -3.165   5.866   0.000  0.00  0.00    -0.142 NA
ATOM      3  C   UNL d   1      -2.451   7.102   0.000  0.00  0.00     0.126 A 
ATOM      4  C   UNL d   1      -2.451   5.453   0.000  0.00  0.00     0.128 A 
ATOM      5  C   UNL d   1      -1.737   6.689   0.000  0.00  0.00     0.025 A 
ATOM      6  C   UNL d   1      -1.737   5.866   0.000  0.00  0.00     0.029 A 
ENDROOT
BRANCH   3   7
ATOM      7  C   UNL d   1      -2.443   7.921   0.000  0.00  0.00     0.119 A 
ATOM      8  O   UNL d   1      -3.106   8.409   0.000  0.00  0.00    -0.304 OA
ATOM      9  C   UNL d   1      -2.856   9.198   0.000  0.00  0.00     0.123 A 
ATOM     10  C   UNL d   1      -2.025   9.198   0.000  0.00  0.00     0.029 A 
ATOM     11  C   UNL d   1      -1.774   8.409   0.000  0.00  0.00     0.028 A 
ENDBRANCH   3   7
BRANCH   4  12
ATOM     12  S   UNL d   1      -2.451   4.626   0.000  0.00  0.00    -0.092 SA
ATOM     13  C   UNL d   1      -3.165   4.213   0.000  0.00  0.00     0.076 C 
ENDBRANCH   4  12
TORSDOF 2
