REMARK  6 active torsions:
REMARK  status: ('A' for Active; 'I' for Inactive)
REMARK    1  A    between atoms: C_7  and  C_1 
REMARK    2  A    between atoms: C_9  and  N_10 
REMARK       I    between atoms: N_10  and  C_11 
REMARK    3  A    between atoms: C_11  and  C_19 
REMARK    4  A    between atoms: S_15  and  C_12 
REMARK    5  A    between atoms: O_24  and  C_13 
REMARK    6  A    between atoms: C_19  and  S_15 
ROOT
ATOM      1  S   UNL d   1       1.104  -2.704   0.000  0.00  0.00    -0.061 SA
ENDROOT
BRANCH   1   2
ATOM      2  C   UNL d   1       1.829  -2.279   0.000  0.00  0.00     0.133 A 
ATOM      3  C   UNL d   1       2.542  -2.692   0.000  0.00  0.00     0.029 A 
ATOM      4  C   UNL d   1       3.254  -2.279   0.000  0.00  0.00     0.024 A 
ATOM      5  C   UNL d   1       3.254  -1.454   0.000  0.00  0.00     0.111 A 
ATOM      6  N   UNL d   1       2.542  -1.042   0.000  0.00  0.00    -0.147 NA
ATOM      7  N   UNL d   1       1.829  -1.454   0.000  0.00  0.00    -0.141 NA
BRANCH   5   8
ATOM      8  C   UNL d   1       3.967  -1.042   0.000  0.00  0.00     0.068 A 
ATOM      9  C   UNL d   1       4.742  -1.342   0.000  0.00  0.00     0.089 A 
ATOM     10  N   UNL d   1       5.267  -0.704   0.000  0.00  0.00    -0.238 NA
ATOM     11  C   UNL d   1       4.954  -2.142   0.000  0.00  0.00     0.021 C 
ATOM     12  C   UNL d   1       4.817  -0.013   0.000  0.00  0.00     0.111 A 
ATOM     13  S   UNL d   1       4.017  -0.217   0.000  0.00  0.00    -0.065 SA
ATOM     14  C   UNL d   1       5.117   0.771   0.000  0.00  0.00     0.028 C 
ENDBRANCH   5   8
ENDBRANCH   1   2
BRANCH   1  15
ATOM     15  C   UNL d   1       1.113  -3.529   0.000  0.00  0.00     0.099 C 
BRANCH  15  16
ATOM     16  C   UNL d   1       0.400  -3.942   0.000  0.00  0.00     0.286 C 
ATOM     17  N   UNL d   1       0.400  -4.775   0.000  0.00  0.00    -0.206 NA
ATOM     18  O   UNL d   1      -0.321  -3.529   0.000  0.00  0.00    -0.265 OA
BRANCH  17  19
ATOM     19  C   UNL d   1      -0.312  -5.188   0.000  0.00  0.00     0.107 A 
ATOM     20  C   UNL d   1      -1.033  -4.775   0.000  0.00  0.00     0.112 A 
ATOM     21  C   UNL d   1      -1.746  -5.188   0.000  0.00  0.00     0.026 A 
ATOM     22  C   UNL d   1      -1.746  -6.017   0.000  0.00  0.00     0.002 A 
ATOM     23  C   UNL d   1      -1.025  -6.429   0.000  0.00  0.00     0.002 A 
ATOM     24  C   UNL d   1      -0.312  -6.017   0.000  0.00  0.00     0.021 A 
ATOM     25  C   UNL d   1      -1.021  -7.254   0.000  0.00  0.00     0.000 C 
BRANCH  20  26
ATOM     26  O   UNL d   1      -1.033  -3.950   0.000  0.00  0.00    -0.327 OA
ATOM     27  C   UNL d   1      -1.746  -3.538   0.000  0.00  0.00     0.181 C 
ENDBRANCH  20  26
ENDBRANCH  17  19
ENDBRANCH  15  16
ENDBRANCH   1  15
TORSDOF 6
