REMARK  5 active torsions:
REMARK  status: ('A' for Active; 'I' for Inactive)
REMARK    1  A    between atoms: N_3  and  C_1 
REMARK       I    between atoms: C_9  and  N_3 
REMARK    2  A    between atoms: C_12  and  C_7 
REMARK    3  A    between atoms: C_17  and  C_9 
REMARK    4  A    between atoms: C_11  and  S_14 
REMARK    5  A    between atoms: S_14  and  C_17 
ROOT
ATOM      1  N   UNL d   1      -1.014   5.451   0.000  0.00  0.00    -0.146 NA
ATOM      2  N   UNL d   1      -1.728   5.038   0.000  0.00  0.00    -0.141 NA
ATOM      3  C   UNL d   1      -0.296   5.038   0.000  0.00  0.00     0.121 A 
ATOM      4  C   UNL d   1      -1.736   4.220   0.000  0.00  0.00     0.133 A 
ATOM      5  C   UNL d   1      -0.300   4.211   0.000  0.00  0.00     0.025 A 
ATOM      6  C   UNL d   1      -1.014   3.802   0.000  0.00  0.00     0.029 A 
ENDROOT
BRANCH   4   7
ATOM      7  S   UNL d   1      -2.450   3.807   0.000  0.00  0.00    -0.061 SA
BRANCH   7   8
ATOM      8  C   UNL d   1      -3.164   4.211   0.000  0.00  0.00     0.099 C 
BRANCH   8   9
ATOM      9  C   UNL d   1      -3.164   5.038   0.000  0.00  0.00     0.288 C 
ATOM     10  N   UNL d   1      -3.877   5.451   0.000  0.00  0.00    -0.182 NA
ATOM     11  O   UNL d   1      -2.454   5.451   0.000  0.00  0.00    -0.265 OA
BRANCH  10  12
ATOM     12  C   UNL d   1      -3.890   6.273   0.000  0.00  0.00     0.197 A 
ATOM     13  N   UNL d   1      -3.226   6.753   0.000  0.00  0.00    -0.221 NA
ATOM     14  C   UNL d   1      -3.481   7.530   0.000  0.00  0.00     0.090 A 
ATOM     15  C   UNL d   1      -3.001   8.206   0.000  0.00  0.00     0.021 C 
ATOM     16  C   UNL d   1      -4.303   7.525   0.000  0.00  0.00     0.058 A 
ATOM     17  S   UNL d   1      -4.554   6.749   0.000  0.00  0.00    -0.046 SA
ENDBRANCH  10  12
ENDBRANCH   8   9
ENDBRANCH   7   8
ENDBRANCH   4   7
BRANCH   3  18
ATOM     18  C   UNL d   1       0.417   5.451   0.000  0.00  0.00     0.101 A 
ATOM     19  N   UNL d   1       0.413   6.265   0.000  0.00  0.00    -0.242 NA
ATOM     20  C   UNL d   1       1.119   6.678   0.000  0.00  0.00     0.099 A 
ATOM     21  C   UNL d   1       1.841   6.265   0.000  0.00  0.00     0.021 A 
ATOM     22  C   UNL d   1       1.841   5.447   0.000  0.00  0.00     0.003 A 
ATOM     23  C   UNL d   1       1.131   5.025   0.000  0.00  0.00     0.021 A 
ENDBRANCH   3  18
TORSDOF 5
