REMARK  5 active torsions:
REMARK  status: ('A' for Active; 'I' for Inactive)
REMARK    1  A    between atoms: C_7  and  C_1 
REMARK    2  A    between atoms: C_9  and  C_17 
REMARK       I    between atoms: N_11  and  C_9 
REMARK    3  A    between atoms: S_12  and  C_10 
REMARK    4  A    between atoms: C_13  and  N_11 
REMARK    5  A    between atoms: C_17  and  S_12 
ROOT
ATOM      1  N   UNL d   1      -1.006   5.441   0.000  0.00  0.00    -0.147 NA
ATOM      2  C   UNL d   1      -0.287   5.018   0.000  0.00  0.00     0.111 A 
ATOM      3  N   UNL d   1      -1.717   5.030   0.000  0.00  0.00    -0.141 NA
ATOM      4  C   UNL d   1      -1.717   4.203   0.000  0.00  0.00     0.133 A 
ATOM      5  C   UNL d   1      -0.295   4.207   0.000  0.00  0.00     0.024 A 
ATOM      6  C   UNL d   1      -0.998   3.799   0.000  0.00  0.00     0.029 A 
ENDROOT
BRANCH   4   7
ATOM      7  S   UNL d   1      -2.432   3.791   0.000  0.00  0.00    -0.061 SA
BRANCH   7   8
ATOM      8  C   UNL d   1      -3.151   4.203   0.000  0.00  0.00     0.099 C 
BRANCH   8   9
ATOM      9  C   UNL d   1      -3.151   5.018   0.000  0.00  0.00     0.286 C 
ATOM     10  N   UNL d   1      -3.862   5.437   0.000  0.00  0.00    -0.208 NA
ATOM     11  O   UNL d   1      -2.432   5.441   0.000  0.00  0.00    -0.265 OA
BRANCH  10  12
ATOM     12  C   UNL d   1      -3.866   6.264   0.000  0.00  0.00     0.086 A 
ATOM     13  C   UNL d   1      -3.151   6.676   0.000  0.00  0.00     0.031 A 
ATOM     14  C   UNL d   1      -3.151   7.507   0.000  0.00  0.00     0.059 A 
ATOM     15 CL   UNL d   1      -2.432   7.923   0.000  0.00  0.00    -0.082 Cl
ATOM     16  C   UNL d   1      -3.874   7.911   0.000  0.00  0.00     0.011 A 
ATOM     17  C   UNL d   1      -4.585   7.495   0.000  0.00  0.00     0.002 A 
ATOM     18  C   UNL d   1      -4.585   6.672   0.000  0.00  0.00     0.019 A 
ENDBRANCH  10  12
ENDBRANCH   8   9
ENDBRANCH   7   8
ENDBRANCH   4   7
BRANCH   2  19
ATOM     19  C   UNL d   1       0.428   5.437   0.000  0.00  0.00     0.068 A 
ATOM     20  C   UNL d   1       1.185   5.092   0.000  0.00  0.00     0.089 A 
ATOM     21  N   UNL d   1       1.738   5.716   0.000  0.00  0.00    -0.238 NA
ATOM     22  C   UNL d   1       1.351   4.294   0.000  0.00  0.00     0.021 C 
ATOM     23  C   UNL d   1       1.322   6.427   0.000  0.00  0.00     0.111 A 
ATOM     24  S   UNL d   1       0.515   6.252   0.000  0.00  0.00    -0.065 SA
ATOM     25  C   UNL d   1       1.663   7.183   0.000  0.00  0.00     0.028 C 
ENDBRANCH   2  19
TORSDOF 5
