REMARK  6 active torsions:
REMARK  status: ('A' for Active; 'I' for Inactive)
REMARK    1  A    between atoms: C_9  and  C_3 
REMARK    2  A    between atoms: C_4  and  C_18 
REMARK       I    between atoms: N_7  and  C_4 
REMARK    3  A    between atoms: S_11  and  C_5 
REMARK       I    between atoms: C_6  and  N_8 
REMARK    4  A    between atoms: C_12  and  N_7 
REMARK    5  A    between atoms: N_8  and  C_13 
REMARK    6  A    between atoms: C_18  and  S_11 
ROOT
ATOM      1  C   UNL d   1      -3.165   4.213   0.000  0.00  0.00     0.099 C 
ENDROOT
BRANCH   1   2
ATOM      2  C   UNL d   1      -3.165   5.035   0.000  0.00  0.00     0.286 C 
ATOM      3  N   UNL d   1      -3.879   5.449   0.000  0.00  0.00    -0.207 NA
ATOM      4  O   UNL d   1      -2.451   5.449   0.000  0.00  0.00    -0.265 OA
BRANCH   3   5
ATOM      5  C   UNL d   1      -3.879   6.276   0.000  0.00  0.00     0.086 A 
ATOM      6  C   UNL d   1      -3.165   6.681   0.000  0.00  0.00     0.038 A 
ATOM      7  C   UNL d   1      -3.165   7.507   0.000  0.00  0.00     0.086 A 
ATOM      8  C   UNL d   1      -3.883   7.916   0.000  0.00  0.00     0.019 A 
ATOM      9  C   UNL d   1      -4.593   7.495   0.000  0.00  0.00     0.003 A 
ATOM     10  C   UNL d   1      -4.593   6.681   0.000  0.00  0.00     0.019 A 
BRANCH   7  11
ATOM     11  N   UNL d   1      -2.451   7.921   0.000  0.00  0.00    -0.208 NA
ATOM     12  C   UNL d   1      -1.737   7.516   0.000  0.00  0.00     0.279 C 
ATOM     13  O   UNL d   1      -1.737   6.681   0.000  0.00  0.00    -0.265 OA
ATOM     14  C   UNL d   1      -1.023   7.921   0.000  0.00  0.00     0.068 C 
ENDBRANCH   7  11
ENDBRANCH   3   5
ENDBRANCH   1   2
BRANCH   1  15
ATOM     15  S   UNL d   1      -2.451   3.808   0.000  0.00  0.00    -0.061 SA
BRANCH  15  16
ATOM     16  C   UNL d   1      -1.737   4.221   0.000  0.00  0.00     0.133 A 
ATOM     17  N   UNL d   1      -1.729   5.040   0.000  0.00  0.00    -0.141 NA
ATOM     18  N   UNL d   1      -1.015   5.453   0.000  0.00  0.00    -0.148 NA
ATOM     19  C   UNL d   1      -0.296   5.040   0.000  0.00  0.00     0.104 A 
ATOM     20  C   UNL d   1      -0.301   4.213   0.000  0.00  0.00     0.023 A 
ATOM     21  C   UNL d   1      -1.015   3.804   0.000  0.00  0.00     0.029 A 
BRANCH  19  22
ATOM     22  C   UNL d   1       0.418   5.453   0.000  0.00  0.00     0.039 A 
ATOM     23  C   UNL d   1       0.413   6.267   0.000  0.00  0.00     0.101 A 
ATOM     24  N   UNL d   1       1.119   6.681   0.000  0.00  0.00    -0.242 NA
ATOM     25  C   UNL d   1       1.841   6.267   0.000  0.00  0.00     0.099 A 
ATOM     26  C   UNL d   1       1.841   5.449   0.000  0.00  0.00     0.021 A 
ATOM     27  C   UNL d   1       1.131   5.027   0.000  0.00  0.00     0.005 A 
ENDBRANCH  19  22
ENDBRANCH  15  16
ENDBRANCH   1  15
TORSDOF 6
