REMARK  4 active torsions:
REMARK  status: ('A' for Active; 'I' for Inactive)
REMARK    1  A    between atoms: C_4  and  C_3 
REMARK    2  A    between atoms: S_8  and  C_5 
REMARK    3  A    between atoms: C_13  and  S_8 
REMARK    4  A    between atoms: C_14  and  C_13 
ROOT
ATOM      1  N   UNL d   1      -1.021   5.442   0.000  0.00  0.00    -0.146 NA
ATOM      2  N   UNL d   1      -1.725   5.029   0.000  0.00  0.00    -0.141 NA
ATOM      3  C   UNL d   1      -0.308   5.029   0.000  0.00  0.00     0.126 A 
ATOM      4  C   UNL d   1      -1.733   4.213   0.000  0.00  0.00     0.132 A 
ATOM      5  C   UNL d   1      -0.308   4.204   0.000  0.00  0.00     0.025 A 
ATOM      6  C   UNL d   1      -1.012   3.800   0.000  0.00  0.00     0.029 A 
ENDROOT
BRANCH   4   7
ATOM      7  S   UNL d   1      -2.446   3.800   0.000  0.00  0.00    -0.066 SA
BRANCH   7   8
ATOM      8  C   UNL d   1      -3.158   4.204   0.000  0.00  0.00     0.037 C 
BRANCH   8   9
ATOM      9  C   UNL d   1      -3.158   5.029   0.000  0.00  0.00     0.006 A 
ATOM     10  C   UNL d   1      -2.446   5.438   0.000  0.00  0.00     0.001 A 
ATOM     11  C   UNL d   1      -2.438   6.254   0.000  0.00  0.00     0.000 A 
ATOM     12  C   UNL d   1      -3.158   6.667   0.000  0.00  0.00     0.000 A 
ATOM     13  C   UNL d   1      -3.862   6.254   0.000  0.00  0.00     0.000 A 
ATOM     14  C   UNL d   1      -3.858   5.429   0.000  0.00  0.00     0.001 A 
ENDBRANCH   8   9
ENDBRANCH   7   8
ENDBRANCH   4   7
BRANCH   3  15
ATOM     15  C   UNL d   1       0.404   5.438   0.000  0.00  0.00     0.119 A 
ATOM     16  O   UNL d   1       0.500   6.254   0.000  0.00  0.00    -0.304 OA
ATOM     17  C   UNL d   1       1.304   6.429   0.000  0.00  0.00     0.123 A 
ATOM     18  C   UNL d   1       1.717   5.704   0.000  0.00  0.00     0.029 A 
ATOM     19  C   UNL d   1       1.163   5.092   0.000  0.00  0.00     0.028 A 
ENDBRANCH   3  15
TORSDOF 4
