REMARK  4 active torsions:
REMARK  status: ('A' for Active; 'I' for Inactive)
REMARK    1  A    between atoms: C_5  and  C_3 
REMARK    2  A    between atoms: S_6  and  C_4 
REMARK    3  A    between atoms: C_10  and  S_6 
REMARK    4  A    between atoms: C_12  and  C_10 
ROOT
ATOM      1  N   UNL d   1      -1.015   5.453   0.000  0.00  0.00    -0.148 NA
ATOM      2  N   UNL d   1      -1.729   5.040   0.000  0.00  0.00    -0.141 NA
ATOM      3  C   UNL d   1      -0.296   5.040   0.000  0.00  0.00     0.104 A 
ATOM      4  C   UNL d   1      -1.737   4.221   0.000  0.00  0.00     0.132 A 
ATOM      5  C   UNL d   1      -0.301   4.213   0.000  0.00  0.00     0.023 A 
ATOM      6  C   UNL d   1      -1.015   3.804   0.000  0.00  0.00     0.029 A 
ENDROOT
BRANCH   4   7
ATOM      7  S   UNL d   1      -2.451   3.808   0.000  0.00  0.00    -0.066 SA
BRANCH   7   8
ATOM      8  C   UNL d   1      -3.165   4.213   0.000  0.00  0.00     0.037 C 
BRANCH   8   9
ATOM      9  C   UNL d   1      -3.165   5.040   0.000  0.00  0.00     0.006 A 
ATOM     10  C   UNL d   1      -2.451   5.449   0.000  0.00  0.00     0.001 A 
ATOM     11  C   UNL d   1      -2.443   6.267   0.000  0.00  0.00     0.000 A 
ATOM     12  C   UNL d   1      -3.165   6.681   0.000  0.00  0.00     0.000 A 
ATOM     13  C   UNL d   1      -3.870   6.267   0.000  0.00  0.00     0.000 A 
ATOM     14  C   UNL d   1      -3.866   5.441   0.000  0.00  0.00     0.001 A 
ENDBRANCH   8   9
ENDBRANCH   7   8
ENDBRANCH   4   7
BRANCH   3  15
ATOM     15  C   UNL d   1       0.418   5.453   0.000  0.00  0.00     0.039 A 
ATOM     16  C   UNL d   1       0.413   6.267   0.000  0.00  0.00     0.101 A 
ATOM     17  N   UNL d   1       1.119   6.681   0.000  0.00  0.00    -0.242 NA
ATOM     18  C   UNL d   1       1.841   6.267   0.000  0.00  0.00     0.099 A 
ATOM     19  C   UNL d   1       1.841   5.449   0.000  0.00  0.00     0.021 A 
ATOM     20  C   UNL d   1       1.131   5.027   0.000  0.00  0.00     0.005 A 
ENDBRANCH   3  15
TORSDOF 4
