REMARK  10 active torsions:
REMARK  status: ('A' for Active; 'I' for Inactive)
REMARK    1  A    between atoms: C_15  and  C_3 
REMARK       I    between atoms: C_8  and  N_7 
REMARK    2  A    between atoms: O_29  and  C_8 
REMARK       I    between atoms: N_9  and  C_11 
REMARK    3  A    between atoms: S_17  and  C_10 
REMARK    4  A    between atoms: C_11  and  C_23 
REMARK       I    between atoms: C_13  and  N_26 
REMARK    5  A    between atoms: C_16  and  C_13 
REMARK    6  A    between atoms: C_30  and  C_15 
REMARK    7  A    between atoms: C_23  and  S_17 
REMARK    8  A    between atoms: N_26  and  C_30 
REMARK    9  A    between atoms: C_35  and  O_29 
REMARK   10  A    between atoms: O_34  and  C_31 
ROOT
ATOM      1  N   UNL d   1      -1.868   2.541   0.000  0.00  0.00    -0.191 N 
ATOM      2  C   UNL d   1      -2.127   3.331   0.000  0.00  0.00     0.187 A 
ATOM      3  C   UNL d   1      -1.041   2.541   0.000  0.00  0.00     0.188 A 
ATOM      4  N   UNL d   1      -2.420   1.927   0.000  0.00  0.00    -0.156 NA
ATOM      5  N   UNL d   1      -1.454   3.812   0.000  0.00  0.00    -0.127 NA
ATOM      6  N   UNL d   1      -0.786   3.331   0.000  0.00  0.00    -0.127 NA
ATOM      7  C   UNL d   1      -3.231   2.102   0.000  0.00  0.00     0.131 A 
ATOM      8  C   UNL d   1      -2.930   3.494   0.000  0.00  0.00     0.043 A 
ATOM      9  C   UNL d   1      -3.486   2.884   0.000  0.00  0.00     0.031 A 
ENDROOT
BRANCH   7  10
ATOM     10  S   UNL d   1      -3.783   1.480   0.000  0.00  0.00    -0.061 SA
BRANCH  10  11
ATOM     11  C   UNL d   1      -4.598   1.651   0.000  0.00  0.00     0.098 C 
BRANCH  11  12
ATOM     12  C   UNL d   1      -4.848   2.445   0.000  0.00  0.00     0.272 C 
ATOM     13  N   UNL d   1      -5.651   2.608   0.000  0.00  0.00    -0.269 N 
ATOM     14  C   UNL d   1      -6.186   1.990   0.000  0.00  0.00     0.102 A 
ATOM     15  C   UNL d   1      -5.914   3.385   0.000  0.00  0.00     0.102 A 
ATOM     16  C   UNL d   1      -7.001   2.165   0.000  0.00  0.00     0.104 A 
ATOM     17  N   UNL d   1      -7.252   2.955   0.000  0.00  0.00    -0.249 N 
ATOM     18  C   UNL d   1      -6.708   3.557   0.000  0.00  0.00     0.104 A 
ATOM     19  C   UNL d   1      -8.067   3.118   0.000  0.00  0.00     0.378 C 
ATOM     20  O   UNL d   1      -8.318   3.908   0.000  0.00  0.00    -0.237 OA
ATOM     21  O   UNL d   1      -4.297   3.055   0.000  0.00  0.00    -0.266 OA
BRANCH  19  22
ATOM     22  O   UNL d   1      -8.606   2.504   0.000  0.00  0.00    -0.257 OA
BRANCH  22  23
ATOM     23  C   UNL d   1      -9.408   2.679   0.000  0.00  0.00     0.128 C 
ATOM     24  C   UNL d   1      -9.960   2.069   0.000  0.00  0.00     0.029 C 
ENDBRANCH  22  23
ENDBRANCH  19  22
ENDBRANCH  11  12
ENDBRANCH  10  11
ENDBRANCH   7  10
BRANCH   3  25
ATOM     25  C   UNL d   1      -0.560   1.868   0.000  0.00  0.00     0.061 C 
BRANCH  25  26
ATOM     26  C   UNL d   1      -0.899   1.112   0.000  0.00  0.00     0.105 C 
BRANCH  26  27
ATOM     27  N   UNL d   1      -0.410   0.447   0.000  0.00  0.00    -0.206 NA
ATOM     28  C   UNL d   1      -0.748  -0.314   0.000  0.00  0.00     0.279 C 
ATOM     29  O   UNL d   1      -1.576  -0.393   0.000  0.00  0.00    -0.265 OA
BRANCH  28  30
ATOM     30  C   UNL d   1      -0.263  -0.978   0.000  0.00  0.00     0.058 A 
ATOM     31  C   UNL d   1      -0.602  -1.730   0.000  0.00  0.00     0.007 A 
ATOM     32  C   UNL d   1      -0.121  -2.399   0.000  0.00  0.00     0.024 A 
ATOM     33  C   UNL d   1       0.702  -2.311   0.000  0.00  0.00     0.094 A 
ATOM     34  C   UNL d   1       1.041  -1.559   0.000  0.00  0.00     0.024 A 
ATOM     35  C   UNL d   1       0.552  -0.890   0.000  0.00  0.00     0.007 A 
BRANCH  33  36
ATOM     36  O   UNL d   1       1.183  -2.976   0.000  0.00  0.00    -0.328 OA
ATOM     37  C   UNL d   1       1.998  -2.897   0.000  0.00  0.00     0.181 C 
ENDBRANCH  33  36
ENDBRANCH  28  30
ENDBRANCH  26  27
ENDBRANCH  25  26
ENDBRANCH   3  25
TORSDOF 10
