REMARK  8 active torsions:
REMARK  status: ('A' for Active; 'I' for Inactive)
REMARK    1  A    between atoms: C_5  and  C_1 
REMARK    2  A    between atoms: C_9  and  N_2 
REMARK    3  A    between atoms: C_8  and  C_5 
REMARK    4  A    between atoms: C_7  and  C_9 
REMARK       I    between atoms: N_12  and  C_7 
REMARK       I    between atoms: N_10  and  C_8 
REMARK    5  A    between atoms: C_20  and  N_10 
REMARK    6  A    between atoms: C_11  and  C_20 
REMARK    7  A    between atoms: C_23  and  N_12 
REMARK    8  A    between atoms: C_24  and  N_12 
ROOT
ATOM      1  C   UNL d   1      -2.021   2.271   0.000  0.00  0.00     0.063 A 
ATOM      2  N   UNL d   1      -2.433   0.996   0.000  0.00  0.00    -0.300 N 
ATOM      3  C   UNL d   1      -1.762   1.475   0.000  0.00  0.00     0.084 A 
ATOM      4  C   UNL d   1      -2.846   2.271   0.000  0.00  0.00     0.021 A 
ATOM      5  C   UNL d   1      -3.100   1.475   0.000  0.00  0.00     0.064 A 
ATOM      6  C   UNL d   1      -3.396   2.875   0.000  0.00  0.00     0.002 A 
ATOM      7  C   UNL d   1      -3.908   1.308   0.000  0.00  0.00     0.018 A 
ATOM      8  C   UNL d   1      -4.208   2.708   0.000  0.00  0.00     0.000 A 
ATOM      9  C   UNL d   1      -4.458   1.921   0.000  0.00  0.00     0.002 A 
ENDROOT
BRANCH   1  10
ATOM     10  C   UNL d   1      -1.533   2.933   0.000  0.00  0.00     0.254 C 
ATOM     11  O   UNL d   1      -1.871   3.688   0.000  0.00  0.00    -0.281 OA
BRANCH  10  12
ATOM     12  C   UNL d   1      -0.713   2.850   0.000  0.00  0.00     0.318 C 
ATOM     13  N   UNL d   1      -0.233   3.521   0.000  0.00  0.00    -0.202 NA
ATOM     14  O   UNL d   1      -0.383   2.096   0.000  0.00  0.00    -0.262 OA
BRANCH  13  15
ATOM     15  C   UNL d   1      -0.571   4.263   0.000  0.00  0.00     0.127 C 
BRANCH  15  16
ATOM     16  C   UNL d   1      -0.096   4.929   0.000  0.00  0.00     0.119 A 
ATOM     17  O   UNL d   1      -0.350   5.717   0.000  0.00  0.00    -0.304 OA
ATOM     18  C   UNL d   1       0.312   6.213   0.000  0.00  0.00     0.123 A 
ATOM     19  C   UNL d   1       0.992   5.729   0.000  0.00  0.00     0.029 A 
ATOM     20  C   UNL d   1       0.742   4.950   0.000  0.00  0.00     0.028 A 
ENDBRANCH  15  16
ENDBRANCH  13  15
ENDBRANCH  10  12
ENDBRANCH   1  10
BRANCH   2  21
ATOM     21  C   UNL d   1      -2.433   0.171   0.000  0.00  0.00     0.142 C 
BRANCH  21  22
ATOM     22  C   UNL d   1      -1.725  -0.242   0.000  0.00  0.00     0.282 C 
ATOM     23  N   UNL d   1      -1.725  -1.067   0.000  0.00  0.00    -0.271 N 
ATOM     24  O   UNL d   1      -1.008   0.171   0.000  0.00  0.00    -0.265 OA
BRANCH  23  25
ATOM     25  C   UNL d   1      -1.008  -1.479   0.000  0.00  0.00     0.083 C 
ATOM     26  C   UNL d   1      -1.008  -2.304   0.000  0.00  0.00     0.021 C 
ENDBRANCH  23  25
BRANCH  23  27
ATOM     27  C   UNL d   1      -2.438  -1.479   0.000  0.00  0.00     0.083 C 
ATOM     28  C   UNL d   1      -2.438  -2.300   0.000  0.00  0.00     0.021 C 
ENDBRANCH  23  27
ENDBRANCH  21  22
ENDBRANCH   2  21
TORSDOF 8
