REMARK  6 active torsions:
REMARK  status: ('A' for Active; 'I' for Inactive)
REMARK       I    between atoms: C_2  and  N_1 
REMARK    1  A    between atoms: O_20  and  C_2 
REMARK       I    between atoms: C_5  and  N_3 
REMARK    2  A    between atoms: C_16  and  C_5 
REMARK    3  A    between atoms: C_9  and  C_7 
REMARK    4  A    between atoms: C_8  and  S_14 
REMARK    5  A    between atoms: S_14  and  C_16 
REMARK    6  A    between atoms: C_25  and  O_20 
ROOT
ATOM      1  C   UNL d   1      -3.165   4.213   0.000  0.00  0.00     0.098 C 
ENDROOT
BRANCH   1   2
ATOM      2  S   UNL d   1      -2.451   3.808   0.000  0.00  0.00    -0.061 SA
BRANCH   2   3
ATOM      3  C   UNL d   1      -1.737   4.221   0.000  0.00  0.00     0.133 A 
ATOM      4  N   UNL d   1      -1.729   5.040   0.000  0.00  0.00    -0.141 NA
ATOM      5  N   UNL d   1      -1.015   5.453   0.000  0.00  0.00    -0.148 NA
ATOM      6  C   UNL d   1      -0.296   5.040   0.000  0.00  0.00     0.104 A 
ATOM      7  C   UNL d   1      -0.301   4.213   0.000  0.00  0.00     0.023 A 
ATOM      8  C   UNL d   1      -1.015   3.804   0.000  0.00  0.00     0.029 A 
BRANCH   6   9
ATOM      9  C   UNL d   1       0.418   5.453   0.000  0.00  0.00     0.039 A 
ATOM     10  C   UNL d   1       0.413   6.267   0.000  0.00  0.00     0.101 A 
ATOM     11  N   UNL d   1       1.119   6.681   0.000  0.00  0.00    -0.242 NA
ATOM     12  C   UNL d   1       1.841   6.267   0.000  0.00  0.00     0.099 A 
ATOM     13  C   UNL d   1       1.841   5.449   0.000  0.00  0.00     0.021 A 
ATOM     14  C   UNL d   1       1.131   5.027   0.000  0.00  0.00     0.005 A 
ENDBRANCH   6   9
ENDBRANCH   2   3
ENDBRANCH   1   2
BRANCH   1  15
ATOM     15  C   UNL d   1      -3.165   5.040   0.000  0.00  0.00     0.272 C 
ATOM     16  N   UNL d   1      -3.879   5.449   0.000  0.00  0.00    -0.269 N 
ATOM     17  C   UNL d   1      -4.593   5.027   0.000  0.00  0.00     0.102 A 
ATOM     18  C   UNL d   1      -3.879   6.267   0.000  0.00  0.00     0.102 A 
ATOM     19  C   UNL d   1      -5.298   5.441   0.000  0.00  0.00     0.104 A 
ATOM     20  N   UNL d   1      -5.307   6.263   0.000  0.00  0.00    -0.249 N 
ATOM     21  C   UNL d   1      -6.012   6.681   0.000  0.00  0.00     0.378 C 
ATOM     22  C   UNL d   1      -4.593   6.681   0.000  0.00  0.00     0.104 A 
ATOM     23  O   UNL d   1      -6.726   6.263   0.000  0.00  0.00    -0.237 OA
ATOM     24  O   UNL d   1      -2.463   5.453   0.000  0.00  0.00    -0.266 OA
BRANCH  21  25
ATOM     25  O   UNL d   1      -6.012   7.503   0.000  0.00  0.00    -0.257 OA
BRANCH  25  26
ATOM     26  C   UNL d   1      -5.307   7.916   0.000  0.00  0.00     0.128 C 
ATOM     27  C   UNL d   1      -5.307   8.731   0.000  0.00  0.00     0.029 C 
ENDBRANCH  25  26
ENDBRANCH  21  25
ENDBRANCH   1  15
TORSDOF 6
