REMARK  4 active torsions:
REMARK  status: ('A' for Active; 'I' for Inactive)
REMARK    1  A    between atoms: C_12  and  N_3 
REMARK    2  A    between atoms: C_13  and  N_10 
REMARK    3  A    between atoms: C_21  and  C_12 
REMARK    4  A    between atoms: C_16  and  C_13 
ROOT
ATOM      1  C   UNL d   1      -2.305   1.631   0.000  0.00  0.00     0.191 A 
ATOM      2  C   UNL d   1      -2.309   2.455   0.000  0.00  0.00     0.173 A 
ATOM      3  N   UNL d   1      -3.735   2.455   0.000  0.00  0.00    -0.224 N 
ATOM      4  N   UNL d   1      -1.518   1.380   0.000  0.00  0.00    -0.042 NA
ATOM      5  C   UNL d   1      -1.037   2.058   0.000  0.00  0.00     0.722 A 
ATOM      6  N   UNL d   1      -1.527   2.719   0.000  0.00  0.00    -0.131 N 
ATOM      7  N   UNL d   1      -3.024   1.217   0.000  0.00  0.00    -0.240 N 
ATOM      8  C   UNL d   1      -3.735   1.627   0.000  0.00  0.00     0.343 A 
ATOM      9  C   UNL d   1      -3.024   2.873   0.000  0.00  0.00     0.288 A 
ATOM     10  N   UNL d   1      -0.259   2.317   0.000  0.00  0.00    -0.135 N 
ATOM     11  C   UNL d   1      -1.050   3.384   0.000  0.00  0.00     0.118 A 
ATOM     12  O   UNL d   1      -4.454   1.213   0.000  0.00  0.00    -0.245 OA
ATOM     13  O   UNL d   1      -3.024   3.702   0.000  0.00  0.00    -0.265 OA
ATOM     14  C   UNL d   1      -0.264   3.145   0.000  0.00  0.00     0.118 A 
ATOM     15  C   UNL d   1      -3.024   0.389   0.000  0.00  0.00     0.105 C 
ENDROOT
BRANCH   3  16
ATOM     16  C   UNL d   1      -4.450   2.869   0.000  0.00  0.00     0.087 C 
BRANCH  16  17
ATOM     17  C   UNL d   1      -5.178   2.455   0.000  0.00  0.00     0.018 A 
ATOM     18  C   UNL d   1      -5.881   2.861   0.000  0.00  0.00     0.002 A 
ATOM     19  C   UNL d   1      -6.592   2.455   0.000  0.00  0.00     0.000 A 
ATOM     20  C   UNL d   1      -7.307   2.861   0.000  0.00  0.00     0.000 C 
ATOM     21  C   UNL d   1      -6.592   1.627   0.000  0.00  0.00     0.000 A 
ATOM     22  C   UNL d   1      -5.885   1.205   0.000  0.00  0.00     0.000 A 
ATOM     23  C   UNL d   1      -5.178   1.619   0.000  0.00  0.00     0.002 A 
ENDBRANCH  16  17
ENDBRANCH   3  16
BRANCH  10  24
ATOM     24  C   UNL d   1       0.414   1.840   0.000  0.00  0.00     0.123 C 
BRANCH  24  25
ATOM     25  C   UNL d   1       1.167   2.192   0.000  0.00  0.00     0.118 A 
ATOM     26  O   UNL d   1       1.330   2.995   0.000  0.00  0.00    -0.304 OA
ATOM     27  C   UNL d   1       2.137   3.095   0.000  0.00  0.00     0.123 A 
ATOM     28  C   UNL d   1       2.489   2.342   0.000  0.00  0.00     0.029 A 
ATOM     29  C   UNL d   1       1.882   1.782   0.000  0.00  0.00     0.028 A 
ENDBRANCH  24  25
ENDBRANCH  10  24
TORSDOF 4
