REMARK  7 active torsions:
REMARK  status: ('A' for Active; 'I' for Inactive)
REMARK    1  A    between atoms: C_11  and  C_3 
REMARK    2  A    between atoms: N_12  and  C_7 
REMARK       I    between atoms: C_9  and  N_15 
REMARK    3  A    between atoms: C_14  and  C_9 
REMARK    4  A    between atoms: C_16  and  C_11 
REMARK    5  A    between atoms: C_17  and  N_12 
REMARK    6  A    between atoms: N_15  and  C_16 
REMARK    7  A    between atoms: C_19  and  C_17 
ROOT
ATOM      1  N   UNL d   1      -2.912   2.470   0.000  0.00  0.00    -0.190 N 
ATOM      2  C   UNL d   1      -3.333   3.183   0.000  0.00  0.00     0.187 A 
ATOM      3  C   UNL d   1      -2.096   2.646   0.000  0.00  0.00     0.188 A 
ATOM      4  N   UNL d   1      -3.333   1.750   0.000  0.00  0.00    -0.143 NA
ATOM      5  N   UNL d   1      -2.771   3.800   0.000  0.00  0.00    -0.127 NA
ATOM      6  N   UNL d   1      -2.021   3.458   0.000  0.00  0.00    -0.127 NA
ATOM      7  C   UNL d   1      -4.158   1.750   0.000  0.00  0.00     0.182 A 
ATOM      8  C   UNL d   1      -4.158   3.183   0.000  0.00  0.00     0.044 A 
ATOM      9  C   UNL d   1      -4.570   2.470   0.000  0.00  0.00     0.044 A 
ENDROOT
BRANCH   3  10
ATOM     10  C   UNL d   1      -1.475   2.100   0.000  0.00  0.00     0.061 C 
BRANCH  10  11
ATOM     11  C   UNL d   1      -0.696   2.362   0.000  0.00  0.00     0.105 C 
BRANCH  11  12
ATOM     12  N   UNL d   1      -0.083   1.808   0.000  0.00  0.00    -0.206 NA
ATOM     13  C   UNL d   1       0.704   2.071   0.000  0.00  0.00     0.279 C 
ATOM     14  O   UNL d   1       1.317   1.512   0.000  0.00  0.00    -0.265 OA
BRANCH  13  15
ATOM     15  C   UNL d   1       0.867   2.875   0.000  0.00  0.00     0.058 A 
ATOM     16  C   UNL d   1       0.250   3.433   0.000  0.00  0.00     0.005 A 
ATOM     17  C   UNL d   1       0.425   4.229   0.000  0.00  0.00     0.000 A 
ATOM     18  C   UNL d   1       1.204   4.479   0.000  0.00  0.00     0.000 A 
ATOM     19  C   UNL d   1       1.817   3.945   0.000  0.00  0.00     0.000 A 
ATOM     20  C   UNL d   1       1.654   3.133   0.000  0.00  0.00     0.005 A 
ENDBRANCH  13  15
ENDBRANCH  11  12
ENDBRANCH  10  11
ENDBRANCH   3  10
BRANCH   7  21
ATOM     21  N   UNL d   1      -4.583   1.037   0.000  0.00  0.00    -0.224 NA
BRANCH  21  22
ATOM     22  C   UNL d   1      -4.162   0.325   0.000  0.00  0.00     0.101 C 
BRANCH  22  23
ATOM     23  C   UNL d   1      -3.337   0.325   0.000  0.00  0.00     0.019 A 
ATOM     24  C   UNL d   1      -2.921   1.046   0.000  0.00  0.00     0.002 A 
ATOM     25  C   UNL d   1      -2.096   1.033   0.000  0.00  0.00     0.011 A 
ATOM     26  C   UNL d   1      -1.683   0.321   0.000  0.00  0.00     0.058 A 
ATOM     27  C   UNL d   1      -2.100  -0.400   0.000  0.00  0.00     0.011 A 
ATOM     28 CL   UNL d   1      -0.858   0.308   0.000  0.00  0.00    -0.082 Cl
ATOM     29  C   UNL d   1      -2.925  -0.392   0.000  0.00  0.00     0.002 A 
ENDBRANCH  22  23
ENDBRANCH  21  22
ENDBRANCH   7  21
TORSDOF 7
