REMARK  9 active torsions:
REMARK  status: ('A' for Active; 'I' for Inactive)
REMARK    1  A    between atoms: C_12  and  C_3 
REMARK    2  A    between atoms: S_14  and  C_7 
REMARK       I    between atoms: C_9  and  N_18 
REMARK    3  A    between atoms: C_13  and  C_9 
REMARK    4  A    between atoms: C_11  and  C_21 
REMARK       I    between atoms: N_15  and  C_11 
REMARK    5  A    between atoms: C_22  and  C_12 
REMARK    6  A    between atoms: C_21  and  S_14 
REMARK    7  A    between atoms: C_23  and  N_15 
REMARK    8  A    between atoms: N_18  and  C_22 
REMARK    9  A    between atoms: C_25  and  C_23 
ROOT
ATOM      1  N   UNL d   1      -1.869   2.542   0.000  0.00  0.00    -0.191 N 
ATOM      2  C   UNL d   1      -2.128   3.332   0.000  0.00  0.00     0.187 A 
ATOM      3  C   UNL d   1      -1.041   2.542   0.000  0.00  0.00     0.188 A 
ATOM      4  N   UNL d   1      -2.421   1.927   0.000  0.00  0.00    -0.156 NA
ATOM      5  N   UNL d   1      -1.455   3.813   0.000  0.00  0.00    -0.127 NA
ATOM      6  N   UNL d   1      -0.786   3.332   0.000  0.00  0.00    -0.127 NA
ATOM      7  C   UNL d   1      -3.232   2.103   0.000  0.00  0.00     0.131 A 
ATOM      8  C   UNL d   1      -2.931   3.495   0.000  0.00  0.00     0.043 A 
ATOM      9  C   UNL d   1      -3.487   2.885   0.000  0.00  0.00     0.031 A 
ENDROOT
BRANCH   7  10
ATOM     10  S   UNL d   1      -3.784   1.480   0.000  0.00  0.00    -0.061 SA
BRANCH  10  11
ATOM     11  C   UNL d   1      -4.599   1.651   0.000  0.00  0.00     0.099 C 
BRANCH  11  12
ATOM     12  C   UNL d   1      -4.850   2.442   0.000  0.00  0.00     0.286 C 
ATOM     13  N   UNL d   1      -5.640   2.617   0.000  0.00  0.00    -0.206 NA
ATOM     14  O   UNL d   1      -4.298   3.056   0.000  0.00  0.00    -0.265 OA
BRANCH  13  15
ATOM     15  C   UNL d   1      -5.895   3.407   0.000  0.00  0.00     0.102 C 
BRANCH  15  16
ATOM     16  C   UNL d   1      -6.689   3.570   0.000  0.00  0.00     0.019 A 
ATOM     17  C   UNL d   1      -7.254   2.968   0.000  0.00  0.00     0.004 A 
ATOM     18  C   UNL d   1      -8.056   3.135   0.000  0.00  0.00     0.030 A 
ATOM     19  C   UNL d   1      -8.307   3.921   0.000  0.00  0.00     0.140 A 
ATOM     20  C   UNL d   1      -7.743   4.519   0.000  0.00  0.00     0.030 A 
ATOM     21  F   UNL d   1      -9.110   4.101   0.000  0.00  0.00    -0.204 F 
ATOM     22  C   UNL d   1      -6.953   4.352   0.000  0.00  0.00     0.004 A 
ENDBRANCH  15  16
ENDBRANCH  13  15
ENDBRANCH  11  12
ENDBRANCH  10  11
ENDBRANCH   7  10
BRANCH   3  23
ATOM     23  C   UNL d   1      -0.560   1.869   0.000  0.00  0.00     0.061 C 
BRANCH  23  24
ATOM     24  C   UNL d   1      -0.899   1.112   0.000  0.00  0.00     0.105 C 
BRANCH  24  25
ATOM     25  N   UNL d   1      -0.410   0.447   0.000  0.00  0.00    -0.206 NA
ATOM     26  C   UNL d   1      -0.748  -0.314   0.000  0.00  0.00     0.279 C 
ATOM     27  O   UNL d   1      -1.576  -0.393   0.000  0.00  0.00    -0.265 OA
BRANCH  26  28
ATOM     28  C   UNL d   1      -0.263  -0.978   0.000  0.00  0.00     0.058 A 
ATOM     29  C   UNL d   1      -0.602  -1.731   0.000  0.00  0.00     0.005 A 
ATOM     30  C   UNL d   1      -0.121  -2.400   0.000  0.00  0.00     0.000 A 
ATOM     31  C   UNL d   1       0.702  -2.312   0.000  0.00  0.00     0.000 A 
ATOM     32  C   UNL d   1       1.041  -1.559   0.000  0.00  0.00     0.000 A 
ATOM     33  C   UNL d   1       1.183  -2.977   0.000  0.00  0.00     0.000 C 
ATOM     34  C   UNL d   1       0.552  -0.890   0.000  0.00  0.00     0.005 A 
ENDBRANCH  26  28
ENDBRANCH  24  25
ENDBRANCH  23  24
ENDBRANCH   3  23
TORSDOF 9
