REMARK  7 active torsions:
REMARK  status: ('A' for Active; 'I' for Inactive)
REMARK    1  A    between atoms: S_8  and  C_3 
REMARK    2  A    between atoms: C_4  and  C_15 
REMARK       I    between atoms: N_7  and  C_4 
REMARK    3  A    between atoms: C_13  and  C_5 
REMARK    4  A    between atoms: C_6  and  C_9 
REMARK    5  A    between atoms: C_9  and  N_7 
REMARK    6  A    between atoms: C_15  and  S_8 
REMARK    7  A    between atoms: O_17  and  C_11 
ROOT
ATOM      1  S   UNL d   1       1.051  -2.707   0.000  0.00  0.00    -0.061 SA
ENDROOT
BRANCH   1   2
ATOM      2  C   UNL d   1       1.768  -2.282   0.000  0.00  0.00     0.133 A 
ATOM      3  N   UNL d   1       1.768  -1.456   0.000  0.00  0.00    -0.141 NA
ATOM      4  N   UNL d   1       2.490  -1.043   0.000  0.00  0.00    -0.148 NA
ATOM      5  C   UNL d   1       3.203  -1.456   0.000  0.00  0.00     0.103 A 
ATOM      6  C   UNL d   1       3.203  -2.282   0.000  0.00  0.00     0.023 A 
ATOM      7  C   UNL d   1       2.490  -2.695   0.000  0.00  0.00     0.029 A 
BRANCH   5   8
ATOM      8  C   UNL d   1       3.917  -1.043   0.000  0.00  0.00     0.022 A 
ATOM      9  C   UNL d   1       4.630  -1.456   0.000  0.00  0.00     0.022 A 
ATOM     10  C   UNL d   1       5.347  -1.043   0.000  0.00  0.00     0.099 A 
ATOM     11  N   UNL d   1       5.347  -0.213   0.000  0.00  0.00    -0.242 NA
ATOM     12  C   UNL d   1       4.630   0.200   0.000  0.00  0.00     0.099 A 
ATOM     13  C   UNL d   1       3.917  -0.213   0.000  0.00  0.00     0.022 A 
ENDBRANCH   5   8
ENDBRANCH   1   2
BRANCH   1  14
ATOM     14  C   UNL d   1       1.055  -3.533   0.000  0.00  0.00     0.099 C 
BRANCH  14  15
ATOM     15  C   UNL d   1       0.342  -3.946   0.000  0.00  0.00     0.286 C 
ATOM     16  N   UNL d   1       0.342  -4.780   0.000  0.00  0.00    -0.206 NA
ATOM     17  O   UNL d   1      -0.375  -3.533   0.000  0.00  0.00    -0.265 OA
BRANCH  16  18
ATOM     18  C   UNL d   1      -0.371  -5.193   0.000  0.00  0.00     0.104 C 
BRANCH  18  19
ATOM     19  C   UNL d   1      -0.371  -6.023   0.000  0.00  0.00     0.042 A 
ATOM     20  C   UNL d   1      -1.084  -6.436   0.000  0.00  0.00     0.096 A 
ATOM     21  C   UNL d   1      -1.084  -7.262   0.000  0.00  0.00     0.024 A 
ATOM     22  C   UNL d   1      -0.371  -7.675   0.000  0.00  0.00     0.002 A 
ATOM     23  C   UNL d   1       0.342  -7.262   0.000  0.00  0.00     0.000 A 
ATOM     24  C   UNL d   1       0.342  -6.436   0.000  0.00  0.00     0.004 A 
BRANCH  20  25
ATOM     25  O   UNL d   1      -1.810  -6.010   0.000  0.00  0.00    -0.328 OA
ATOM     26  C   UNL d   1      -1.802  -5.185   0.000  0.00  0.00     0.181 C 
ENDBRANCH  20  25
ENDBRANCH  18  19
ENDBRANCH  16  18
ENDBRANCH  14  15
ENDBRANCH   1  14
TORSDOF 7
