REMARK  8 active torsions:
REMARK  status: ('A' for Active; 'I' for Inactive)
REMARK    1  A    between atoms: C_4  and  C_1 
REMARK    2  A    between atoms: N_6  and  C_3 
REMARK    3  A    between atoms: O_18  and  C_4 
REMARK       I    between atoms: C_7  and  N_6 
REMARK    4  A    between atoms: C_16  and  C_7 
REMARK    5  A    between atoms: C_10  and  C_8 
REMARK    6  A    between atoms: C_9  and  S_11 
REMARK    7  A    between atoms: S_11  and  C_16 
REMARK    8  A    between atoms: C_24  and  O_18 
ROOT
ATOM      1  N   UNL d   1      -3.879   5.449   0.000  0.00  0.00    -0.207 NA
ATOM      2  C   UNL d   1      -3.165   5.035   0.000  0.00  0.00     0.286 C 
ATOM      3  O   UNL d   1      -2.451   5.449   0.000  0.00  0.00    -0.265 OA
ENDROOT
BRANCH   2   4
ATOM      4  C   UNL d   1      -3.165   4.213   0.000  0.00  0.00     0.099 C 
BRANCH   4   5
ATOM      5  S   UNL d   1      -2.451   3.808   0.000  0.00  0.00    -0.061 SA
BRANCH   5   6
ATOM      6  C   UNL d   1      -1.737   4.221   0.000  0.00  0.00     0.133 A 
ATOM      7  N   UNL d   1      -1.729   5.040   0.000  0.00  0.00    -0.141 NA
ATOM      8  N   UNL d   1      -1.015   5.453   0.000  0.00  0.00    -0.148 NA
ATOM      9  C   UNL d   1      -0.296   5.040   0.000  0.00  0.00     0.104 A 
ATOM     10  C   UNL d   1      -0.301   4.213   0.000  0.00  0.00     0.023 A 
ATOM     11  C   UNL d   1      -1.015   3.804   0.000  0.00  0.00     0.029 A 
BRANCH   9  12
ATOM     12  C   UNL d   1       0.418   5.453   0.000  0.00  0.00     0.039 A 
ATOM     13  C   UNL d   1       0.413   6.267   0.000  0.00  0.00     0.101 A 
ATOM     14  N   UNL d   1       1.119   6.681   0.000  0.00  0.00    -0.242 NA
ATOM     15  C   UNL d   1       1.841   6.267   0.000  0.00  0.00     0.099 A 
ATOM     16  C   UNL d   1       1.841   5.449   0.000  0.00  0.00     0.021 A 
ATOM     17  C   UNL d   1       1.131   5.027   0.000  0.00  0.00     0.005 A 
ENDBRANCH   9  12
ENDBRANCH   5   6
ENDBRANCH   4   5
ENDBRANCH   2   4
BRANCH   1  18
ATOM     18  C   UNL d   1      -3.879   6.267   0.000  0.00  0.00     0.090 A 
ATOM     19  C   UNL d   1      -4.593   6.681   0.000  0.00  0.00     0.081 A 
ATOM     20  C   UNL d   1      -4.593   7.503   0.000  0.00  0.00     0.007 A 
ATOM     21  C   UNL d   1      -3.883   7.916   0.000  0.00  0.00     0.000 A 
ATOM     22  C   UNL d   1      -3.156   7.507   0.000  0.00  0.00     0.002 A 
ATOM     23  C   UNL d   1      -3.165   6.681   0.000  0.00  0.00     0.019 A 
BRANCH  19  24
ATOM     24  C   UNL d   1      -5.298   6.263   0.000  0.00  0.00     0.302 C 
ATOM     25  O   UNL d   1      -6.012   6.668   0.000  0.00  0.00    -0.259 OA
BRANCH  24  26
ATOM     26  O   UNL d   1      -5.294   5.441   0.000  0.00  0.00    -0.271 OA
BRANCH  26  27
ATOM     27  C   UNL d   1      -6.008   5.027   0.000  0.00  0.00     0.126 C 
ATOM     28  C   UNL d   1      -6.000   4.200   0.000  0.00  0.00     0.029 C 
ENDBRANCH  26  27
ENDBRANCH  24  26
ENDBRANCH  19  24
ENDBRANCH   1  18
TORSDOF 8
