REMARK  6 active torsions:
REMARK  status: ('A' for Active; 'I' for Inactive)
REMARK    1  A    between atoms: N_5  and  C_1 
REMARK       I    between atoms: C_11  and  N_5 
REMARK    2  A    between atoms: C_22  and  C_7 
REMARK    3  A    between atoms: C_8  and  C_10 
REMARK    4  A    between atoms: C_20  and  C_11 
REMARK    5  A    between atoms: C_13  and  S_15 
REMARK    6  A    between atoms: S_15  and  C_20 
ROOT
ATOM      1  S   UNL d   1      -2.446   3.800   0.000  0.00  0.00    -0.061 SA
ENDROOT
BRANCH   1   2
ATOM      2  C   UNL d   1      -1.733   4.213   0.000  0.00  0.00     0.133 A 
ATOM      3  N   UNL d   1      -1.725   5.029   0.000  0.00  0.00    -0.141 NA
ATOM      4  N   UNL d   1      -1.021   5.442   0.000  0.00  0.00    -0.147 NA
ATOM      5  C   UNL d   1      -0.308   5.029   0.000  0.00  0.00     0.109 A 
ATOM      6  C   UNL d   1      -0.308   4.204   0.000  0.00  0.00     0.024 A 
ATOM      7  C   UNL d   1      -1.012   3.800   0.000  0.00  0.00     0.029 A 
BRANCH   5   8
ATOM      8  C   UNL d   1       0.404   5.438   0.000  0.00  0.00     0.049 A 
ATOM      9  S   UNL d   1       0.500   6.254   0.000  0.00  0.00    -0.085 SA
ATOM     10  C   UNL d   1       1.304   6.429   0.000  0.00  0.00     0.035 A 
ATOM     11  C   UNL d   1       1.717   5.704   0.000  0.00  0.00     0.007 A 
ATOM     12  C   UNL d   1       1.163   5.092   0.000  0.00  0.00     0.009 A 
ENDBRANCH   5   8
ENDBRANCH   1   2
BRANCH   1  13
ATOM     13  C   UNL d   1      -3.158   4.204   0.000  0.00  0.00     0.099 C 
BRANCH  13  14
ATOM     14  C   UNL d   1      -3.158   5.029   0.000  0.00  0.00     0.288 C 
ATOM     15  N   UNL d   1      -3.871   5.438   0.000  0.00  0.00    -0.181 NA
ATOM     16  O   UNL d   1      -2.450   5.442   0.000  0.00  0.00    -0.265 OA
BRANCH  15  17
ATOM     17  C   UNL d   1      -3.875   6.254   0.000  0.00  0.00     0.219 A 
ATOM     18  S   UNL d   1      -4.546   6.737   0.000  0.00  0.00    -0.026 SA
ATOM     19  C   UNL d   1      -4.296   7.513   0.000  0.00  0.00     0.135 A 
ATOM     20  N   UNL d   1      -3.475   7.517   0.000  0.00  0.00    -0.139 NA
ATOM     21  N   UNL d   1      -3.221   6.742   0.000  0.00  0.00    -0.121 NA
BRANCH  19  22
ATOM     22  C   UNL d   1      -4.783   8.179   0.000  0.00  0.00     0.028 C 
ATOM     23  C   UNL d   1      -4.458   8.929   0.000  0.00  0.00     0.002 C 
ENDBRANCH  19  22
ENDBRANCH  15  17
ENDBRANCH  13  14
ENDBRANCH   1  13
TORSDOF 6
