REMARK  10 active torsions:
REMARK  status: ('A' for Active; 'I' for Inactive)
REMARK    1  A    between atoms: C_5  and  C_1 
REMARK    2  A    between atoms: C_8  and  N_2 
REMARK    3  A    between atoms: C_9  and  C_5 
REMARK    4  A    between atoms: C_7  and  C_8 
REMARK       I    between atoms: N_13  and  C_7 
REMARK       I    between atoms: N_19  and  C_9 
REMARK    5  A    between atoms: N_11  and  C_21 
REMARK    6  A    between atoms: C_24  and  N_13 
REMARK    7  A    between atoms: C_25  and  N_13 
REMARK    8  A    between atoms: C_26  and  N_19 
REMARK    9  A    between atoms: C_21  and  C_23 
REMARK   10  A    between atoms: C_23  and  C_26 
ROOT
ATOM      1  C   UNL d   1      -2.021   2.271   0.000  0.00  0.00     0.063 A 
ATOM      2  N   UNL d   1      -2.433   0.996   0.000  0.00  0.00    -0.300 N 
ATOM      3  C   UNL d   1      -1.762   1.475   0.000  0.00  0.00     0.084 A 
ATOM      4  C   UNL d   1      -2.846   2.271   0.000  0.00  0.00     0.021 A 
ATOM      5  C   UNL d   1      -3.100   1.475   0.000  0.00  0.00     0.064 A 
ATOM      6  C   UNL d   1      -3.396   2.875   0.000  0.00  0.00     0.002 A 
ATOM      7  C   UNL d   1      -3.908   1.308   0.000  0.00  0.00     0.018 A 
ATOM      8  C   UNL d   1      -4.208   2.708   0.000  0.00  0.00     0.000 A 
ATOM      9  C   UNL d   1      -4.458   1.921   0.000  0.00  0.00     0.002 A 
ENDROOT
BRANCH   1  10
ATOM     10  C   UNL d   1      -1.533   2.933   0.000  0.00  0.00     0.254 C 
ATOM     11  O   UNL d   1      -1.871   3.688   0.000  0.00  0.00    -0.281 OA
BRANCH  10  12
ATOM     12  C   UNL d   1      -0.713   2.850   0.000  0.00  0.00     0.318 C 
ATOM     13  O   UNL d   1      -0.383   2.096   0.000  0.00  0.00    -0.262 OA
ATOM     14  N   UNL d   1      -0.233   3.521   0.000  0.00  0.00    -0.204 NA
BRANCH  14  15
ATOM     15  C   UNL d   1      -0.571   4.267   0.000  0.00  0.00     0.104 C 
BRANCH  15  16
ATOM     16  C   UNL d   1      -0.083   4.929   0.000  0.00  0.00     0.040 C 
BRANCH  16  17
ATOM     17  C   UNL d   1      -0.421   5.688   0.000  0.00  0.00     0.083 C 
BRANCH  17  18
ATOM     18  N   UNL d   1       0.067   6.362   0.000  0.00  0.00    -0.285 N 
ATOM     19  C   UNL d   1       0.892   6.354   0.000  0.00  0.00     0.183 A 
ATOM     20  N   UNL d   1       1.142   7.150   0.000  0.00  0.00    -0.222 NA
ATOM     21  C   UNL d   1       0.467   7.642   0.000  0.00  0.00     0.120 A 
ATOM     22  C   UNL d   1      -0.196   7.142   0.000  0.00  0.00     0.102 A 
ENDBRANCH  17  18
ENDBRANCH  16  17
ENDBRANCH  15  16
ENDBRANCH  14  15
ENDBRANCH  10  12
ENDBRANCH   1  10
BRANCH   2  23
ATOM     23  C   UNL d   1      -2.433   0.171   0.000  0.00  0.00     0.142 C 
BRANCH  23  24
ATOM     24  C   UNL d   1      -1.725  -0.242   0.000  0.00  0.00     0.282 C 
ATOM     25  N   UNL d   1      -1.725  -1.067   0.000  0.00  0.00    -0.271 N 
ATOM     26  O   UNL d   1      -1.008   0.171   0.000  0.00  0.00    -0.265 OA
BRANCH  25  27
ATOM     27  C   UNL d   1      -2.438  -1.479   0.000  0.00  0.00     0.083 C 
ATOM     28  C   UNL d   1      -2.438  -2.300   0.000  0.00  0.00     0.021 C 
ENDBRANCH  25  27
BRANCH  25  29
ATOM     29  C   UNL d   1      -1.008  -1.479   0.000  0.00  0.00     0.083 C 
ATOM     30  C   UNL d   1      -1.008  -2.304   0.000  0.00  0.00     0.021 C 
ENDBRANCH  25  29
ENDBRANCH  23  24
ENDBRANCH   2  23
TORSDOF 10
