REMARK  5 active torsions:
REMARK  status: ('A' for Active; 'I' for Inactive)
REMARK    1  A    between atoms: C_10  and  N_2 
REMARK    2  A    between atoms: C_11  and  N_4 
REMARK    3  A    between atoms: C_12  and  C_11 
REMARK       I    between atoms: N_16  and  C_12 
REMARK       I    between atoms: C_15  and  N_17 
REMARK    4  A    between atoms: C_22  and  N_16 
REMARK    5  A    between atoms: N_17  and  C_23 
ROOT
ATOM      1  C   UNL d   1      -3.603   3.834   0.000  0.00  0.00     0.172 A 
ATOM      2  N   UNL d   1      -2.366   4.568   0.000  0.00  0.00    -0.226 N 
ATOM      3  C   UNL d   1      -2.812   5.285   0.000  0.00  0.00     0.342 A 
ATOM      4  N   UNL d   1      -3.628   5.261   0.000  0.00  0.00    -0.252 N 
ATOM      5  C   UNL d   1      -4.024   4.543   0.000  0.00  0.00     0.098 A 
ATOM      6  C   UNL d   1      -2.771   3.851   0.000  0.00  0.00     0.292 A 
ATOM      7  O   UNL d   1      -4.131   3.208   0.000  0.00  0.00    -0.301 OA
ATOM      8  C   UNL d   1      -4.815   4.329   0.000  0.00  0.00     0.041 A 
ATOM      9  C   UNL d   1      -4.865   3.513   0.000  0.00  0.00     0.102 A 
ATOM     10  O   UNL d   1      -2.416   6.027   0.000  0.00  0.00    -0.245 OA
ATOM     11  O   UNL d   1      -2.342   3.133   0.000  0.00  0.00    -0.264 OA
ATOM     12  C   UNL d   1      -5.508   4.791   0.000  0.00  0.00     0.004 A 
ATOM     13  C   UNL d   1      -5.607   3.142   0.000  0.00  0.00     0.025 A 
ATOM     14  C   UNL d   1      -6.250   4.420   0.000  0.00  0.00     0.000 A 
ATOM     15  C   UNL d   1      -6.283   3.603   0.000  0.00  0.00     0.002 A 
ENDROOT
BRANCH   4  16
ATOM     16  C   UNL d   1      -4.073   5.978   0.000  0.00  0.00     0.147 C 
BRANCH  16  17
ATOM     17  C   UNL d   1      -3.661   6.720   0.000  0.00  0.00     0.297 C 
ATOM     18  N   UNL d   1      -4.082   7.413   0.000  0.00  0.00    -0.207 NA
ATOM     19  O   UNL d   1      -2.836   6.720   0.000  0.00  0.00    -0.264 OA
BRANCH  18  20
ATOM     20  C   UNL d   1      -3.686   8.122   0.000  0.00  0.00     0.085 A 
ATOM     21  C   UNL d   1      -2.861   8.147   0.000  0.00  0.00     0.021 A 
ATOM     22  C   UNL d   1      -2.465   8.864   0.000  0.00  0.00     0.021 A 
ATOM     23  C   UNL d   1      -2.894   9.573   0.000  0.00  0.00     0.085 A 
ATOM     24  C   UNL d   1      -3.727   9.557   0.000  0.00  0.00     0.021 A 
ATOM     25  C   UNL d   1      -4.123   8.831   0.000  0.00  0.00     0.021 A 
BRANCH  23  26
ATOM     26  N   UNL d   1      -2.498  10.299   0.000  0.00  0.00    -0.208 NA
ATOM     27  C   UNL d   1      -2.935  11.008   0.000  0.00  0.00     0.279 C 
ATOM     28  O   UNL d   1      -2.548  11.709   0.000  0.00  0.00    -0.265 OA
ATOM     29  C   UNL d   1      -3.776  10.967   0.000  0.00  0.00     0.068 C 
ENDBRANCH  23  26
ENDBRANCH  18  20
ENDBRANCH  16  17
ENDBRANCH   4  16
BRANCH   2  30
ATOM     30  C   UNL d   1      -1.534   4.576   0.000  0.00  0.00     0.071 A 
ATOM     31  C   UNL d   1      -1.113   3.875   0.000  0.00  0.00     0.020 A 
ATOM     32  C   UNL d   1      -0.297   3.875   0.000  0.00  0.00     0.031 A 
ATOM     33  C   UNL d   1       0.107   4.593   0.000  0.00  0.00     0.140 A 
ATOM     34  C   UNL d   1      -0.297   5.294   0.000  0.00  0.00     0.031 A 
ATOM     35  F   UNL d   1       0.940   4.593   0.000  0.00  0.00    -0.204 F 
ATOM     36  C   UNL d   1      -1.130   5.294   0.000  0.00  0.00     0.020 A 
ENDBRANCH   2  30
TORSDOF 5
