REMARK  9 active torsions:
REMARK  status: ('A' for Active; 'I' for Inactive)
REMARK    1  A    between atoms: N_4  and  C_1 
REMARK       I    between atoms: C_8  and  N_4 
REMARK    2  A    between atoms: C_19  and  N_4 
REMARK    3  A    between atoms: S_6  and  C_11 
REMARK    4  A    between atoms: C_14  and  S_6 
REMARK    5  A    between atoms: C_10  and  C_8 
REMARK    6  A    between atoms: C_11  and  C_10 
REMARK    7  A    between atoms: C_20  and  C_19 
REMARK    8  A    between atoms: C_23  and  C_20 
REMARK    9  A    between atoms: N_21  and  C_23 
ROOT
ATOM      1  N   UNL d   1      -2.438   2.562   0.000  0.00  0.00    -0.253 N 
ATOM      2  C   UNL d   1      -1.725   2.983   0.000  0.00  0.00     0.267 C 
ATOM      3  O   UNL d   1      -1.725   3.800   0.000  0.00  0.00    -0.267 OA
ENDROOT
BRANCH   1   4
ATOM      4  C   UNL d   1      -3.158   2.983   0.000  0.00  0.00     0.182 A 
ATOM      5  N   UNL d   1      -3.908   2.646   0.000  0.00  0.00    -0.222 NA
ATOM      6  C   UNL d   1      -4.471   3.258   0.000  0.00  0.00     0.089 A 
ATOM      7  C   UNL d   1      -5.283   3.250   0.000  0.00  0.00     0.018 A 
ATOM      8  C   UNL d   1      -4.058   3.971   0.000  0.00  0.00     0.050 A 
ATOM      9  C   UNL d   1      -5.708   3.958   0.000  0.00  0.00     0.002 A 
ATOM     10  C   UNL d   1      -5.696   2.533   0.000  0.00  0.00     0.002 C 
ATOM     11  C   UNL d   1      -6.525   3.958   0.000  0.00  0.00     0.000 C 
ATOM     12  C   UNL d   1      -5.296   4.667   0.000  0.00  0.00     0.001 A 
ATOM     13  C   UNL d   1      -4.471   4.667   0.000  0.00  0.00     0.008 A 
ATOM     14  S   UNL d   1      -3.246   3.808   0.000  0.00  0.00    -0.048 SA
ENDBRANCH   1   4
BRANCH   1  15
ATOM     15  C   UNL d   1      -2.438   1.738   0.000  0.00  0.00     0.086 C 
BRANCH  15  16
ATOM     16  C   UNL d   1      -3.158   1.325   0.000  0.00  0.00     0.038 C 
BRANCH  16  17
ATOM     17  C   UNL d   1      -3.158   0.500   0.000  0.00  0.00     0.082 C 
BRANCH  17  18
ATOM     18  N   UNL d   1      -3.871   0.087   0.000  0.00  0.00    -0.300 N 
ATOM     19  C   UNL d   1      -3.871  -0.738   0.000  0.00  0.00     0.100 C 
ATOM     20  C   UNL d   1      -4.583   0.500   0.000  0.00  0.00     0.100 C 
ENDBRANCH  17  18
ENDBRANCH  16  17
ENDBRANCH  15  16
ENDBRANCH   1  15
BRANCH   2  21
ATOM     21  C   UNL d   1      -1.012   2.562   0.000  0.00  0.00     0.073 C 
BRANCH  21  22
ATOM     22  C   UNL d   1      -0.296   2.983   0.000  0.00  0.00     0.104 C 
BRANCH  22  23
ATOM     23  S   UNL d   1      -0.296   3.812   0.000  0.00  0.00     0.211 S 
ATOM     24  O   UNL d   1      -1.125   3.808   0.000  0.00  0.00    -0.217 OA
ATOM     25  O   UNL d   1       0.542   3.812   0.000  0.00  0.00    -0.217 OA
BRANCH  23  26
ATOM     26  C   UNL d   1      -0.296   4.638   0.000  0.00  0.00     0.088 A 
ATOM     27  C   UNL d   1       0.417   5.042   0.000  0.00  0.00     0.011 A 
ATOM     28  C   UNL d   1       0.417   5.875   0.000  0.00  0.00     0.001 A 
ATOM     29  C   UNL d   1      -0.296   6.279   0.000  0.00  0.00     0.000 A 
ATOM     30  C   UNL d   1      -1.008   5.879   0.000  0.00  0.00     0.001 A 
ATOM     31  C   UNL d   1      -1.008   5.054   0.000  0.00  0.00     0.011 A 
ENDBRANCH  23  26
ENDBRANCH  22  23
ENDBRANCH  21  22
ENDBRANCH   2  21
TORSDOF 9
