REMARK  6 active torsions:
REMARK  status: ('A' for Active; 'I' for Inactive)
REMARK    1  A    between atoms: N_3  and  C_1 
REMARK       I    between atoms: C_5  and  N_3 
REMARK    2  A    between atoms: C_19  and  N_3 
REMARK    3  A    between atoms: C_8  and  C_5 
REMARK    4  A    between atoms: C_20  and  C_19 
REMARK    5  A    between atoms: C_23  and  C_20 
REMARK    6  A    between atoms: N_21  and  C_23 
ROOT
ATOM      1  N   UNL d   1      -2.434   2.559   0.000  0.00  0.00    -0.253 N 
ATOM      2  C   UNL d   1      -1.722   2.979   0.000  0.00  0.00     0.266 C 
ATOM      3  O   UNL d   1      -1.722   3.794   0.000  0.00  0.00    -0.267 OA
ENDROOT
BRANCH   1   4
ATOM      4  C   UNL d   1      -3.153   2.979   0.000  0.00  0.00     0.182 A 
ATOM      5  N   UNL d   1      -3.906   2.642   0.000  0.00  0.00    -0.222 NA
ATOM      6  C   UNL d   1      -4.464   3.245   0.000  0.00  0.00     0.089 A 
ATOM      7  C   UNL d   1      -5.279   3.245   0.000  0.00  0.00     0.018 A 
ATOM      8  C   UNL d   1      -4.052   3.965   0.000  0.00  0.00     0.050 A 
ATOM      9  C   UNL d   1      -5.699   3.952   0.000  0.00  0.00     0.002 A 
ATOM     10  C   UNL d   1      -5.699   2.529   0.000  0.00  0.00     0.002 C 
ATOM     11  C   UNL d   1      -5.288   4.660   0.000  0.00  0.00     0.001 A 
ATOM     12  C   UNL d   1      -4.464   4.660   0.000  0.00  0.00     0.008 A 
ATOM     13  S   UNL d   1      -3.241   3.802   0.000  0.00  0.00    -0.048 SA
ENDBRANCH   1   4
BRANCH   1  14
ATOM     14  C   UNL d   1      -2.434   1.735   0.000  0.00  0.00     0.086 C 
BRANCH  14  15
ATOM     15  C   UNL d   1      -3.153   1.323   0.000  0.00  0.00     0.038 C 
BRANCH  15  16
ATOM     16  C   UNL d   1      -3.153   0.499   0.000  0.00  0.00     0.082 C 
BRANCH  16  17
ATOM     17  N   UNL d   1      -3.865   0.087   0.000  0.00  0.00    -0.300 N 
ATOM     18  C   UNL d   1      -3.865  -0.736   0.000  0.00  0.00     0.100 C 
ATOM     19  C   UNL d   1      -4.576   0.499   0.000  0.00  0.00     0.100 C 
ENDBRANCH  16  17
ENDBRANCH  15  16
ENDBRANCH  14  15
ENDBRANCH   1  14
BRANCH   2  20
ATOM     20  C   UNL d   1      -1.011   2.559   0.000  0.00  0.00     0.057 A 
ATOM     21  C   UNL d   1      -1.011   1.735   0.000  0.00  0.00     0.013 A 
ATOM     22  C   UNL d   1      -0.287   1.331   0.000  0.00  0.00     0.049 A 
ATOM     23  S   UNL d   1      -0.121   0.520   0.000  0.00  0.00    -0.064 SA
ATOM     24  C   UNL d   1       0.428   1.743   0.000  0.00  0.00     0.088 A 
ATOM     25  C   UNL d   1       0.703   0.437   0.000  0.00  0.00     0.135 A 
ATOM     26  N   UNL d   1       1.040   1.194   0.000  0.00  0.00    -0.236 NA
ATOM     27  C   UNL d   1       0.428   2.567   0.000  0.00  0.00     0.020 A 
ATOM     28  C   UNL d   1      -0.287   2.979   0.000  0.00  0.00     0.006 A 
ENDBRANCH   2  20
TORSDOF 6
