REMARK  11 active torsions:
REMARK  status: ('A' for Active; 'I' for Inactive)
REMARK    1  A    between atoms: S_2  and  N_15 
REMARK    2  A    between atoms: C_10  and  S_2 
REMARK    3  A    between atoms: C_14  and  C_4 
REMARK    4  A    between atoms: N_16  and  C_8 
REMARK    5  A    between atoms: C_19  and  C_14 
REMARK    6  A    between atoms: N_15  and  C_19 
REMARK    7  A    between atoms: C_24  and  N_16 
REMARK    8  A    between atoms: N_20  and  C_25 
REMARK    9  A    between atoms: C_26  and  N_20 
REMARK   10  A    between atoms: C_27  and  N_20 
REMARK   11  A    between atoms: C_25  and  C_24 
ROOT
ATOM      1  N   UNL d   1      -2.923   2.473   0.000  0.00  0.00    -0.190 N 
ATOM      2  C   UNL d   1      -3.336   3.186   0.000  0.00  0.00     0.187 A 
ATOM      3  C   UNL d   1      -2.110   2.648   0.000  0.00  0.00     0.188 A 
ATOM      4  N   UNL d   1      -3.336   1.760   0.000  0.00  0.00    -0.143 NA
ATOM      5  N   UNL d   1      -2.773   3.803   0.000  0.00  0.00    -0.127 NA
ATOM      6  N   UNL d   1      -2.027   3.465   0.000  0.00  0.00    -0.127 NA
ATOM      7  C   UNL d   1      -4.162   1.760   0.000  0.00  0.00     0.182 A 
ATOM      8  C   UNL d   1      -4.162   3.186   0.000  0.00  0.00     0.044 A 
ATOM      9  C   UNL d   1      -4.574   2.473   0.000  0.00  0.00     0.044 A 
ENDROOT
BRANCH   3  10
ATOM     10  C   UNL d   1      -1.497   2.102   0.000  0.00  0.00     0.062 C 
BRANCH  10  11
ATOM     11  C   UNL d   1      -1.660   1.297   0.000  0.00  0.00     0.115 C 
BRANCH  11  12
ATOM     12  N   UNL d   1      -1.034   0.759   0.000  0.00  0.00    -0.157 NA
BRANCH  12  13
ATOM     13  S   UNL d   1      -0.259   1.026   0.000  0.00  0.00     0.285 S 
ATOM     14  O   UNL d   1      -0.525   1.810   0.000  0.00  0.00    -0.198 OA
ATOM     15  O   UNL d   1       0.017   0.246   0.000  0.00  0.00    -0.198 OA
BRANCH  13  16
ATOM     16  C   UNL d   1       0.517   1.301   0.000  0.00  0.00     0.105 A 
ATOM     17  C   UNL d   1       1.151   0.763   0.000  0.00  0.00     0.013 A 
ATOM     18  C   UNL d   1       1.918   1.038   0.000  0.00  0.00     0.001 A 
ATOM     19  C   UNL d   1       2.068   1.851   0.000  0.00  0.00     0.000 A 
ATOM     20  C   UNL d   1       1.455   2.385   0.000  0.00  0.00     0.001 A 
ATOM     21  C   UNL d   1       2.857   2.123   0.000  0.00  0.00     0.000 C 
ATOM     22  C   UNL d   1       0.675   2.123   0.000  0.00  0.00     0.013 A 
ENDBRANCH  13  16
ENDBRANCH  12  13
ENDBRANCH  11  12
ENDBRANCH  10  11
ENDBRANCH   3  10
BRANCH   7  23
ATOM     23  N   UNL d   1      -4.587   1.047   0.000  0.00  0.00    -0.222 NA
BRANCH  23  24
ATOM     24  C   UNL d   1      -4.162   0.321   0.000  0.00  0.00     0.120 C 
BRANCH  24  25
ATOM     25  C   UNL d   1      -4.574  -0.388   0.000  0.00  0.00     0.101 C 
BRANCH  25  26
ATOM     26  N   UNL d   1      -4.162  -1.105   0.000  0.00  0.00    -0.301 N 
BRANCH  26  27
ATOM     27  C   UNL d   1      -4.566  -1.827   0.000  0.00  0.00     0.080 C 
ATOM     28  C   UNL d   1      -5.400  -1.831   0.000  0.00  0.00     0.021 C 
ENDBRANCH  26  27
BRANCH  26  29
ATOM     29  C   UNL d   1      -3.328  -1.105   0.000  0.00  0.00     0.080 C 
ATOM     30  C   UNL d   1      -2.923  -0.380   0.000  0.00  0.00     0.021 C 
ENDBRANCH  26  29
ENDBRANCH  25  26
ENDBRANCH  24  25
ENDBRANCH  23  24
ENDBRANCH   7  23
TORSDOF 11
