REMARK  9 active torsions:
REMARK  status: ('A' for Active; 'I' for Inactive)
REMARK    1  A    between atoms: N_3  and  C_1 
REMARK       I    between atoms: C_5  and  N_3 
REMARK    2  A    between atoms: C_9  and  N_3 
REMARK    3  A    between atoms: C_8  and  C_5 
REMARK    4  A    between atoms: C_16  and  C_9 
REMARK    5  A    between atoms: O_18  and  C_12 
REMARK    6  A    between atoms: N_17  and  C_16 
REMARK    7  A    between atoms: C_22  and  N_17 
REMARK    8  A    between atoms: C_23  and  N_17 
REMARK    9  A    between atoms: C_24  and  O_18 
ROOT
ATOM      1  N   UNL d   1      -2.421   2.546   0.000  0.00  0.00    -0.250 N 
ATOM      2  C   UNL d   1      -1.714   2.964   0.000  0.00  0.00     0.289 C 
ATOM      3  O   UNL d   1      -1.714   3.775   0.000  0.00  0.00    -0.264 OA
ENDROOT
BRANCH   1   4
ATOM      4  C   UNL d   1      -3.137   2.964   0.000  0.00  0.00     0.182 A 
ATOM      5  N   UNL d   1      -3.907   2.616   0.000  0.00  0.00    -0.220 NA
ATOM      6  C   UNL d   1      -4.479   3.249   0.000  0.00  0.00     0.112 A 
ATOM      7  C   UNL d   1      -5.311   3.249   0.000  0.00  0.00     0.118 A 
ATOM      8  C   UNL d   1      -4.056   3.974   0.000  0.00  0.00     0.052 A 
ATOM      9  C   UNL d   1      -5.733   3.969   0.000  0.00  0.00     0.026 A 
ATOM     10  C   UNL d   1      -5.315   4.698   0.000  0.00  0.00     0.003 A 
ATOM     11  C   UNL d   1      -4.470   4.686   0.000  0.00  0.00     0.008 A 
ATOM     12  S   UNL d   1      -3.224   3.808   0.000  0.00  0.00    -0.048 SA
BRANCH   7  13
ATOM     13  O   UNL d   1      -5.733   2.517   0.000  0.00  0.00    -0.304 OA
BRANCH  13  14
ATOM     14  C   UNL d   1      -5.311   1.788   0.000  0.00  0.00     0.123 C 
ATOM     15  C   UNL d   1      -5.546   1.254   0.000  0.00  0.00     0.029 C 
ENDBRANCH  13  14
ENDBRANCH   7  13
ENDBRANCH   1   4
BRANCH   1  16
ATOM     16  C   UNL d   1      -2.421   1.726   0.000  0.00  0.00     0.104 C 
BRANCH  16  17
ATOM     17  C   UNL d   1      -3.137   1.316   0.000  0.00  0.00     0.100 C 
BRANCH  17  18
ATOM     18  N   UNL d   1      -3.137   0.497   0.000  0.00  0.00    -0.301 N 
BRANCH  18  19
ATOM     19  C   UNL d   1      -2.421   0.087   0.000  0.00  0.00     0.080 C 
ATOM     20  C   UNL d   1      -2.421  -0.733   0.000  0.00  0.00     0.021 C 
ENDBRANCH  18  19
BRANCH  18  21
ATOM     21  C   UNL d   1      -3.845   0.087   0.000  0.00  0.00     0.080 C 
ATOM     22  C   UNL d   1      -4.553   0.497   0.000  0.00  0.00     0.021 C 
ENDBRANCH  18  21
ENDBRANCH  17  18
ENDBRANCH  16  17
ENDBRANCH   1  16
BRANCH   2  23
ATOM     23  C   UNL d   1      -1.006   2.546   0.000  0.00  0.00     0.156 A 
ATOM     24  O   UNL d   1      -0.919   1.734   0.000  0.00  0.00    -0.300 OA
ATOM     25  C   UNL d   1      -0.108   1.565   0.000  0.00  0.00     0.123 A 
ATOM     26  C   UNL d   1       0.290   2.268   0.000  0.00  0.00     0.029 A 
ATOM     27  C   UNL d   1      -0.244   2.889   0.000  0.00  0.00     0.032 A 
ENDBRANCH   2  23
TORSDOF 9
