REMARK  6 active torsions:
REMARK  status: ('A' for Active; 'I' for Inactive)
REMARK    1  A    between atoms: N_2  and  C_1 
REMARK       I    between atoms: C_4  and  N_2 
REMARK    2  A    between atoms: C_21  and  N_2 
REMARK    3  A    between atoms: C_6  and  C_4 
REMARK    4  A    between atoms: C_23  and  C_21 
REMARK    5  A    between atoms: C_25  and  C_23 
REMARK    6  A    between atoms: N_24  and  C_25 
ROOT
ATOM      1  N   UNL d   1      -2.439   2.564   0.000  0.00  0.00    -0.252 N 
ATOM      2  C   UNL d   1      -1.726   2.985   0.000  0.00  0.00     0.272 C 
ATOM      3  O   UNL d   1      -1.726   3.802   0.000  0.00  0.00    -0.266 OA
ENDROOT
BRANCH   1   4
ATOM      4  C   UNL d   1      -3.160   2.985   0.000  0.00  0.00     0.182 A 
ATOM      5  N   UNL d   1      -3.915   2.647   0.000  0.00  0.00    -0.222 NA
ATOM      6  C   UNL d   1      -4.473   3.260   0.000  0.00  0.00     0.092 A 
ATOM      7  C   UNL d   1      -5.286   3.252   0.000  0.00  0.00     0.046 A 
ATOM      8  C   UNL d   1      -4.060   3.973   0.000  0.00  0.00     0.052 A 
ATOM      9  C   UNL d   1      -5.711   3.960   0.000  0.00  0.00     0.121 A 
ATOM     10  O   UNL d   1      -6.508   4.127   0.000  0.00  0.00    -0.299 OA
ATOM     11  C   UNL d   1      -5.299   4.669   0.000  0.00  0.00     0.120 A 
ATOM     12  C   UNL d   1      -6.595   4.944   0.000  0.00  0.00     0.304 A 
ATOM     13  O   UNL d   1      -5.853   5.282   0.000  0.00  0.00    -0.300 OA
ATOM     14  C   UNL d   1      -4.473   4.682   0.000  0.00  0.00     0.034 A 
ATOM     15  S   UNL d   1      -3.248   3.810   0.000  0.00  0.00    -0.048 SA
ENDBRANCH   1   4
BRANCH   1  16
ATOM     16  C   UNL d   1      -2.439   1.738   0.000  0.00  0.00     0.086 C 
BRANCH  16  17
ATOM     17  C   UNL d   1      -3.160   1.326   0.000  0.00  0.00     0.038 C 
BRANCH  17  18
ATOM     18  C   UNL d   1      -3.160   0.500   0.000  0.00  0.00     0.082 C 
BRANCH  18  19
ATOM     19  N   UNL d   1      -3.873   0.087   0.000  0.00  0.00    -0.300 N 
ATOM     20  C   UNL d   1      -4.586   0.500   0.000  0.00  0.00     0.100 C 
ATOM     21  C   UNL d   1      -3.873  -0.738   0.000  0.00  0.00     0.100 C 
ENDBRANCH  18  19
ENDBRANCH  17  18
ENDBRANCH  16  17
ENDBRANCH   1  16
BRANCH   2  22
ATOM     22  C   UNL d   1      -1.013   2.564   0.000  0.00  0.00     0.087 A 
ATOM     23  S   UNL d   1      -0.921   1.734   0.000  0.00  0.00    -0.071 SA
ATOM     24  C   UNL d   1      -0.108   1.572   0.000  0.00  0.00     0.087 A 
ATOM     25 CL   UNL d   1       0.250   0.809   0.000  0.00  0.00    -0.075 Cl
ATOM     26  C   UNL d   1       0.292   2.289   0.000  0.00  0.00     0.019 A 
ATOM     27  C   UNL d   1      -0.258   2.897   0.000  0.00  0.00     0.013 A 
ENDBRANCH   2  22
TORSDOF 6
