REMARK  7 active torsions:
REMARK  status: ('A' for Active; 'I' for Inactive)
REMARK    1  A    between atoms: S_2  and  C_1 
REMARK    2  A    between atoms: C_7  and  S_2 
REMARK    3  A    between atoms: C_9  and  N_3 
REMARK    4  A    between atoms: C_11  and  C_7 
REMARK    5  A    between atoms: C_8  and  C_9 
REMARK       I    between atoms: N_10  and  C_8 
REMARK       I    between atoms: N_15  and  C_11 
REMARK    6  A    between atoms: C_12  and  C_16 
REMARK    7  A    between atoms: C_23  and  N_15 
ROOT
ATOM      1  C   UNL d   1      -2.019   2.298   0.000  0.00  0.00     0.107 A 
ATOM      2  N   UNL d   1      -2.431   1.032   0.000  0.00  0.00    -0.299 N 
ATOM      3  C   UNL d   1      -1.761   1.511   0.000  0.00  0.00     0.092 A 
ATOM      4  C   UNL d   1      -2.844   2.298   0.000  0.00  0.00     0.028 A 
ATOM      5  C   UNL d   1      -3.098   1.511   0.000  0.00  0.00     0.065 A 
ATOM      6  C   UNL d   1      -3.393   2.910   0.000  0.00  0.00     0.002 A 
ATOM      7  C   UNL d   1      -3.905   1.345   0.000  0.00  0.00     0.018 A 
ATOM      8  C   UNL d   1      -4.205   2.744   0.000  0.00  0.00     0.000 A 
ATOM      9  C   UNL d   1      -4.455   1.957   0.000  0.00  0.00     0.002 A 
ENDROOT
BRANCH   1  10
ATOM     10  S   UNL d   1      -1.532   2.969   0.000  0.00  0.00     0.217 S 
ATOM     11  O   UNL d   1      -0.845   2.523   0.000  0.00  0.00    -0.217 OA
ATOM     12  O   UNL d   1      -2.232   3.418   0.000  0.00  0.00    -0.217 OA
BRANCH  10  13
ATOM     13  C   UNL d   1      -1.049   3.643   0.000  0.00  0.00     0.161 C 
BRANCH  13  14
ATOM     14  C   UNL d   1      -1.386   4.384   0.000  0.00  0.00     0.291 C 
ATOM     15  N   UNL d   1      -0.912   5.059   0.000  0.00  0.00    -0.207 NA
ATOM     16  O   UNL d   1      -2.211   4.463   0.000  0.00  0.00    -0.264 OA
BRANCH  15  17
ATOM     17  C   UNL d   1      -1.257   5.808   0.000  0.00  0.00     0.085 A 
ATOM     18  C   UNL d   1      -0.783   6.487   0.000  0.00  0.00     0.019 A 
ATOM     19  C   UNL d   1      -1.120   7.236   0.000  0.00  0.00     0.006 A 
ATOM     20  C   UNL d   1      -1.948   7.319   0.000  0.00  0.00     0.059 A 
ATOM     21  C   UNL d   1      -2.431   6.649   0.000  0.00  0.00     0.006 A 
ATOM     22  C   UNL d   1      -2.086   5.887   0.000  0.00  0.00     0.019 A 
BRANCH  20  23
ATOM     23  C   UNL d   1      -2.294   8.061   0.000  0.00  0.00     0.297 C 
ATOM     24  O   UNL d   1      -3.118   8.148   0.000  0.00  0.00    -0.264 OA
ATOM     25  N   UNL d   1      -1.807   8.743   0.000  0.00  0.00    -0.102 N 
ENDBRANCH  20  23
ENDBRANCH  15  17
ENDBRANCH  13  14
ENDBRANCH  10  13
ENDBRANCH   1  10
BRANCH   2  26
ATOM     26  C   UNL d   1      -2.431   0.208   0.000  0.00  0.00     0.142 C 
BRANCH  26  27
ATOM     27  C   UNL d   1      -1.720  -0.204   0.000  0.00  0.00     0.282 C 
ATOM     28  N   UNL d   1      -1.720  -1.028   0.000  0.00  0.00    -0.271 N 
ATOM     29  C   UNL d   1      -2.381  -1.516   0.000  0.00  0.00     0.083 A 
ATOM     30  C   UNL d   1      -1.049  -1.516   0.000  0.00  0.00     0.083 A 
ATOM     31  C   UNL d   1      -2.132  -2.298   0.000  0.00  0.00     0.021 A 
ATOM     32  C   UNL d   1      -1.307  -2.302   0.000  0.00  0.00     0.021 A 
ATOM     33  O   UNL d   1      -1.008   0.208   0.000  0.00  0.00    -0.265 OA
ENDBRANCH  26  27
ENDBRANCH   2  26
TORSDOF 7
