REMARK  5 active torsions:
REMARK  status: ('A' for Active; 'I' for Inactive)
REMARK    1  A    between atoms: C_13  and  N_2 
REMARK    2  A    between atoms: C_10  and  N_4 
REMARK    3  A    between atoms: C_11  and  C_10 
REMARK       I    between atoms: N_15  and  C_11 
REMARK    4  A    between atoms: C_16  and  N_15 
REMARK    5  A    between atoms: O_21  and  C_19 
ROOT
ATOM      1  C   UNL d   1      -3.606   3.837   0.000  0.00  0.00     0.172 A 
ATOM      2  N   UNL d   1      -2.368   4.571   0.000  0.00  0.00    -0.226 N 
ATOM      3  C   UNL d   1      -2.814   5.289   0.000  0.00  0.00     0.342 A 
ATOM      4  N   UNL d   1      -3.631   5.265   0.000  0.00  0.00    -0.252 N 
ATOM      5  C   UNL d   1      -4.027   4.547   0.000  0.00  0.00     0.098 A 
ATOM      6  C   UNL d   1      -2.773   3.853   0.000  0.00  0.00     0.292 A 
ATOM      7  O   UNL d   1      -4.134   3.210   0.000  0.00  0.00    -0.301 OA
ATOM      8  C   UNL d   1      -4.819   4.332   0.000  0.00  0.00     0.041 A 
ATOM      9  C   UNL d   1      -4.869   3.515   0.000  0.00  0.00     0.102 A 
ATOM     10  O   UNL d   1      -2.418   6.032   0.000  0.00  0.00    -0.245 OA
ATOM     11  O   UNL d   1      -2.343   3.136   0.000  0.00  0.00    -0.264 OA
ATOM     12  C   UNL d   1      -5.512   4.794   0.000  0.00  0.00     0.004 A 
ATOM     13  C   UNL d   1      -5.611   3.144   0.000  0.00  0.00     0.025 A 
ATOM     14  C   UNL d   1      -6.255   4.423   0.000  0.00  0.00     0.000 A 
ATOM     15  C   UNL d   1      -6.288   3.606   0.000  0.00  0.00     0.002 A 
ENDROOT
BRANCH   4  16
ATOM     16  C   UNL d   1      -4.076   5.982   0.000  0.00  0.00     0.147 C 
BRANCH  16  17
ATOM     17  C   UNL d   1      -3.664   6.725   0.000  0.00  0.00     0.297 C 
ATOM     18  N   UNL d   1      -4.085   7.418   0.000  0.00  0.00    -0.207 NA
ATOM     19  O   UNL d   1      -2.839   6.725   0.000  0.00  0.00    -0.264 OA
BRANCH  18  20
ATOM     20  C   UNL d   1      -3.689   8.128   0.000  0.00  0.00     0.087 A 
ATOM     21  C   UNL d   1      -4.126   8.838   0.000  0.00  0.00     0.043 A 
ATOM     22  C   UNL d   1      -3.730   9.564   0.000  0.00  0.00     0.096 A 
ATOM     23  C   UNL d   1      -2.896   9.580   0.000  0.00  0.00     0.024 A 
ATOM     24  C   UNL d   1      -2.467   8.871   0.000  0.00  0.00     0.004 A 
ATOM     25  C   UNL d   1      -2.863   8.153   0.000  0.00  0.00     0.019 A 
BRANCH  22  26
ATOM     26  O   UNL d   1      -4.159  10.282   0.000  0.00  0.00    -0.328 OA
ATOM     27  C   UNL d   1      -3.755  11.000   0.000  0.00  0.00     0.181 C 
ENDBRANCH  22  26
ENDBRANCH  18  20
ENDBRANCH  16  17
ENDBRANCH   4  16
BRANCH   2  28
ATOM     28  C   UNL d   1      -1.535   4.580   0.000  0.00  0.00     0.071 A 
ATOM     29  C   UNL d   1      -1.130   5.298   0.000  0.00  0.00     0.018 A 
ATOM     30  C   UNL d   1      -0.297   5.298   0.000  0.00  0.00     0.002 A 
ATOM     31  C   UNL d   1       0.107   4.596   0.000  0.00  0.00     0.000 A 
ATOM     32  C   UNL d   1      -0.297   3.878   0.000  0.00  0.00     0.002 A 
ATOM     33  C   UNL d   1      -1.114   3.878   0.000  0.00  0.00     0.018 A 
ENDBRANCH   2  28
TORSDOF 5
