REMARK  1 active torsions:
REMARK  status: ('A' for Active; 'I' for Inactive)
REMARK    1  A    between atoms: C_10  and  N_2 
ROOT
ATOM      1  C   UNL d   1       4.850  -4.150   0.000  0.00  0.00     0.174 A 
ATOM      2  N   UNL d   1       6.004  -3.312   0.000  0.00  0.00    -0.224 N 
ATOM      3  C   UNL d   1       5.667  -4.062   0.000  0.00  0.00     0.292 A 
ATOM      4  C   UNL d   1       4.367  -3.492   0.000  0.00  0.00     0.115 A 
ATOM      5  C   UNL d   1       5.525  -2.650   0.000  0.00  0.00     0.356 A 
ATOM      6  N   UNL d   1       4.704  -2.742   0.000  0.00  0.00    -0.190 NA
ATOM      7  O   UNL d   1       4.367  -4.825   0.000  0.00  0.00    -0.301 OA
ATOM      8  C   UNL d   1       3.579  -3.750   0.000  0.00  0.00     0.043 A 
ATOM      9  C   UNL d   1       3.579  -4.575   0.000  0.00  0.00     0.102 A 
ATOM     10  O   UNL d   1       6.167  -4.737   0.000  0.00  0.00    -0.264 OA
ATOM     11  O   UNL d   1       5.862  -1.887   0.000  0.00  0.00    -0.244 OA
ATOM     12  C   UNL d   1       2.875  -3.337   0.000  0.00  0.00     0.004 A 
ATOM     13  C   UNL d   1       2.875  -4.987   0.000  0.00  0.00     0.025 A 
ATOM     14  C   UNL d   1       2.154  -3.750   0.000  0.00  0.00     0.000 A 
ATOM     15  C   UNL d   1       2.154  -4.575   0.000  0.00  0.00     0.002 A 
ENDROOT
BRANCH   2  16
ATOM     16  C   UNL d   1       6.829  -3.225   0.000  0.00  0.00     0.071 A 
ATOM     17  C   UNL d   1       7.167  -2.475   0.000  0.00  0.00     0.018 A 
ATOM     18  C   UNL d   1       7.987  -2.392   0.000  0.00  0.00     0.002 A 
ATOM     19  C   UNL d   1       8.467  -3.062   0.000  0.00  0.00     0.000 A 
ATOM     20  C   UNL d   1       8.137  -3.812   0.000  0.00  0.00     0.002 A 
ATOM     21  C   UNL d   1       9.292  -2.979   0.000  0.00  0.00     0.000 C 
ATOM     22  C   UNL d   1       7.312  -3.892   0.000  0.00  0.00     0.018 A 
ENDBRANCH   2  16
TORSDOF 1
