REMARK  7 active torsions:
REMARK  status: ('A' for Active; 'I' for Inactive)
REMARK    1  A    between atoms: S_2  and  C_1 
REMARK    2  A    between atoms: C_7  and  S_2 
REMARK    3  A    between atoms: C_9  and  N_3 
REMARK    4  A    between atoms: C_11  and  C_7 
REMARK    5  A    between atoms: C_8  and  C_9 
REMARK       I    between atoms: N_10  and  C_8 
REMARK       I    between atoms: N_15  and  C_11 
REMARK    6  A    between atoms: C_12  and  C_16 
REMARK    7  A    between atoms: C_23  and  N_15 
ROOT
ATOM      1  C   UNL d   1      -2.018   2.297   0.000  0.00  0.00     0.107 A 
ATOM      2  N   UNL d   1      -2.430   1.032   0.000  0.00  0.00    -0.299 N 
ATOM      3  C   UNL d   1      -1.760   1.510   0.000  0.00  0.00     0.092 A 
ATOM      4  C   UNL d   1      -2.842   2.297   0.000  0.00  0.00     0.028 A 
ATOM      5  C   UNL d   1      -3.095   1.510   0.000  0.00  0.00     0.065 A 
ATOM      6  C   UNL d   1      -3.391   2.908   0.000  0.00  0.00     0.002 A 
ATOM      7  C   UNL d   1      -3.902   1.344   0.000  0.00  0.00     0.018 A 
ATOM      8  C   UNL d   1      -4.202   2.742   0.000  0.00  0.00     0.000 A 
ATOM      9  C   UNL d   1      -4.452   1.955   0.000  0.00  0.00     0.002 A 
ENDROOT
BRANCH   1  10
ATOM     10  S   UNL d   1      -1.531   2.966   0.000  0.00  0.00     0.217 S 
ATOM     11  O   UNL d   1      -0.845   2.521   0.000  0.00  0.00    -0.217 OA
ATOM     12  O   UNL d   1      -2.230   3.416   0.000  0.00  0.00    -0.217 OA
BRANCH  10  13
ATOM     13  C   UNL d   1      -1.048   3.640   0.000  0.00  0.00     0.161 C 
BRANCH  13  14
ATOM     14  C   UNL d   1      -1.385   4.381   0.000  0.00  0.00     0.291 C 
ATOM     15  N   UNL d   1      -0.911   5.055   0.000  0.00  0.00    -0.207 NA
ATOM     16  O   UNL d   1      -2.209   4.460   0.000  0.00  0.00    -0.264 OA
BRANCH  15  17
ATOM     17  C   UNL d   1      -1.256   5.804   0.000  0.00  0.00     0.085 A 
ATOM     18  C   UNL d   1      -0.782   6.482   0.000  0.00  0.00     0.019 A 
ATOM     19  C   UNL d   1      -1.119   7.231   0.000  0.00  0.00     0.006 A 
ATOM     20  C   UNL d   1      -1.947   7.314   0.000  0.00  0.00     0.059 A 
ATOM     21  C   UNL d   1      -2.430   6.644   0.000  0.00  0.00     0.006 A 
ATOM     22  C   UNL d   1      -2.084   5.883   0.000  0.00  0.00     0.019 A 
BRANCH  20  23
ATOM     23  C   UNL d   1      -2.292   8.055   0.000  0.00  0.00     0.297 C 
ATOM     24  O   UNL d   1      -3.116   8.142   0.000  0.00  0.00    -0.264 OA
ATOM     25  N   UNL d   1      -1.806   8.737   0.000  0.00  0.00    -0.102 N 
ENDBRANCH  20  23
ENDBRANCH  15  17
ENDBRANCH  13  14
ENDBRANCH  10  13
ENDBRANCH   1  10
BRANCH   2  26
ATOM     26  C   UNL d   1      -2.430   0.208   0.000  0.00  0.00     0.142 C 
BRANCH  26  27
ATOM     27  C   UNL d   1      -1.718  -0.204   0.000  0.00  0.00     0.282 C 
ATOM     28  N   UNL d   1      -1.718  -1.028   0.000  0.00  0.00    -0.271 N 
ATOM     29  C   UNL d   1      -2.430  -1.448   0.000  0.00  0.00     0.083 A 
ATOM     30  C   UNL d   1      -1.007  -1.440   0.000  0.00  0.00     0.083 A 
ATOM     31  C   UNL d   1      -2.430  -2.276   0.000  0.00  0.00     0.019 A 
ATOM     32  C   UNL d   1      -1.718  -2.683   0.000  0.00  0.00     0.003 A 
ATOM     33  C   UNL d   1      -1.007  -2.272   0.000  0.00  0.00     0.019 A 
ATOM     34  O   UNL d   1      -1.007   0.208   0.000  0.00  0.00    -0.265 OA
ENDBRANCH  26  27
ENDBRANCH   2  26
TORSDOF 7
