REMARK  4 active torsions:
REMARK  status: ('A' for Active; 'I' for Inactive)
REMARK    1  A    between atoms: N_3  and  C_1 
REMARK       I    between atoms: C_7  and  N_3 
REMARK    2  A    between atoms: C_12  and  N_3 
REMARK    3  A    between atoms: C_17  and  C_12 
REMARK    4  A    between atoms: N_18  and  C_17 
ROOT
ATOM      1  C   UNL d   1      -3.879   2.990   0.000  0.00  0.00     0.182 A 
ATOM      2  N   UNL d   1      -4.643   2.651   0.000  0.00  0.00    -0.222 NA
ATOM      3  S   UNL d   1      -3.966   3.816   0.000  0.00  0.00    -0.048 SA
ATOM      4  C   UNL d   1      -5.194   3.265   0.000  0.00  0.00     0.092 A 
ATOM      5  C   UNL d   1      -4.781   3.979   0.000  0.00  0.00     0.052 A 
ATOM      6  C   UNL d   1      -6.012   3.257   0.000  0.00  0.00     0.046 A 
ATOM      7  C   UNL d   1      -5.198   4.689   0.000  0.00  0.00     0.034 A 
ATOM      8  C   UNL d   1      -6.418   3.966   0.000  0.00  0.00     0.121 A 
ATOM      9  C   UNL d   1      -6.017   4.676   0.000  0.00  0.00     0.120 A 
ATOM     10  O   UNL d   1      -6.576   5.290   0.000  0.00  0.00    -0.300 OA
ATOM     11  O   UNL d   1      -7.232   4.133   0.000  0.00  0.00    -0.299 OA
ATOM     12  C   UNL d   1      -7.332   4.952   0.000  0.00  0.00     0.304 A 
ENDROOT
BRANCH   1  13
ATOM     13  N   UNL d   1      -3.165   2.568   0.000  0.00  0.00    -0.251 N 
ATOM     14  C   UNL d   1      -2.451   2.990   0.000  0.00  0.00     0.267 C 
ATOM     15  O   UNL d   1      -2.451   3.808   0.000  0.00  0.00    -0.267 OA
ATOM     16  C   UNL d   1      -1.737   2.568   0.000  0.00  0.00     0.066 C 
BRANCH  13  17
ATOM     17  C   UNL d   1      -3.165   1.741   0.000  0.00  0.00     0.104 C 
BRANCH  17  18
ATOM     18  C   UNL d   1      -3.879   1.328   0.000  0.00  0.00     0.100 C 
BRANCH  18  19
ATOM     19  N   UNL d   1      -3.879   0.501   0.000  0.00  0.00    -0.299 N 
ATOM     20  C   UNL d   1      -3.165   0.088   0.000  0.00  0.00     0.100 C 
ATOM     21  C   UNL d   1      -4.593   0.088   0.000  0.00  0.00     0.100 C 
ENDBRANCH  18  19
ENDBRANCH  17  18
ENDBRANCH  13  17
ENDBRANCH   1  13
TORSDOF 4
