REMARK  1 active torsions:
REMARK  status: ('A' for Active; 'I' for Inactive)
REMARK    1  A    between atoms: N_2  and  C_1 
ROOT
ATOM      1  C   UNL d   1      -2.561   3.716   0.000  0.00  0.00     0.110 A 
ATOM      2  C   UNL d   1      -1.833   3.299   0.000  0.00  0.00     0.212 A 
ATOM      3  C   UNL d   1      -2.561   4.545   0.000  0.00  0.00     0.056 A 
ATOM      4  C   UNL d   1      -1.126   3.716   0.000  0.00  0.00     0.046 A 
ATOM      5  S   UNL d   1      -1.833   4.958   0.000  0.00  0.00    -0.085 SA
ATOM      6  C   UNL d   1      -1.119   4.545   0.000  0.00  0.00     0.033 A 
ATOM      7  O   UNL d   1      -1.833   2.477   0.000  0.00  0.00    -0.285 OA
ATOM      8  C   UNL d   1      -0.409   3.310   0.000  0.00  0.00     0.004 A 
ATOM      9  C   UNL d   1      -0.409   4.958   0.000  0.00  0.00     0.007 A 
ATOM     10  C   UNL d   1       0.304   3.716   0.000  0.00  0.00     0.000 A 
ATOM     11  C   UNL d   1       0.304   4.545   0.000  0.00  0.00     0.001 A 
ENDROOT
BRANCH   1  12
ATOM     12  N   UNL d   1      -3.278   3.303   0.000  0.00  0.00    -0.301 N 
ATOM     13  C   UNL d   1      -3.984   3.709   0.000  0.00  0.00     0.080 A 
ATOM     14  C   UNL d   1      -4.705   3.299   0.000  0.00  0.00     0.018 A 
ATOM     15  C   UNL d   1      -5.415   3.709   0.000  0.00  0.00     0.002 A 
ATOM     16  C   UNL d   1      -4.705   2.477   0.000  0.00  0.00     0.003 A 
ATOM     17  C   UNL d   1      -6.132   3.299   0.000  0.00  0.00     0.000 A 
ATOM     18  C   UNL d   1      -6.132   2.474   0.000  0.00  0.00     0.000 A 
ATOM     19  C   UNL d   1      -5.415   2.061   0.000  0.00  0.00     0.000 A 
ATOM     20  C   UNL d   1      -3.984   2.054   0.000  0.00  0.00     0.019 A 
ATOM     21  C   UNL d   1      -3.278   2.474   0.000  0.00  0.00     0.080 A 
ENDBRANCH   1  12
TORSDOF 1
