REMARK  5 active torsions:
REMARK  status: ('A' for Active; 'I' for Inactive)
REMARK    1  A    between atoms: N_9  and  C_2 
REMARK    2  A    between atoms: N_11  and  C_6 
REMARK    3  A    between atoms: C_16  and  N_11 
REMARK    4  A    between atoms: C_15  and  N_12 
REMARK    5  A    between atoms: C_24  and  C_15 
ROOT
ATOM      1  N   UNL d   1      -2.993   1.255   0.000  0.00  0.00    -0.041 NA
ATOM      2  C   UNL d   1      -3.670   1.647   0.000  0.00  0.00     0.738 A 
ATOM      3  C   UNL d   1      -2.316   1.647   0.000  0.00  0.00     0.187 A 
ATOM      4  N   UNL d   1      -3.670   2.435   0.000  0.00  0.00    -0.041 NA
ATOM      5  C   UNL d   1      -2.312   2.435   0.000  0.00  0.00     0.094 A 
ATOM      6  C   UNL d   1      -2.993   2.835   0.000  0.00  0.00     0.185 A 
ATOM      7  N   UNL d   1      -0.946   1.647   0.000  0.00  0.00    -0.162 NA
ATOM      8  N   UNL d   1      -1.635   1.247   0.000  0.00  0.00    -0.208 N 
ATOM      9  C   UNL d   1      -0.946   2.435   0.000  0.00  0.00     0.127 A 
ATOM     10  C   UNL d   1      -1.635   0.463   0.000  0.00  0.00     0.123 C 
ENDROOT
BRANCH   2  11
ATOM     11  N   UNL d   1      -4.391   1.235   0.000  0.00  0.00    -0.134 N 
ATOM     12  C   UNL d   1      -4.391   0.404   0.000  0.00  0.00     0.117 A 
ATOM     13  C   UNL d   1      -5.115  -0.012   0.000  0.00  0.00     0.100 A 
ATOM     14  N   UNL d   1      -5.824   0.400   0.000  0.00  0.00    -0.300 N 
ATOM     15  C   UNL d   1      -5.824   1.231   0.000  0.00  0.00     0.100 A 
ATOM     16  C   UNL d   1      -5.115   1.647   0.000  0.00  0.00     0.117 A 
BRANCH  14  17
ATOM     17  C   UNL d   1      -6.548  -0.004   0.000  0.00  0.00     0.080 C 
BRANCH  17  18
ATOM     18  C   UNL d   1      -6.964  -0.717   0.000  0.00  0.00     0.018 A 
ATOM     19  C   UNL d   1      -7.795  -0.717   0.000  0.00  0.00     0.002 A 
ATOM     20  C   UNL d   1      -8.199  -1.429   0.000  0.00  0.00     0.000 A 
ATOM     21  C   UNL d   1      -7.795  -2.150   0.000  0.00  0.00     0.000 A 
ATOM     22  C   UNL d   1      -6.964  -2.150   0.000  0.00  0.00     0.000 A 
ATOM     23  C   UNL d   1      -6.548  -1.429   0.000  0.00  0.00     0.002 A 
ENDBRANCH  17  18
ENDBRANCH  14  17
ENDBRANCH   2  11
BRANCH   6  24
ATOM     24  N   UNL d   1      -3.001   3.654   0.000  0.00  0.00    -0.226 NA
BRANCH  24  25
ATOM     25  C   UNL d   1      -3.713   4.062   0.000  0.00  0.00     0.083 A 
ATOM     26  C   UNL d   1      -3.717   4.885   0.000  0.00  0.00     0.021 A 
ATOM     27  C   UNL d   1      -4.438   5.301   0.000  0.00  0.00     0.031 A 
ATOM     28  C   UNL d   1      -5.151   4.893   0.000  0.00  0.00     0.140 A 
ATOM     29  C   UNL d   1      -5.155   4.062   0.000  0.00  0.00     0.031 A 
ATOM     30  F   UNL d   1      -5.859   5.309   0.000  0.00  0.00    -0.204 F 
ATOM     31  C   UNL d   1      -4.438   3.654   0.000  0.00  0.00     0.021 A 
ENDBRANCH  24  25
ENDBRANCH   6  24
TORSDOF 5
