REMARK  5 active torsions:
REMARK  status: ('A' for Active; 'I' for Inactive)
REMARK    1  A    between atoms: N_9  and  C_2 
REMARK    2  A    between atoms: N_12  and  C_6 
REMARK    3  A    between atoms: C_13  and  N_11 
REMARK    4  A    between atoms: C_18  and  N_12 
REMARK    5  A    between atoms: O_28  and  C_23 
ROOT
ATOM      1  N   UNL d   1      -2.981   1.250   0.000  0.00  0.00    -0.041 NA
ATOM      2  C   UNL d   1      -3.655   1.640   0.000  0.00  0.00     0.738 A 
ATOM      3  C   UNL d   1      -2.306   1.640   0.000  0.00  0.00     0.187 A 
ATOM      4  N   UNL d   1      -3.655   2.425   0.000  0.00  0.00    -0.041 NA
ATOM      5  C   UNL d   1      -2.302   2.425   0.000  0.00  0.00     0.094 A 
ATOM      6  C   UNL d   1      -2.981   2.823   0.000  0.00  0.00     0.185 A 
ATOM      7  N   UNL d   1      -0.942   1.640   0.000  0.00  0.00    -0.162 NA
ATOM      8  N   UNL d   1      -1.628   1.242   0.000  0.00  0.00    -0.208 N 
ATOM      9  C   UNL d   1      -0.942   2.425   0.000  0.00  0.00     0.127 A 
ATOM     10  C   UNL d   1      -1.628   0.461   0.000  0.00  0.00     0.123 C 
ENDROOT
BRANCH   2  11
ATOM     11  N   UNL d   1      -4.372   1.230   0.000  0.00  0.00    -0.134 N 
ATOM     12  C   UNL d   1      -5.086   1.644   0.000  0.00  0.00     0.117 A 
ATOM     13  C   UNL d   1      -5.800   1.226   0.000  0.00  0.00     0.100 A 
ATOM     14  N   UNL d   1      -5.800   0.398   0.000  0.00  0.00    -0.301 N 
ATOM     15  C   UNL d   1      -5.086  -0.012   0.000  0.00  0.00     0.100 A 
ATOM     16  C   UNL d   1      -4.372   0.402   0.000  0.00  0.00     0.117 A 
BRANCH  14  17
ATOM     17  C   UNL d   1      -6.517  -0.016   0.000  0.00  0.00     0.064 A 
ATOM     18  C   UNL d   1      -7.231   0.410   0.000  0.00  0.00     0.020 A 
ATOM     19  C   UNL d   1      -7.948  -0.004   0.000  0.00  0.00     0.031 A 
ATOM     20  C   UNL d   1      -7.948  -0.840   0.000  0.00  0.00     0.140 A 
ATOM     21  C   UNL d   1      -7.219  -1.246   0.000  0.00  0.00     0.031 A 
ATOM     22  F   UNL d   1      -8.662  -1.254   0.000  0.00  0.00    -0.204 F 
ATOM     23  C   UNL d   1      -6.509  -0.832   0.000  0.00  0.00     0.020 A 
ENDBRANCH  14  17
ENDBRANCH   2  11
BRANCH   6  24
ATOM     24  N   UNL d   1      -2.988   3.639   0.000  0.00  0.00    -0.226 NA
BRANCH  24  25
ATOM     25  C   UNL d   1      -3.698   4.045   0.000  0.00  0.00     0.085 A 
ATOM     26  C   UNL d   1      -4.420   3.639   0.000  0.00  0.00     0.043 A 
ATOM     27  C   UNL d   1      -5.133   4.045   0.000  0.00  0.00     0.096 A 
ATOM     28  C   UNL d   1      -5.129   4.873   0.000  0.00  0.00     0.024 A 
ATOM     29  C   UNL d   1      -4.420   5.279   0.000  0.00  0.00     0.004 A 
ATOM     30  C   UNL d   1      -3.702   4.865   0.000  0.00  0.00     0.019 A 
BRANCH  27  31
ATOM     31  O   UNL d   1      -5.847   3.639   0.000  0.00  0.00    -0.328 OA
ATOM     32  C   UNL d   1      -6.048   2.839   0.000  0.00  0.00     0.181 C 
ENDBRANCH  27  31
ENDBRANCH  24  25
ENDBRANCH   6  24
TORSDOF 5
