REMARK  5 active torsions:
REMARK  status: ('A' for Active; 'I' for Inactive)
REMARK    1  A    between atoms: N_10  and  C_3 
REMARK    2  A    between atoms: N_11  and  C_6 
REMARK    3  A    between atoms: C_12  and  N_10 
REMARK    4  A    between atoms: C_13  and  N_11 
REMARK    5  A    between atoms: C_21  and  C_13 
ROOT
ATOM      1  C   UNL d   1      -2.317   1.648   0.000  0.00  0.00     0.187 A 
ATOM      2  C   UNL d   1      -2.313   2.436   0.000  0.00  0.00     0.094 A 
ATOM      3  C   UNL d   1      -2.995   2.836   0.000  0.00  0.00     0.185 A 
ATOM      4  N   UNL d   1      -2.995   1.256   0.000  0.00  0.00    -0.040 NA
ATOM      5  N   UNL d   1      -3.672   2.436   0.000  0.00  0.00    -0.040 NA
ATOM      6  C   UNL d   1      -3.672   1.648   0.000  0.00  0.00     0.753 A 
ATOM      7  N   UNL d   1      -0.947   1.648   0.000  0.00  0.00    -0.162 NA
ATOM      8  N   UNL d   1      -1.636   1.248   0.000  0.00  0.00    -0.208 N 
ATOM      9  C   UNL d   1      -0.947   2.436   0.000  0.00  0.00     0.127 A 
ATOM     10  C   UNL d   1      -1.636   0.464   0.000  0.00  0.00     0.123 C 
ENDROOT
BRANCH   3  11
ATOM     11  N   UNL d   1      -3.003   3.656   0.000  0.00  0.00    -0.226 NA
BRANCH  11  12
ATOM     12  C   UNL d   1      -3.716   4.064   0.000  0.00  0.00     0.083 A 
ATOM     13  C   UNL d   1      -4.441   3.656   0.000  0.00  0.00     0.021 A 
ATOM     14  C   UNL d   1      -5.158   4.064   0.000  0.00  0.00     0.031 A 
ATOM     15  C   UNL d   1      -5.154   4.896   0.000  0.00  0.00     0.140 A 
ATOM     16  C   UNL d   1      -4.441   5.304   0.000  0.00  0.00     0.031 A 
ATOM     17  F   UNL d   1      -5.863   5.312   0.000  0.00  0.00    -0.204 F 
ATOM     18  C   UNL d   1      -3.720   4.888   0.000  0.00  0.00     0.021 A 
ENDBRANCH  11  12
ENDBRANCH   3  11
BRANCH   6  19
ATOM     19  N   UNL d   1      -4.393   1.236   0.000  0.00  0.00    -0.058 NA
BRANCH  19  20
ATOM     20  C   UNL d   1      -4.393   0.404   0.000  0.00  0.00     0.118 C 
BRANCH  20  21
ATOM     21  C   UNL d   1      -3.811  -0.182   0.000  0.00  0.00     0.020 A 
ATOM     22  C   UNL d   1      -3.007   0.020   0.000  0.00  0.00     0.002 A 
ATOM     23  C   UNL d   1      -2.432  -0.582   0.000  0.00  0.00     0.000 A 
ATOM     24  C   UNL d   1      -2.658  -1.371   0.000  0.00  0.00     0.000 A 
ATOM     25  C   UNL d   1      -3.454  -1.573   0.000  0.00  0.00     0.000 A 
ATOM     26  C   UNL d   1      -4.029  -0.979   0.000  0.00  0.00     0.002 A 
ENDBRANCH  20  21
ENDBRANCH  19  20
ENDBRANCH   6  19
TORSDOF 5
