REMARK  1 active torsions:
REMARK  status: ('A' for Active; 'I' for Inactive)
REMARK    1  A    between atoms: N_3  and  C_1 
ROOT
ATOM      1  C   UNL d   1      -2.561   3.716   0.000  0.00  0.00     0.110 A 
ATOM      2  C   UNL d   1      -1.836   3.300   0.000  0.00  0.00     0.212 A 
ATOM      3  C   UNL d   1      -1.126   3.720   0.000  0.00  0.00     0.046 A 
ATOM      4  C   UNL d   1      -2.561   4.546   0.000  0.00  0.00     0.056 A 
ATOM      5  S   UNL d   1      -1.836   4.959   0.000  0.00  0.00    -0.085 SA
ATOM      6  C   UNL d   1      -1.126   4.546   0.000  0.00  0.00     0.033 A 
ATOM      7  C   UNL d   1      -0.409   3.314   0.000  0.00  0.00     0.004 A 
ATOM      8  O   UNL d   1      -1.833   2.478   0.000  0.00  0.00    -0.285 OA
ATOM      9  C   UNL d   1      -0.413   4.959   0.000  0.00  0.00     0.007 A 
ATOM     10  C   UNL d   1       0.297   3.720   0.000  0.00  0.00     0.000 A 
ATOM     11  C   UNL d   1       0.297   4.557   0.000  0.00  0.00     0.001 A 
ATOM     12  C   UNL d   1       1.014   3.321   0.000  0.00  0.00     0.000 C 
ENDROOT
BRANCH   1  13
ATOM     13  N   UNL d   1      -3.278   3.303   0.000  0.00  0.00    -0.301 N 
ATOM     14  C   UNL d   1      -3.984   3.709   0.000  0.00  0.00     0.080 A 
ATOM     15  C   UNL d   1      -4.705   3.300   0.000  0.00  0.00     0.018 A 
ATOM     16  C   UNL d   1      -5.415   3.709   0.000  0.00  0.00     0.002 A 
ATOM     17  C   UNL d   1      -4.705   2.478   0.000  0.00  0.00     0.003 A 
ATOM     18  C   UNL d   1      -6.132   3.300   0.000  0.00  0.00     0.000 A 
ATOM     19  C   UNL d   1      -6.132   2.474   0.000  0.00  0.00     0.000 A 
ATOM     20  C   UNL d   1      -5.415   2.061   0.000  0.00  0.00     0.000 A 
ATOM     21  C   UNL d   1      -3.984   2.054   0.000  0.00  0.00     0.019 A 
ATOM     22  C   UNL d   1      -3.278   2.474   0.000  0.00  0.00     0.080 A 
ENDBRANCH   1  13
TORSDOF 1
