REMARK  6 active torsions:
REMARK  status: ('A' for Active; 'I' for Inactive)
REMARK    1  A    between atoms: C_3  and  N_1 
REMARK       I    between atoms: C_2  and  N_6 
REMARK       I    between atoms: N_7  and  C_2 
REMARK    2  A    between atoms: C_5  and  C_3 
REMARK    3  A    between atoms: C_8  and  C_3 
REMARK    4  A    between atoms: N_6  and  C_5 
REMARK    5  A    between atoms: C_20  and  N_7 
REMARK    6  A    between atoms: N_12  and  C_9 
ROOT
ATOM      1  C   UNL d   1      -2.445   5.453   0.000  0.00  0.00     0.084 C 
ENDROOT
BRANCH   1   2
ATOM      2  N   UNL d   1      -2.462   6.278   0.000  0.00  0.00    -0.300 N 
ATOM      3  C   UNL d   1      -3.183   6.686   0.000  0.00  0.00     0.100 A 
ATOM      4  C   UNL d   1      -3.195   7.511   0.000  0.00  0.00     0.100 A 
ATOM      5  N   UNL d   1      -2.483   7.928   0.000  0.00  0.00    -0.299 N 
ATOM      6  C   UNL d   1      -1.762   7.528   0.000  0.00  0.00     0.100 A 
ATOM      7  C   UNL d   1      -2.508   8.765   0.000  0.00  0.00     0.100 C 
ATOM      8  C   UNL d   1      -1.745   6.703   0.000  0.00  0.00     0.100 A 
ENDBRANCH   1   2
BRANCH   1   9
ATOM      9  C   UNL d   1      -3.158   5.041   0.000  0.00  0.00     0.121 C 
BRANCH   9  10
ATOM     10  N   UNL d   1      -3.158   4.212   0.000  0.00  0.00    -0.188 NA
ATOM     11  C   UNL d   1      -3.870   3.799   0.000  0.00  0.00     0.369 C 
ATOM     12  N   UNL d   1      -3.870   2.970   0.000  0.00  0.00    -0.191 NA
ATOM     13  O   UNL d   1      -4.582   4.203   0.000  0.00  0.00    -0.242 OA
BRANCH  12  14
ATOM     14  C   UNL d   1      -4.582   2.558   0.000  0.00  0.00     0.086 A 
ATOM     15  C   UNL d   1      -5.299   2.970   0.000  0.00  0.00     0.022 A 
ATOM     16  C   UNL d   1      -6.011   2.558   0.000  0.00  0.00     0.031 A 
ATOM     17  C   UNL d   1      -6.011   1.725   0.000  0.00  0.00     0.140 A 
ATOM     18  C   UNL d   1      -5.307   1.321   0.000  0.00  0.00     0.031 A 
ATOM     19  F   UNL d   1      -6.728   1.308   0.000  0.00  0.00    -0.204 F 
ATOM     20  C   UNL d   1      -4.582   1.733   0.000  0.00  0.00     0.022 A 
ENDBRANCH  12  14
ENDBRANCH   9  10
ENDBRANCH   1   9
BRANCH   1  21
ATOM     21  C   UNL d   1      -1.720   5.053   0.000  0.00  0.00     0.018 A 
ATOM     22  C   UNL d   1      -1.708   4.228   0.000  0.00  0.00     0.003 A 
ATOM     23  C   UNL d   1      -0.987   3.837   0.000  0.00  0.00     0.018 A 
ATOM     24  C   UNL d   1      -0.275   4.253   0.000  0.00  0.00     0.064 A 
ATOM     25  C   UNL d   1      -0.296   5.078   0.000  0.00  0.00     0.018 A 
ATOM     26  C   UNL d   1      -1.012   5.478   0.000  0.00  0.00     0.003 A 
BRANCH  24  27
ATOM     27  N   UNL d   1       0.450   3.857   0.000  0.00  0.00    -0.301 N 
ATOM     28  C   UNL d   1       0.454   3.033   0.000  0.00  0.00     0.100 C 
ATOM     29  C   UNL d   1       1.150   4.266   0.000  0.00  0.00     0.100 C 
ENDBRANCH  24  27
ENDBRANCH   1  21
TORSDOF 6
