REMARK  4 active torsions:
REMARK  status: ('A' for Active; 'I' for Inactive)
REMARK    1  A    between atoms: N_10  and  C_2 
REMARK    2  A    between atoms: N_11  and  C_6 
REMARK    3  A    between atoms: C_12  and  N_11 
REMARK    4  A    between atoms: O_19  and  C_15 
ROOT
ATOM      1  N   UNL d   1      -2.995   1.256   0.000  0.00  0.00    -0.041 NA
ATOM      2  C   UNL d   1      -3.672   1.648   0.000  0.00  0.00     0.738 A 
ATOM      3  C   UNL d   1      -2.317   1.648   0.000  0.00  0.00     0.187 A 
ATOM      4  N   UNL d   1      -3.672   2.436   0.000  0.00  0.00    -0.041 NA
ATOM      5  C   UNL d   1      -2.313   2.436   0.000  0.00  0.00     0.094 A 
ATOM      6  C   UNL d   1      -2.995   2.836   0.000  0.00  0.00     0.185 A 
ATOM      7  N   UNL d   1      -0.947   1.648   0.000  0.00  0.00    -0.162 NA
ATOM      8  N   UNL d   1      -1.636   1.248   0.000  0.00  0.00    -0.208 N 
ATOM      9  C   UNL d   1      -0.947   2.436   0.000  0.00  0.00     0.127 A 
ATOM     10  C   UNL d   1      -1.636   0.464   0.000  0.00  0.00     0.123 C 
ENDROOT
BRANCH   6  11
ATOM     11  N   UNL d   1      -3.003   3.656   0.000  0.00  0.00    -0.226 NA
BRANCH  11  12
ATOM     12  C   UNL d   1      -3.716   4.064   0.000  0.00  0.00     0.085 A 
ATOM     13  C   UNL d   1      -4.441   3.656   0.000  0.00  0.00     0.043 A 
ATOM     14  C   UNL d   1      -5.158   4.064   0.000  0.00  0.00     0.096 A 
ATOM     15  C   UNL d   1      -5.154   4.896   0.000  0.00  0.00     0.024 A 
ATOM     16  C   UNL d   1      -4.441   5.304   0.000  0.00  0.00     0.004 A 
ATOM     17  C   UNL d   1      -3.720   4.888   0.000  0.00  0.00     0.019 A 
BRANCH  14  18
ATOM     18  O   UNL d   1      -5.875   3.656   0.000  0.00  0.00    -0.328 OA
ATOM     19  C   UNL d   1      -6.077   2.852   0.000  0.00  0.00     0.181 C 
ENDBRANCH  14  18
ENDBRANCH  11  12
ENDBRANCH   6  11
BRANCH   2  20
ATOM     20  N   UNL d   1      -4.393   1.236   0.000  0.00  0.00    -0.133 N 
ATOM     21  C   UNL d   1      -5.106   1.648   0.000  0.00  0.00     0.125 A 
ATOM     22  C   UNL d   1      -5.823   1.236   0.000  0.00  0.00     0.142 A 
ATOM     23  O   UNL d   1      -5.827   0.404   0.000  0.00  0.00    -0.300 OA
ATOM     24  C   UNL d   1      -5.110  -0.012   0.000  0.00  0.00     0.142 A 
ATOM     25  C   UNL d   1      -4.393   0.404   0.000  0.00  0.00     0.125 A 
ENDBRANCH   2  20
TORSDOF 4
