REMARK  3 active torsions:
REMARK  status: ('A' for Active; 'I' for Inactive)
REMARK       I    between atoms: C_3  and  N_1 
REMARK       I    between atoms: C_2  and  N_7 
REMARK    1  A    between atoms: C_4  and  C_2 
REMARK    2  A    between atoms: C_6  and  C_3 
REMARK    3  A    between atoms: N_7  and  C_15 
ROOT
ATOM      1  N   UNL d   1      -3.033   7.504   0.000  0.00  0.00    -0.273 N 
ATOM      2  C   UNL d   1      -3.746   7.925   0.000  0.00  0.00     0.271 C 
ATOM      3  C   UNL d   1      -3.033   6.679   0.000  0.00  0.00     0.067 A 
ATOM      4  C   UNL d   1      -2.321   6.267   0.000  0.00  0.00     0.018 A 
ATOM      5  C   UNL d   1      -3.750   6.275   0.000  0.00  0.00     0.019 A 
ATOM      6  O   UNL d   1      -4.471   7.525   0.000  0.00  0.00    -0.266 OA
ATOM      7  C   UNL d   1      -3.046   5.029   0.000  0.00  0.00     0.085 A 
ATOM      8  C   UNL d   1      -2.325   5.442   0.000  0.00  0.00     0.021 A 
ATOM      9  C   UNL d   1      -2.308   7.904   0.000  0.00  0.00     0.083 A 
ATOM     10  C   UNL d   1      -3.758   5.454   0.000  0.00  0.00     0.021 A 
ATOM     11  C   UNL d   1      -1.608   6.667   0.000  0.00  0.00     0.003 A 
ATOM     12  C   UNL d   1      -1.600   7.492   0.000  0.00  0.00     0.019 A 
ENDROOT
BRANCH   7  13
ATOM     13  N   UNL d   1      -3.046   4.213   0.000  0.00  0.00    -0.208 NA
ATOM     14  C   UNL d   1      -3.758   3.800   0.000  0.00  0.00     0.282 C 
ATOM     15  O   UNL d   1      -4.475   4.204   0.000  0.00  0.00    -0.265 OA
BRANCH  14  16
ATOM     16  C   UNL d   1      -3.763   2.983   0.000  0.00  0.00     0.096 A 
ATOM     17  C   UNL d   1      -3.046   2.558   0.000  0.00  0.00     0.065 A 
ATOM     18 CL   UNL d   1      -2.333   2.971   0.000  0.00  0.00    -0.082 Cl
ATOM     19  C   UNL d   1      -3.050   1.738   0.000  0.00  0.00     0.012 A 
ATOM     20  C   UNL d   1      -3.771   1.333   0.000  0.00  0.00     0.003 A 
ATOM     21  C   UNL d   1      -4.483   1.758   0.000  0.00  0.00     0.030 A 
ATOM     22  C   UNL d   1      -4.475   2.583   0.000  0.00  0.00     0.146 A 
ATOM     23  F   UNL d   1      -5.196   2.996   0.000  0.00  0.00    -0.204 F 
ENDBRANCH  14  16
ENDBRANCH   7  13
BRANCH   2  24
ATOM     24  C   UNL d   1      -3.733   8.754   0.000  0.00  0.00     0.086 A 
ATOM     25  S   UNL d   1      -4.408   9.250   0.000  0.00  0.00    -0.082 SA
ATOM     26  C   UNL d   1      -4.133  10.029   0.000  0.00  0.00     0.036 A 
ATOM     27  C   UNL d   1      -3.308  10.029   0.000  0.00  0.00     0.008 A 
ATOM     28  C   UNL d   1      -3.062   9.238   0.000  0.00  0.00     0.012 A 
ENDBRANCH   2  24
TORSDOF 3
