REMARK  6 active torsions:
REMARK  status: ('A' for Active; 'I' for Inactive)
REMARK    1  A    between atoms: C_13  and  C_4 
REMARK    2  A    between atoms: C_20  and  C_7 
REMARK    3  A    between atoms: C_8  and  C_12 
REMARK       I    between atoms: N_9  and  C_8 
REMARK    4  A    between atoms: C_11  and  N_9 
REMARK       I    between atoms: C_12  and  N_19 
REMARK    5  A    between atoms: N_19  and  C_23 
REMARK    6  A    between atoms: C_23  and  C_20 
ROOT
ATOM      1  C   UNL d   1      -2.333   5.442   0.000  0.00  0.00     0.041 C 
ENDROOT
BRANCH   1   2
ATOM      2  C   UNL d   1      -2.333   6.267   0.000  0.00  0.00     0.093 A 
ATOM      3  N   UNL d   1      -1.671   6.754   0.000  0.00  0.00    -0.205 N 
ATOM      4  C   UNL d   1      -1.921   7.542   0.000  0.00  0.00     0.197 A 
ATOM      5  N   UNL d   1      -0.838   6.754   0.000  0.00  0.00    -0.144 NA
ATOM      6  N   UNL d   1      -1.250   8.025   0.000  0.00  0.00    -0.200 NA
ATOM      7  S   UNL d   1      -2.746   7.542   0.000  0.00  0.00    -0.046 SA
ATOM      8  C   UNL d   1      -0.583   7.542   0.000  0.00  0.00     0.184 A 
ATOM      9  C   UNL d   1      -3.000   6.754   0.000  0.00  0.00     0.058 A 
BRANCH   8  10
ATOM     10  C   UNL d   1       0.200   7.800   0.000  0.00  0.00     0.038 A 
ATOM     11  C   UNL d   1       0.367   8.604   0.000  0.00  0.00     0.003 A 
ATOM     12  C   UNL d   1      -0.246   9.150   0.000  0.00  0.00     0.000 C 
ATOM     13  C   UNL d   1       1.154   8.863   0.000  0.00  0.00     0.000 A 
ATOM     14  C   UNL d   1       1.767   8.304   0.000  0.00  0.00     0.000 A 
ATOM     15  C   UNL d   1       1.600   7.500   0.000  0.00  0.00     0.000 A 
ATOM     16  C   UNL d   1       0.812   7.242   0.000  0.00  0.00     0.003 A 
ENDBRANCH   8  10
ENDBRANCH   1   2
BRANCH   1  17
ATOM     17  C   UNL d   1      -3.046   5.029   0.000  0.00  0.00     0.104 C 
BRANCH  17  18
ATOM     18  N   UNL d   1      -3.046   4.213   0.000  0.00  0.00    -0.202 NA
ATOM     19  C   UNL d   1      -3.758   3.800   0.000  0.00  0.00     0.337 C 
ATOM     20  O   UNL d   1      -4.471   4.213   0.000  0.00  0.00    -0.260 OA
BRANCH  19  21
ATOM     21  C   UNL d   1      -3.758   2.983   0.000  0.00  0.00     0.337 C 
ATOM     22  N   UNL d   1      -4.471   2.558   0.000  0.00  0.00    -0.204 NA
ATOM     23  O   UNL d   1      -3.033   2.562   0.000  0.00  0.00    -0.260 OA
BRANCH  22  24
ATOM     24  C   UNL d   1      -4.471   1.733   0.000  0.00  0.00     0.085 A 
ATOM     25  C   UNL d   1      -3.746   1.321   0.000  0.00  0.00     0.018 A 
ATOM     26  C   UNL d   1      -3.721   0.508   0.000  0.00  0.00     0.002 A 
ATOM     27  C   UNL d   1      -3.038   1.738   0.000  0.00  0.00     0.002 C 
ATOM     28  C   UNL d   1      -4.438   0.071   0.000  0.00  0.00     0.000 A 
ATOM     29  C   UNL d   1      -5.171   0.487   0.000  0.00  0.00     0.002 A 
ATOM     30  C   UNL d   1      -5.175   1.321   0.000  0.00  0.00     0.019 A 
ATOM     31  C   UNL d   1      -5.875   0.071   0.000  0.00  0.00     0.000 C 
ENDBRANCH  22  24
ENDBRANCH  19  21
ENDBRANCH  17  18
ENDBRANCH   1  17
TORSDOF 6
