REMARK  6 active torsions:
REMARK  status: ('A' for Active; 'I' for Inactive)
REMARK    1  A    between atoms: C_9  and  C_2 
REMARK    2  A    between atoms: C_13  and  C_8 
REMARK       I    between atoms: N_10  and  C_9 
REMARK    3  A    between atoms: C_15  and  N_10 
REMARK    4  A    between atoms: N_14  and  C_12 
REMARK    5  A    between atoms: C_21  and  N_14 
REMARK    6  A    between atoms: C_22  and  N_14 
ROOT
ATOM      1  C   UNL d   1      -2.252   2.252   0.000  0.00  0.00     0.180 A 
ATOM      2  C   UNL d   1      -3.516   2.660   0.000  0.00  0.00     0.106 A 
ATOM      3  N   UNL d   1      -2.252   3.085   0.000  0.00  0.00    -0.283 N 
ATOM      4  S   UNL d   1      -3.035   2.005   0.000  0.00  0.00    -0.044 SA
ATOM      5  N   UNL d   1      -1.469   2.005   0.000  0.00  0.00    -0.221 NA
ATOM      6  C   UNL d   1      -3.035   3.333   0.000  0.00  0.00     0.077 A 
ATOM      7  C   UNL d   1      -1.469   3.333   0.000  0.00  0.00     0.101 A 
ATOM      8  C   UNL d   1      -0.989   2.660   0.000  0.00  0.00     0.101 A 
ATOM      9  C   UNL d   1      -3.291   4.129   0.000  0.00  0.00     0.020 C 
ENDROOT
BRANCH   2  10
ATOM     10  C   UNL d   1      -4.349   2.646   0.000  0.00  0.00     0.287 C 
ATOM     11  N   UNL d   1      -4.747   1.923   0.000  0.00  0.00    -0.208 NA
ATOM     12  O   UNL d   1      -4.761   3.351   0.000  0.00  0.00    -0.265 OA
BRANCH  11  13
ATOM     13  C   UNL d   1      -5.571   1.918   0.000  0.00  0.00     0.085 A 
ATOM     14  C   UNL d   1      -5.997   2.632   0.000  0.00  0.00     0.021 A 
ATOM     15  C   UNL d   1      -6.816   2.632   0.000  0.00  0.00     0.019 A 
ATOM     16  C   UNL d   1      -7.214   1.904   0.000  0.00  0.00     0.064 A 
ATOM     17  C   UNL d   1      -6.802   1.190   0.000  0.00  0.00     0.019 A 
ATOM     18  C   UNL d   1      -5.983   1.204   0.000  0.00  0.00     0.021 A 
BRANCH  16  19
ATOM     19  N   UNL d   1      -8.038   1.881   0.000  0.00  0.00    -0.304 N 
BRANCH  19  20
ATOM     20  C   UNL d   1      -8.464   2.582   0.000  0.00  0.00     0.080 C 
ATOM     21  C   UNL d   1      -8.066   3.305   0.000  0.00  0.00     0.021 C 
ENDBRANCH  19  20
BRANCH  19  22
ATOM     22  C   UNL d   1      -8.437   1.163   0.000  0.00  0.00     0.080 C 
ATOM     23  C   UNL d   1      -9.261   1.140   0.000  0.00  0.00     0.021 C 
ENDBRANCH  19  22
ENDBRANCH  16  19
ENDBRANCH  11  13
ENDBRANCH   2  10
BRANCH   8  24
ATOM     24  C   UNL d   1      -0.174   2.618   0.000  0.00  0.00     0.019 A 
ATOM     25  C   UNL d   1       0.211   1.891   0.000  0.00  0.00     0.002 A 
ATOM     26  C   UNL d   1       1.035   1.849   0.000  0.00  0.00     0.000 A 
ATOM     27  C   UNL d   1       1.488   2.550   0.000  0.00  0.00     0.000 A 
ATOM     28  C   UNL d   1       1.103   3.277   0.000  0.00  0.00     0.000 A 
ATOM     29  C   UNL d   1       0.275   3.319   0.000  0.00  0.00     0.002 A 
ENDBRANCH   8  24
TORSDOF 6
