REMARK  2 active torsions:
REMARK  status: ('A' for Active; 'I' for Inactive)
REMARK    1  A    between atoms: N_7  and  C_1 
REMARK       I    between atoms: C_8  and  N_7 
REMARK    2  A    between atoms: C_10  and  C_8 
ROOT
ATOM      1  C   UNL d   1      -2.426   4.575   0.000  0.00  0.00     0.159 A 
ATOM      2  N   UNL d   1      -1.586   5.745   0.000  0.00  0.00    -0.257 N 
ATOM      3  C   UNL d   1      -0.915   5.255   0.000  0.00  0.00     0.150 A 
ATOM      4  C   UNL d   1      -2.338   5.393   0.000  0.00  0.00     0.285 A 
ATOM      5  N   UNL d   1      -0.990   4.423   0.000  0.00  0.00    -0.226 NA
ATOM      6  C   UNL d   1      -1.746   4.084   0.000  0.00  0.00     0.105 A 
ATOM      7  C   UNL d   1      -0.164   5.582   0.000  0.00  0.00     0.035 A 
ATOM      8  C   UNL d   1      -1.507   6.551   0.000  0.00  0.00     0.085 A 
ATOM      9  O   UNL d   1      -3.009   5.884   0.000  0.00  0.00    -0.265 OA
ATOM     10  C   UNL d   1      -0.751   6.891   0.000  0.00  0.00     0.019 A 
ATOM     11  C   UNL d   1      -0.084   6.421   0.000  0.00  0.00     0.004 A 
ATOM     12  C   UNL d   1      -1.834   3.274   0.000  0.00  0.00     0.022 C 
ATOM     13  C   UNL d   1       0.508   5.116   0.000  0.00  0.00     0.003 C 
ENDROOT
BRANCH   1  14
ATOM     14  N   UNL d   1      -3.181   4.235   0.000  0.00  0.00    -0.202 NA
ATOM     15  C   UNL d   1      -3.849   4.726   0.000  0.00  0.00     0.279 C 
ATOM     16  O   UNL d   1      -4.067   3.937   0.000  0.00  0.00    -0.265 OA
BRANCH  15  17
ATOM     17  C   UNL d   1      -4.428   5.317   0.000  0.00  0.00     0.060 A 
ATOM     18  C   UNL d   1      -5.221   5.103   0.000  0.00  0.00     0.031 A 
ATOM     19  C   UNL d   1      -5.800   5.695   0.000  0.00  0.00     0.119 A 
ATOM     20  O   UNL d   1      -6.627   5.657   0.000  0.00  0.00    -0.300 OA
ATOM     21  C   UNL d   1      -5.586   6.488   0.000  0.00  0.00     0.119 A 
ATOM     22  C   UNL d   1      -6.925   6.434   0.000  0.00  0.00     0.304 A 
ATOM     23  O   UNL d   1      -6.262   6.950   0.000  0.00  0.00    -0.300 OA
ATOM     24  C   UNL d   1      -4.780   6.698   0.000  0.00  0.00     0.026 A 
ATOM     25  C   UNL d   1      -4.201   6.111   0.000  0.00  0.00     0.007 A 
ENDBRANCH  15  17
ENDBRANCH   1  14
TORSDOF 2
