REMARK  3 active torsions:
REMARK  status: ('A' for Active; 'I' for Inactive)
REMARK    1  A    between atoms: N_4  and  C_1 
REMARK       I    between atoms: C_7  and  N_4 
REMARK    2  A    between atoms: C_10  and  C_7 
REMARK    3  A    between atoms: O_16  and  C_15 
ROOT
ATOM      1  N   UNL d   1      -0.297   3.591   0.000  0.00  0.00    -0.183 NA
ATOM      2  C   UNL d   1       0.319   3.038   0.000  0.00  0.00     0.281 C 
ATOM      3  O   UNL d   1       0.142   2.221   0.000  0.00  0.00    -0.265 OA
ENDROOT
BRANCH   1   4
ATOM      4  C   UNL d   1      -1.089   3.339   0.000  0.00  0.00     0.197 A 
ATOM      5  N   UNL d   1      -1.345   2.547   0.000  0.00  0.00    -0.221 NA
ATOM      6  C   UNL d   1      -2.175   2.547   0.000  0.00  0.00     0.092 A 
ATOM      7  C   UNL d   1      -2.724   1.932   0.000  0.00  0.00     0.039 A 
ATOM      8  C   UNL d   1      -2.434   3.339   0.000  0.00  0.00     0.068 A 
ATOM      9  C   UNL d   1      -3.541   2.108   0.000  0.00  0.00     0.082 A 
ATOM     10  N   UNL d   1      -3.792   2.891   0.000  0.00  0.00    -0.301 N 
ATOM     11  C   UNL d   1      -3.239   3.503   0.000  0.00  0.00     0.088 A 
ATOM     12  C   UNL d   1      -4.609   3.063   0.000  0.00  0.00     0.100 C 
ATOM     13  S   UNL d   1      -1.760   3.821   0.000  0.00  0.00    -0.045 SA
ENDBRANCH   1   4
BRANCH   2  14
ATOM     14  C   UNL d   1       1.106   3.289   0.000  0.00  0.00     0.060 A 
ATOM     15  C   UNL d   1       1.714   2.736   0.000  0.00  0.00     0.029 A 
ATOM     16  C   UNL d   1       2.493   2.987   0.000  0.00  0.00     0.094 A 
ATOM     17  C   UNL d   1       2.669   3.792   0.000  0.00  0.00     0.024 A 
ATOM     18  C   UNL d   1       2.053   4.341   0.000  0.00  0.00     0.002 A 
ATOM     19  C   UNL d   1       1.274   4.090   0.000  0.00  0.00     0.005 A 
BRANCH  16  20
ATOM     20  O   UNL d   1       3.122   2.426   0.000  0.00  0.00    -0.328 OA
ATOM     21  C   UNL d   1       3.909   2.677   0.000  0.00  0.00     0.181 C 
ENDBRANCH  16  20
ENDBRANCH   2  14
TORSDOF 3
