REMARK  6 active torsions:
REMARK  status: ('A' for Active; 'I' for Inactive)
REMARK    1  A    between atoms: N_3  and  C_1 
REMARK       I    between atoms: C_4  and  N_3 
REMARK       I    between atoms: N_10  and  C_4 
REMARK    2  A    between atoms: C_7  and  C_5 
REMARK    3  A    between atoms: C_9  and  C_7 
REMARK       I    between atoms: N_12  and  C_9 
REMARK    4  A    between atoms: C_14  and  N_10 
REMARK    5  A    between atoms: C_19  and  N_12 
REMARK    6  A    between atoms: C_17  and  C_19 
ROOT
ATOM      1  C   UNL d   1      -1.309   2.438   0.000  0.00  0.00     0.199 A 
ATOM      2  N   UNL d   1      -1.734   3.147   0.000  0.00  0.00    -0.220 NA
ATOM      3  C   UNL d   1      -2.534   2.959   0.000  0.00  0.00     0.095 A 
ATOM      4  S   UNL d   1      -1.834   1.821   0.000  0.00  0.00    -0.046 SA
ATOM      5  C   UNL d   1      -2.596   2.134   0.000  0.00  0.00     0.058 A 
ENDROOT
BRANCH   1   6
ATOM      6  N   UNL d   1      -0.475   2.363   0.000  0.00  0.00    -0.166 NA
ATOM      7  C   UNL d   1       0.004   3.047   0.000  0.00  0.00     0.370 C 
ATOM      8  N   UNL d   1       0.829   2.984   0.000  0.00  0.00    -0.191 NA
ATOM      9  O   UNL d   1      -0.346   3.801   0.000  0.00  0.00    -0.242 OA
BRANCH   8  10
ATOM     10  C   UNL d   1       1.305   3.651   0.000  0.00  0.00     0.087 A 
ATOM     11  C   UNL d   1       2.126   3.584   0.000  0.00  0.00     0.031 A 
ATOM     12  C   UNL d   1       2.601   4.243   0.000  0.00  0.00     0.059 A 
ATOM     13 CL   UNL d   1       3.426   4.168   0.000  0.00  0.00    -0.082 Cl
ATOM     14  C   UNL d   1       2.251   5.001   0.000  0.00  0.00     0.011 A 
ATOM     15  C   UNL d   1       1.430   5.068   0.000  0.00  0.00     0.002 A 
ATOM     16  C   UNL d   1       0.955   4.393   0.000  0.00  0.00     0.019 A 
ENDBRANCH   8  10
ENDBRANCH   1   6
BRANCH   3  17
ATOM     17  C   UNL d   1      -3.163   3.501   0.000  0.00  0.00     0.082 C 
BRANCH  17  18
ATOM     18  C   UNL d   1      -3.959   3.234   0.000  0.00  0.00     0.281 C 
ATOM     19  N   UNL d   1      -4.585   3.772   0.000  0.00  0.00    -0.205 NA
ATOM     20  O   UNL d   1      -4.101   2.421   0.000  0.00  0.00    -0.265 OA
BRANCH  19  21
ATOM     21  C   UNL d   1      -5.360   3.501   0.000  0.00  0.00     0.121 C 
BRANCH  21  22
ATOM     22  C   UNL d   1      -5.522   2.709   0.000  0.00  0.00     0.101 A 
ATOM     23  N   UNL d   1      -4.897   2.151   0.000  0.00  0.00    -0.242 NA
ATOM     24  C   UNL d   1      -5.072   1.346   0.000  0.00  0.00     0.099 A 
ATOM     25  C   UNL d   1      -5.852   1.084   0.000  0.00  0.00     0.021 A 
ATOM     26  C   UNL d   1      -6.469   1.634   0.000  0.00  0.00     0.003 A 
ATOM     27  C   UNL d   1      -6.293   2.446   0.000  0.00  0.00     0.021 A 
ENDBRANCH  21  22
ENDBRANCH  19  21
ENDBRANCH  17  18
ENDBRANCH   3  17
TORSDOF 6
