REMARK  3 active torsions:
REMARK  status: ('A' for Active; 'I' for Inactive)
REMARK    1  A    between atoms: C_7  and  N_1 
REMARK    2  A    between atoms: C_13  and  C_7 
REMARK    3  A    between atoms: O_18  and  C_10 
ROOT
ATOM      1  N   UNL d   1      -3.439   1.841   0.000  0.00  0.00    -0.226 N 
ATOM      2  C   UNL d   1      -3.472   1.054   0.000  0.00  0.00     0.343 A 
ATOM      3  N   UNL d   1      -2.656   0.678   0.000  0.00  0.00    -0.241 N 
ATOM      4  C   UNL d   1      -2.749   2.155   0.000  0.00  0.00     0.273 A 
ATOM      5  C   UNL d   1      -2.092   1.150   0.000  0.00  0.00     0.158 A 
ATOM      6  C   UNL d   1      -2.092   1.979   0.000  0.00  0.00     0.113 A 
ATOM      7  N   UNL d   1      -1.376   0.736   0.000  0.00  0.00    -0.226 NA
ATOM      8  O   UNL d   1      -3.849   0.648   0.000  0.00  0.00    -0.245 OA
ATOM      9  C   UNL d   1      -1.376   2.393   0.000  0.00  0.00     0.103 A 
ATOM     10  O   UNL d   1      -2.782   2.686   0.000  0.00  0.00    -0.266 OA
ATOM     11  C   UNL d   1      -2.594  -0.080   0.000  0.00  0.00     0.105 C 
ATOM     12  C   UNL d   1      -0.661   1.150   0.000  0.00  0.00     0.103 A 
ATOM     13  C   UNL d   1      -0.661   1.979   0.000  0.00  0.00     0.045 A 
ENDROOT
BRANCH   1  14
ATOM     14  C   UNL d   1      -4.125   2.297   0.000  0.00  0.00     0.087 C 
BRANCH  14  15
ATOM     15  C   UNL d   1      -4.865   1.941   0.000  0.00  0.00     0.018 A 
ATOM     16  C   UNL d   1      -4.928   1.104   0.000  0.00  0.00     0.002 A 
ATOM     17  C   UNL d   1      -5.656   0.741   0.000  0.00  0.00     0.011 A 
ATOM     18  C   UNL d   1      -6.330   1.201   0.000  0.00  0.00     0.058 A 
ATOM     19  C   UNL d   1      -6.279   2.029   0.000  0.00  0.00     0.011 A 
ATOM     20 CL   UNL d   1      -7.070   0.837   0.000  0.00  0.00    -0.082 Cl
ATOM     21  C   UNL d   1      -5.556   2.393   0.000  0.00  0.00     0.002 A 
ENDBRANCH  14  15
ENDBRANCH   1  14
BRANCH   9  22
ATOM     22  O   UNL d   1      -1.401   3.313   0.000  0.00  0.00    -0.328 OA
ATOM     23  C   UNL d   1      -0.703   3.753   0.000  0.00  0.00     0.181 C 
ENDBRANCH   9  22
TORSDOF 3
