REMARK  2 active torsions:
REMARK  status: ('A' for Active; 'I' for Inactive)
REMARK    1  A    between atoms: C_6  and  C_1 
REMARK    2  A    between atoms: C_8  and  C_6 
ROOT
ATOM      1  C   UNL d   1       6.204  -1.875   0.000  0.00  0.00     0.141 A 
ATOM      2  C   UNL d   1       4.929  -2.292   0.000  0.00  0.00     0.064 A 
ATOM      3  C   UNL d   1       5.717  -2.542   0.000  0.00  0.00     0.220 A 
ATOM      4  C   UNL d   1       4.929  -1.467   0.000  0.00  0.00     0.106 A 
ATOM      5  O   UNL d   1       5.713  -1.204   0.000  0.00  0.00    -0.304 OA
ATOM      6  C   UNL d   1       4.213  -2.712   0.000  0.00  0.00     0.008 A 
ATOM      7  C   UNL d   1       4.213  -1.054   0.000  0.00  0.00     0.067 A 
ATOM      8  C   UNL d   1       3.500  -2.300   0.000  0.00  0.00     0.042 A 
ATOM      9  C   UNL d   1       3.500  -1.475   0.000  0.00  0.00     0.198 A 
ATOM     10  O   UNL d   1       5.979  -3.329   0.000  0.00  0.00    -0.284 OA
ATOM     11  O   UNL d   1       2.788  -1.062   0.000  0.00  0.00    -0.286 OA
ATOM     12  C   UNL d   1       4.217  -3.538   0.000  0.00  0.00     0.000 C 
ENDROOT
BRANCH   1  13
ATOM     13  C   UNL d   1       7.029  -1.867   0.000  0.00  0.00     0.053 C 
BRANCH  13  14
ATOM     14  C   UNL d   1       7.438  -1.154   0.000  0.00  0.00     0.102 A 
ATOM     15  O   UNL d   1       7.092  -0.404   0.000  0.00  0.00    -0.305 OA
ATOM     16  C   UNL d   1       7.704   0.150   0.000  0.00  0.00     0.123 A 
ATOM     17  C   UNL d   1       8.417  -0.254   0.000  0.00  0.00     0.029 A 
ATOM     18  C   UNL d   1       8.254  -1.067   0.000  0.00  0.00     0.027 A 
ENDBRANCH  13  14
ENDBRANCH   1  13
TORSDOF 2
