REMARK  1 active torsions:
REMARK  status: ('A' for Active; 'I' for Inactive)
REMARK    1  A    between atoms: C_11  and  C_4 
ROOT
ATOM      1  O   UNL d   1      -1.382  -0.492   0.000  0.00  0.00    -0.304 OA
ATOM      2  C   UNL d   1      -1.393   0.848   0.000  0.00  0.00     0.025 A 
ATOM      3  C   UNL d   1      -0.603   0.592   0.000  0.00  0.00     0.030 A 
ATOM      4  C   UNL d   1      -0.596  -0.233   0.000  0.00  0.00     0.142 A 
ATOM      5  C   UNL d   1      -1.867   0.172   0.000  0.00  0.00     0.100 A 
ATOM      6  C   UNL d   1      -1.725   1.592   0.000  0.00  0.00     0.009 A 
ATOM      7  C   UNL d   1      -2.687   0.248   0.000  0.00  0.00     0.025 A 
ATOM      8  C   UNL d   1      -2.550   1.680   0.000  0.00  0.00     0.035 A 
ATOM      9  C   UNL d   1      -3.031   1.004   0.000  0.00  0.00     0.009 A 
ATOM     10 BR   UNL d   1      -2.893   2.428   0.000  0.00  0.00    -0.049 Br
ENDROOT
BRANCH   4  11
ATOM     11  C   UNL d   1       0.073  -0.714   0.000  0.00  0.00     0.259 C 
ATOM     12  O   UNL d   1      -0.008  -1.527   0.000  0.00  0.00    -0.281 OA
ENDBRANCH   4  11
TORSDOF 1
