REMARK  3 active torsions:
REMARK  status: ('A' for Active; 'I' for Inactive)
REMARK    1  A    between atoms: C_6  and  C_1 
REMARK    2  A    between atoms: C_12  and  C_6 
REMARK    3  A    between atoms: C_9  and  C_10 
ROOT
ATOM      1  C   UNL d   1      -0.671  -0.025   0.000  0.00  0.00     0.139 A 
ATOM      2  C   UNL d   1      -1.939  -0.429   0.000  0.00  0.00     0.064 A 
ATOM      3  C   UNL d   1      -1.159  -0.692   0.000  0.00  0.00     0.220 A 
ATOM      4  C   UNL d   1      -1.939   0.396   0.000  0.00  0.00     0.106 A 
ATOM      5  O   UNL d   1      -1.151   0.646   0.000  0.00  0.00    -0.304 OA
ATOM      6  C   UNL d   1      -2.648   0.801   0.000  0.00  0.00     0.067 A 
ATOM      7  C   UNL d   1      -2.652  -0.842   0.000  0.00  0.00     0.009 A 
ATOM      8  O   UNL d   1      -0.901  -1.476   0.000  0.00  0.00    -0.284 OA
ATOM      9  C   UNL d   1      -3.361   0.388   0.000  0.00  0.00     0.198 A 
ATOM     10  C   UNL d   1      -3.361  -0.429   0.000  0.00  0.00     0.042 A 
ATOM     11  O   UNL d   1      -4.074   0.801   0.000  0.00  0.00    -0.286 OA
ENDROOT
BRANCH   1  12
ATOM     12  C   UNL d   1       0.154  -0.025   0.000  0.00  0.00     0.028 C 
BRANCH  12  13
ATOM     13  C   UNL d   1       0.576   0.688   0.000  0.00  0.00     0.002 A 
ATOM     14  C   UNL d   1       0.163   1.397   0.000  0.00  0.00    -0.000 A 
ATOM     15  C   UNL d   1       0.567   2.110   0.000  0.00  0.00    -0.004 A 
ATOM     16  C   UNL d   1       1.401   2.114   0.000  0.00  0.00    -0.023 A 
ATOM     17  C   UNL d   1       1.814   1.397   0.000  0.00  0.00    -0.004 A 
ATOM     18  C   UNL d   1       1.393   0.684   0.000  0.00  0.00    -0.000 A 
BRANCH  16  19
ATOM     19  C   UNL d   1       1.814   2.836   0.000  0.00  0.00     0.019 C 
ATOM     20  C   UNL d   1       2.218   3.549   0.000  0.00  0.00     0.004 C 
ATOM     21  C   UNL d   1       2.531   2.423   0.000  0.00  0.00     0.004 C 
ATOM     22  C   UNL d   1       1.093   3.236   0.000  0.00  0.00     0.004 C 
ENDBRANCH  16  19
ENDBRANCH  12  13
ENDBRANCH   1  12
TORSDOF 3
